MODEL 1
REMARK VINA RESULT:      -7.5      0.000      0.000
REMARK  Name = 28962594
REMARK  5 active torsions:
REMARK  status: ('A' for Active; 'I' for Inactive)
REMARK    1  A    between atoms: N_4  and  C_13
REMARK    2  A    between atoms: C_6  and  C_16
REMARK    3  A    between atoms: C_9  and  C_17
REMARK    4  A    between atoms: C_15  and  C_19
REMARK    5  A    between atoms: C_20  and  C_21
REMARK                            x       y       z     vdW  Elec       q    Type
REMARK                         _______ _______ _______ _____ _____    ______ ____
ROOT
ATOM      1  O   UNL     1      10.961   3.289  -0.965  0.00  0.00    -0.461 OA
ATOM      2  O   UNL     1      10.038   2.228  -2.786  0.00  0.00    -0.251 OA
ATOM      5  C   UNL     1      12.486   4.727   0.444  0.00  0.00    +0.041 C 
ATOM      6  C   UNL     1      14.024   4.997   0.639  0.00  0.00    -0.025 C 
ATOM      7  C   UNL     1      12.301   3.577  -0.564  0.00  0.00    +0.184 C 
ATOM      8  C   UNL     1      12.939   3.944  -1.891  0.00  0.00    +0.044 C 
ATOM      9  C   UNL     1      11.749   4.563   1.809  0.00  0.00    +0.013 C 
ATOM     10  C   UNL     1      14.719   5.229  -0.738  0.00  0.00    +0.007 C 
ATOM     11  C   UNL     1      14.187   6.276   1.492  0.00  0.00    +0.009 C 
ATOM     12  C   UNL     1      14.438   4.125  -1.769  0.00  0.00    +0.008 C 
ATOM     13  C   UNL     1      11.993   5.816   2.695  0.00  0.00    +0.076 C 
ATOM     14  C   UNL     1      13.472   6.186   2.835  0.00  0.00    +0.023 C 
ATOM     15  C   UNL     1      12.410   2.830  -2.775  0.00  0.00    +0.101 C 
ATOM     16  C   UNL     1      14.754   3.822   1.343  0.00  0.00    +0.011 C 
ATOM     17  C   UNL     1      10.239   4.329   1.642  0.00  0.00    +0.010 C 
ATOM     18  C   UNL     1      11.000   2.729  -2.224  0.00  0.00    +0.311 C 
ATOM     19  C   UNL     1      12.437   3.171  -4.253  0.00  0.00    +0.019 C 
ENDROOT
BRANCH  13   4
ATOM      3  O   UNL     1      10.159   7.591   4.011  0.00  0.00    -0.270 OA
ATOM      4  N   UNL     1      11.428   5.651   4.017  0.00  0.00    -0.308 N 
ATOM     20  C   UNL     1      10.548   6.568   4.567  0.00  0.00    +0.244 C 
ATOM     27  H   UNL     1      11.793   4.889   4.579  0.00  0.00    +0.149 HD
BRANCH  20  21
ATOM     21  C   UNL     1      10.079   6.268   5.944  0.00  0.00    +0.037 A 
ATOM     22  C   UNL     1       9.484   7.268   6.712  0.00  0.00    +0.013 A 
ATOM     23  C   UNL     1      10.232   4.985   6.468  0.00  0.00    +0.013 A 
ATOM     24  C   UNL     1       9.043   6.987   8.005  0.00  0.00    +0.001 A 
ATOM     25  C   UNL     1       9.791   4.702   7.761  0.00  0.00    +0.001 A 
ATOM     26  C   UNL     1       9.196   5.703   8.530  0.00  0.00    +0.000 A 
ENDBRANCH  20  21
ENDBRANCH  13   4
TORSDOF 2
ENDMDL
MODEL 2
REMARK VINA RESULT:      -6.8     24.185     27.235
REMARK  Name = 28962594
REMARK  5 active torsions:
REMARK  status: ('A' for Active; 'I' for Inactive)
REMARK    1  A    between atoms: N_4  and  C_13
REMARK    2  A    between atoms: C_6  and  C_16
REMARK    3  A    between atoms: C_9  and  C_17
REMARK    4  A    between atoms: C_15  and  C_19
REMARK    5  A    between atoms: C_20  and  C_21
REMARK                            x       y       z     vdW  Elec       q    Type
REMARK                         _______ _______ _______ _____ _____    ______ ____
ROOT
ATOM      1  O   UNL     1      -5.817 -10.245  12.077  0.00  0.00    -0.461 OA
ATOM      2  O   UNL     1      -6.330  -9.660   9.912  0.00  0.00    -0.251 OA
ATOM      5  C   UNL     1      -4.528 -10.561  14.225  0.00  0.00    +0.041 C 
ATOM      6  C   UNL     1      -3.118 -11.072  14.705  0.00  0.00    -0.025 C 
ATOM      7  C   UNL     1      -4.651 -10.779  12.706  0.00  0.00    +0.184 C 
ATOM      8  C   UNL     1      -3.549 -10.026  11.983  0.00  0.00    +0.044 C 
ATOM      9  C   UNL     1      -5.683 -11.146  15.095  0.00  0.00    +0.013 C 
ATOM     10  C   UNL     1      -1.981 -10.413  13.865  0.00  0.00    +0.007 C 
ATOM     11  C   UNL     1      -2.934 -10.665  16.185  0.00  0.00    +0.009 C 
ATOM     12  C   UNL     1      -2.174 -10.547  12.347  0.00  0.00    +0.008 C 
ATOM     13  C   UNL     1      -5.441 -10.808  16.592  0.00  0.00    +0.076 C 
ATOM     14  C   UNL     1      -4.044 -11.192  17.086  0.00  0.00    +0.023 C 
ATOM     15  C   UNL     1      -4.018 -10.152  10.546  0.00  0.00    +0.101 C 
ATOM     16  C   UNL     1      -2.965 -12.611  14.581  0.00  0.00    +0.011 C 
ATOM     17  C   UNL     1      -7.066 -10.635  14.663  0.00  0.00    +0.010 C 
ATOM     18  C   UNL     1      -5.511  -9.978  10.760  0.00  0.00    +0.311 C 
ATOM     19  C   UNL     1      -3.433  -9.096   9.628  0.00  0.00    +0.019 C 
ENDROOT
BRANCH  13   4
ATOM      3  O   UNL     1      -7.563  -9.501  18.019  0.00  0.00    -0.270 OA
ATOM      4  N   UNL     1      -6.425 -11.438  17.446  0.00  0.00    -0.308 N 
ATOM     20  C   UNL     1      -7.414 -10.717  18.094  0.00  0.00    +0.244 C 
ATOM     27  H   UNL     1      -6.294 -12.424  17.646  0.00  0.00    +0.149 HD
BRANCH  20  21
ATOM     21  C   UNL     1      -8.330 -11.508  18.955  0.00  0.00    +0.037 A 
ATOM     22  C   UNL     1      -7.994 -12.811  19.321  0.00  0.00    +0.013 A 
ATOM     23  C   UNL     1      -9.526 -10.945  19.402  0.00  0.00    +0.013 A 
ATOM     24  C   UNL     1      -8.854 -13.553  20.130  0.00  0.00    +0.001 A 
ATOM     25  C   UNL     1     -10.387 -11.687  20.212  0.00  0.00    +0.001 A 
ATOM     26  C   UNL     1     -10.050 -12.991  20.576  0.00  0.00    +0.000 A 
ENDBRANCH  20  21
ENDBRANCH  13   4
TORSDOF 2
ENDMDL
MODEL 3
REMARK VINA RESULT:      -6.8     24.969     28.323
REMARK  Name = 28962594
REMARK  5 active torsions:
REMARK  status: ('A' for Active; 'I' for Inactive)
REMARK    1  A    between atoms: N_4  and  C_13
REMARK    2  A    between atoms: C_6  and  C_16
REMARK    3  A    between atoms: C_9  and  C_17
REMARK    4  A    between atoms: C_15  and  C_19
REMARK    5  A    between atoms: C_20  and  C_21
REMARK                            x       y       z     vdW  Elec       q    Type
REMARK                         _______ _______ _______ _____ _____    ______ ____
ROOT
ATOM      1  O   UNL     1      -5.539 -10.280  13.318  0.00  0.00    -0.461 OA
ATOM      2  O   UNL     1      -4.762 -10.086  11.161  0.00  0.00    -0.251 OA
ATOM      5  C   UNL     1      -5.581 -10.429  15.839  0.00  0.00    +0.041 C 
ATOM      6  C   UNL     1      -4.820 -11.169  17.001  0.00  0.00    -0.025 C 
ATOM      7  C   UNL     1      -5.055 -10.944  14.487  0.00  0.00    +0.184 C 
ATOM      8  C   UNL     1      -3.562 -10.689  14.379  0.00  0.00    +0.044 C 
ATOM      9  C   UNL     1      -7.128 -10.479  16.034  0.00  0.00    +0.013 C 
ATOM     10  C   UNL     1      -3.277 -11.038  16.818  0.00  0.00    +0.007 C 
ATOM     11  C   UNL     1      -5.214 -10.501  18.339  0.00  0.00    +0.009 C 
ATOM     12  C   UNL     1      -2.780 -11.456  15.426  0.00  0.00    +0.008 C 
ATOM     13  C   UNL     1      -7.505  -9.887  17.420  0.00  0.00    +0.076 C 
ATOM     14  C   UNL     1      -6.718 -10.502  18.581  0.00  0.00    +0.023 C 
ATOM     15  C   UNL     1      -3.326 -11.009  12.915  0.00  0.00    +0.101 C 
ATOM     16  C   UNL     1      -5.160 -12.681  17.072  0.00  0.00    +0.011 C 
ATOM     17  C   UNL     1      -7.889  -9.736  14.925  0.00  0.00    +0.010 C 
ATOM     18  C   UNL     1      -4.589 -10.407  12.327  0.00  0.00    +0.311 C 
ATOM     19  C   UNL     1      -2.064 -10.379  12.358  0.00  0.00    +0.019 C 
ENDROOT
BRANCH  13   4
ATOM      3  O   UNL     1      -9.470  -7.793  17.416  0.00  0.00    -0.270 OA
ATOM      4  N   UNL     1      -8.920 -10.028  17.691  0.00  0.00    -0.308 N 
ATOM     20  C   UNL     1      -9.791  -8.952  17.665  0.00  0.00    +0.244 C 
ATOM     27  H   UNL     1      -9.235 -10.936  18.017  0.00  0.00    +0.149 HD
BRANCH  20  21
ATOM     21  C   UNL     1     -11.206  -9.258  17.992  0.00  0.00    +0.037 A 
ATOM     22  C   UNL     1     -11.526  -9.870  19.205  0.00  0.00    +0.013 A 
ATOM     23  C   UNL     1     -12.217  -8.931  17.089  0.00  0.00    +0.013 A 
ATOM     24  C   UNL     1     -12.856 -10.156  19.512  0.00  0.00    +0.001 A 
ATOM     25  C   UNL     1     -13.548  -9.217  17.396  0.00  0.00    +0.001 A 
ATOM     26  C   UNL     1     -13.867  -9.830  18.608  0.00  0.00    +0.000 A 
ENDBRANCH  20  21
ENDBRANCH  13   4
TORSDOF 2
ENDMDL
MODEL 4
REMARK VINA RESULT:      -6.5     23.534     25.815
REMARK  Name = 28962594
REMARK  5 active torsions:
REMARK  status: ('A' for Active; 'I' for Inactive)
REMARK    1  A    between atoms: N_4  and  C_13
REMARK    2  A    between atoms: C_6  and  C_16
REMARK    3  A    between atoms: C_9  and  C_17
REMARK    4  A    between atoms: C_15  and  C_19
REMARK    5  A    between atoms: C_20  and  C_21
REMARK                            x       y       z     vdW  Elec       q    Type
REMARK                         _______ _______ _______ _____ _____    ______ ____
ROOT
ATOM      1  O   UNL     1      -5.590  -9.920  14.911  0.00  0.00    -0.461 OA
ATOM      2  O   UNL     1      -6.201  -9.544  17.097  0.00  0.00    -0.251 OA
ATOM      5  C   UNL     1      -4.492 -10.940  12.878  0.00  0.00    +0.041 C 
ATOM      6  C   UNL     1      -3.076 -11.452  12.419  0.00  0.00    -0.025 C 
ATOM      7  C   UNL     1      -4.370 -10.315  14.280  0.00  0.00    +0.184 C 
ATOM      8  C   UNL     1      -3.844 -11.343  15.263  0.00  0.00    +0.044 C 
ATOM      9  C   UNL     1      -5.168 -10.051  11.789  0.00  0.00    +0.013 C 
ATOM     10  C   UNL     1      -2.459 -12.396  13.496  0.00  0.00    +0.007 C 
ATOM     11  C   UNL     1      -3.252 -12.251  11.108  0.00  0.00    +0.009 C 
ATOM     12  C   UNL     1      -2.442 -11.798  14.910  0.00  0.00    +0.008 C 
ATOM     13  C   UNL     1      -5.259 -10.833  10.450  0.00  0.00    +0.076 C 
ATOM     14  C   UNL     1      -3.925 -11.441  10.007  0.00  0.00    +0.023 C 
ATOM     15  C   UNL     1      -4.064 -10.616  16.576  0.00  0.00    +0.101 C 
ATOM     16  C   UNL     1      -2.072 -10.295  12.176  0.00  0.00    +0.011 C 
ATOM     17  C   UNL     1      -6.566  -9.566  12.205  0.00  0.00    +0.010 C 
ATOM     18  C   UNL     1      -5.403  -9.968  16.275  0.00  0.00    +0.311 C 
ATOM     19  C   UNL     1      -4.119 -11.544  17.775  0.00  0.00    +0.019 C 
ENDROOT
BRANCH  13   4
ATOM      3  O   UNL     1      -7.137 -11.605   8.420  0.00  0.00    -0.270 OA
ATOM      4  N   UNL     1      -5.768 -10.000   9.381  0.00  0.00    -0.308 N 
ATOM     20  C   UNL     1      -6.676 -10.467   8.446  0.00  0.00    +0.244 C 
ATOM     27  H   UNL     1      -5.343  -9.085   9.272  0.00  0.00    +0.149 HD
BRANCH  20  21
ATOM     21  C   UNL     1      -7.079  -9.497   7.396  0.00  0.00    +0.037 A 
ATOM     22  C   UNL     1      -7.830  -8.372   7.738  0.00  0.00    +0.013 A 
ATOM     23  C   UNL     1      -6.705  -9.708   6.070  0.00  0.00    +0.013 A 
ATOM     24  C   UNL     1      -8.208  -7.460   6.753  0.00  0.00    +0.001 A 
ATOM     25  C   UNL     1      -7.082  -8.796   5.084  0.00  0.00    +0.001 A 
ATOM     26  C   UNL     1      -7.834  -7.672   5.425  0.00  0.00    +0.000 A 
ENDBRANCH  20  21
ENDBRANCH  13   4
TORSDOF 2
ENDMDL
MODEL 5
REMARK VINA RESULT:      -6.3     24.623     28.698
REMARK  Name = 28962594
REMARK  5 active torsions:
REMARK  status: ('A' for Active; 'I' for Inactive)
REMARK    1  A    between atoms: N_4  and  C_13
REMARK    2  A    between atoms: C_6  and  C_16
REMARK    3  A    between atoms: C_9  and  C_17
REMARK    4  A    between atoms: C_15  and  C_19
REMARK    5  A    between atoms: C_20  and  C_21
REMARK                            x       y       z     vdW  Elec       q    Type
REMARK                         _______ _______ _______ _____ _____    ______ ____
ROOT
ATOM      1  O   UNL     1      -9.572  -9.781  16.716  0.00  0.00    -0.461 OA
ATOM      2  O   UNL     1     -11.732  -9.034  16.979  0.00  0.00    -0.251 OA
ATOM      5  C   UNL     1      -7.458 -11.130  17.010  0.00  0.00    +0.041 C 
ATOM      6  C   UNL     1      -6.559 -11.699  18.170  0.00  0.00    -0.025 C 
ATOM      7  C   UNL     1      -8.578 -10.267  17.619  0.00  0.00    +0.184 C 
ATOM      8  C   UNL     1      -9.419 -11.103  18.567  0.00  0.00    +0.044 C 
ATOM      9  C   UNL     1      -6.603 -10.451  15.895  0.00  0.00    +0.013 C 
ATOM     10  C   UNL     1      -7.435 -12.434  19.231  0.00  0.00    +0.007 C 
ATOM     11  C   UNL     1      -5.569 -12.717  17.560  0.00  0.00    +0.009 C 
ATOM     12  C   UNL     1      -8.613 -11.598  19.751  0.00  0.00    +0.008 C 
ATOM     13  C   UNL     1      -5.550 -11.456  15.351  0.00  0.00    +0.076 C 
ATOM     14  C   UNL     1      -4.715 -12.119  16.449  0.00  0.00    +0.023 C 
ATOM     15  C   UNL     1     -10.579 -10.159  18.820  0.00  0.00    +0.101 C 
ATOM     16  C   UNL     1      -5.758 -10.592  18.905  0.00  0.00    +0.011 C 
ATOM     17  C   UNL     1      -7.459  -9.915  14.737  0.00  0.00    +0.010 C 
ATOM     18  C   UNL     1     -10.739  -9.588  17.424  0.00  0.00    +0.311 C 
ATOM     19  C   UNL     1     -11.830 -10.864  19.310  0.00  0.00    +0.019 C 
ENDROOT
BRANCH  13   4
ATOM      3  O   UNL     1      -5.148 -12.218  12.612  0.00  0.00    -0.270 OA
ATOM      4  N   UNL     1      -4.656 -10.828  14.401  0.00  0.00    -0.308 N 
ATOM     20  C   UNL     1      -4.532 -11.272  13.095  0.00  0.00    +0.244 C 
ATOM     27  H   UNL     1      -4.032 -10.115  14.763  0.00  0.00    +0.149 HD
BRANCH  20  21
ATOM     21  C   UNL     1      -3.552 -10.538  12.255  0.00  0.00    +0.037 A 
ATOM     22  C   UNL     1      -2.211 -10.479  12.636  0.00  0.00    +0.013 A 
ATOM     23  C   UNL     1      -3.971  -9.910  11.082  0.00  0.00    +0.013 A 
ATOM     24  C   UNL     1      -1.291  -9.791  11.846  0.00  0.00    +0.001 A 
ATOM     25  C   UNL     1      -3.052  -9.221  10.291  0.00  0.00    +0.001 A 
ATOM     26  C   UNL     1      -1.711  -9.162  10.673  0.00  0.00    +0.000 A 
ENDBRANCH  20  21
ENDBRANCH  13   4
TORSDOF 2
ENDMDL
MODEL 6
REMARK VINA RESULT:      -6.2      2.358      9.036
REMARK  Name = 28962594
REMARK  5 active torsions:
REMARK  status: ('A' for Active; 'I' for Inactive)
REMARK    1  A    between atoms: N_4  and  C_13
REMARK    2  A    between atoms: C_6  and  C_16
REMARK    3  A    between atoms: C_9  and  C_17
REMARK    4  A    between atoms: C_15  and  C_19
REMARK    5  A    between atoms: C_20  and  C_21
REMARK                            x       y       z     vdW  Elec       q    Type
REMARK                         _______ _______ _______ _____ _____    ______ ____
ROOT
ATOM      1  O   UNL     1      11.480   9.959   6.575  0.00  0.00    -0.461 OA
ATOM      2  O   UNL     1      11.592  12.049   7.530  0.00  0.00    -0.251 OA
ATOM      5  C   UNL     1      10.624   7.678   5.911  0.00  0.00    +0.041 C 
ATOM      6  C   UNL     1       9.928   6.429   6.569  0.00  0.00    -0.025 C 
ATOM      7  C   UNL     1      10.965   8.700   7.011  0.00  0.00    +0.184 C 
ATOM      8  C   UNL     1       9.700   9.128   7.732  0.00  0.00    +0.044 C 
ATOM      9  C   UNL     1      11.803   7.259   4.978  0.00  0.00    +0.013 C 
ATOM     10  C   UNL     1       8.710   6.873   7.436  0.00  0.00    +0.007 C 
ATOM     11  C   UNL     1       9.415   5.509   5.437  0.00  0.00    +0.009 C 
ATOM     12  C   UNL     1       9.043   7.971   8.457  0.00  0.00    +0.008 C 
ATOM     13  C   UNL     1      11.295   6.265   3.898  0.00  0.00    +0.076 C 
ATOM     14  C   UNL     1      10.518   5.079   4.478  0.00  0.00    +0.023 C 
ATOM     15  C   UNL     1      10.221  10.296   8.547  0.00  0.00    +0.101 C 
ATOM     16  C   UNL     1      10.886   5.620   7.482  0.00  0.00    +0.011 C 
ATOM     17  C   UNL     1      12.478   8.463   4.302  0.00  0.00    +0.010 C 
ATOM     18  C   UNL     1      11.164  10.905   7.526  0.00  0.00    +0.311 C 
ATOM     19  C   UNL     1       9.133  11.257   8.985  0.00  0.00    +0.019 C 
ENDROOT
BRANCH  13   4
ATOM      3  O   UNL     1      11.226   5.721   1.080  0.00  0.00    -0.270 OA
ATOM      4  N   UNL     1      12.382   5.757   3.089  0.00  0.00    -0.308 N 
ATOM     20  C   UNL     1      12.249   5.526   1.730  0.00  0.00    +0.244 C 
ATOM     27  H   UNL     1      13.220   5.465   3.580  0.00  0.00    +0.149 HD
BRANCH  20  21
ATOM     21  C   UNL     1      13.449   4.979   1.047  0.00  0.00    +0.037 A 
ATOM     22  C   UNL     1      13.738   5.354  -0.265  0.00  0.00    +0.013 A 
ATOM     23  C   UNL     1      14.290   4.092   1.719  0.00  0.00    +0.013 A 
ATOM     24  C   UNL     1      14.865   4.841  -0.905  0.00  0.00    +0.001 A 
ATOM     25  C   UNL     1      15.418   3.578   1.080  0.00  0.00    +0.001 A 
ATOM     26  C   UNL     1      15.706   3.953  -0.233  0.00  0.00    +0.000 A 
ENDBRANCH  20  21
ENDBRANCH  13   4
TORSDOF 2
ENDMDL
MODEL 7
REMARK VINA RESULT:      -6.1     23.569     26.145
REMARK  Name = 28962594
REMARK  5 active torsions:
REMARK  status: ('A' for Active; 'I' for Inactive)
REMARK    1  A    between atoms: N_4  and  C_13
REMARK    2  A    between atoms: C_6  and  C_16
REMARK    3  A    between atoms: C_9  and  C_17
REMARK    4  A    between atoms: C_15  and  C_19
REMARK    5  A    between atoms: C_20  and  C_21
REMARK                            x       y       z     vdW  Elec       q    Type
REMARK                         _______ _______ _______ _____ _____    ______ ____
ROOT
ATOM      1  O   UNL     1      -6.283 -10.264  14.977  0.00  0.00    -0.461 OA
ATOM      2  O   UNL     1      -7.388  -9.526  16.855  0.00  0.00    -0.251 OA
ATOM      5  C   UNL     1      -4.595 -11.421  13.497  0.00  0.00    +0.041 C 
ATOM      6  C   UNL     1      -3.037 -11.614  13.393  0.00  0.00    -0.025 C 
ATOM      7  C   UNL     1      -4.905 -10.448  14.650  0.00  0.00    +0.184 C 
ATOM      8  C   UNL     1      -4.359 -10.999  15.954  0.00  0.00    +0.044 C 
ATOM      9  C   UNL     1      -5.230 -11.069  12.116  0.00  0.00    +0.013 C 
ATOM     10  C   UNL     1      -2.443 -12.038  14.771  0.00  0.00    +0.007 C 
ATOM     11  C   UNL     1      -2.756 -12.740  12.371  0.00  0.00    +0.009 C 
ATOM     12  C   UNL     1      -2.848 -11.116  15.931  0.00  0.00    +0.008 C 
ATOM     13  C   UNL     1      -4.866 -12.161  11.073  0.00  0.00    +0.076 C 
ATOM     14  C   UNL     1      -3.367 -12.463  11.003  0.00  0.00    +0.023 C 
ATOM     15  C   UNL     1      -5.000 -10.051  16.950  0.00  0.00    +0.101 C 
ATOM     16  C   UNL     1      -2.303 -10.325  12.939  0.00  0.00    +0.011 C 
ATOM     17  C   UNL     1      -6.756 -10.906  12.190  0.00  0.00    +0.010 C 
ATOM     18  C   UNL     1      -6.365  -9.905  16.305  0.00  0.00    +0.311 C 
ATOM     19  C   UNL     1      -5.074 -10.616  18.356  0.00  0.00    +0.019 C 
ENDROOT
BRANCH  13   4
ATOM      3  O   UNL     1      -3.875 -10.037   9.415  0.00  0.00    -0.270 OA
ATOM      4  N   UNL     1      -5.332 -11.809   9.749  0.00  0.00    -0.308 N 
ATOM     20  C   UNL     1      -4.787 -10.761   9.026  0.00  0.00    +0.244 C 
ATOM     27  H   UNL     1      -6.160 -12.290   9.412  0.00  0.00    +0.149 HD
BRANCH  20  21
ATOM     21  C   UNL     1      -5.395 -10.511   7.694  0.00  0.00    +0.037 A 
ATOM     22  C   UNL     1      -5.032 -11.299   6.602  0.00  0.00    +0.013 A 
ATOM     23  C   UNL     1      -6.331  -9.489   7.536  0.00  0.00    +0.013 A 
ATOM     24  C   UNL     1      -5.603 -11.064   5.352  0.00  0.00    +0.001 A 
ATOM     25  C   UNL     1      -6.903  -9.253   6.285  0.00  0.00    +0.001 A 
ATOM     26  C   UNL     1      -6.539 -10.042   5.193  0.00  0.00    +0.000 A 
ENDBRANCH  20  21
ENDBRANCH  13   4
TORSDOF 2
ENDMDL
MODEL 8
REMARK VINA RESULT:      -6.1     24.510     27.924
REMARK  Name = 28962594
REMARK  5 active torsions:
REMARK  status: ('A' for Active; 'I' for Inactive)
REMARK    1  A    between atoms: N_4  and  C_13
REMARK    2  A    between atoms: C_6  and  C_16
REMARK    3  A    between atoms: C_9  and  C_17
REMARK    4  A    between atoms: C_15  and  C_19
REMARK    5  A    between atoms: C_20  and  C_21
REMARK                            x       y       z     vdW  Elec       q    Type
REMARK                         _______ _______ _______ _____ _____    ______ ____
ROOT
ATOM      1  O   UNL     1     -12.620  -7.702  12.495  0.00  0.00    -0.461 OA
ATOM      2  O   UNL     1     -13.288  -8.979  14.289  0.00  0.00    -0.251 OA
ATOM      5  C   UNL     1     -11.935  -5.709  11.104  0.00  0.00    +0.041 C 
ATOM      6  C   UNL     1     -12.393  -4.226  10.840  0.00  0.00    -0.025 C 
ATOM      7  C   UNL     1     -12.952  -6.389  12.039  0.00  0.00    +0.184 C 
ATOM      8  C   UNL     1     -13.040  -5.630  13.350  0.00  0.00    +0.044 C 
ATOM      9  C   UNL     1     -11.618  -6.462   9.775  0.00  0.00    +0.013 C 
ATOM     10  C   UNL     1     -12.630  -3.478  12.188  0.00  0.00    +0.007 C 
ATOM     11  C   UNL     1     -11.265  -3.501  10.069  0.00  0.00    +0.009 C 
ATOM     12  C   UNL     1     -13.564  -4.222  13.154  0.00  0.00    +0.008 C 
ATOM     13  C   UNL     1     -10.549  -5.679   8.965  0.00  0.00    +0.076 C 
ATOM     14  C   UNL     1     -10.895  -4.201   8.767  0.00  0.00    +0.023 C 
ATOM     15  C   UNL     1     -13.855  -6.601  14.184  0.00  0.00    +0.101 C 
ATOM     16  C   UNL     1     -13.704  -4.141  10.016  0.00  0.00    +0.011 C 
ATOM     17  C   UNL     1     -11.140  -7.903  10.012  0.00  0.00    +0.010 C 
ATOM     18  C   UNL     1     -13.242  -7.905  13.708  0.00  0.00    +0.311 C 
ATOM     19  C   UNL     1     -13.696  -6.390  15.677  0.00  0.00    +0.019 C 
ENDROOT
BRANCH  13   4
ATOM      3  O   UNL     1      -8.018  -6.496   7.882  0.00  0.00    -0.270 OA
ATOM      4  N   UNL     1     -10.317  -6.280   7.669  0.00  0.00    -0.308 N 
ATOM     20  C   UNL     1      -9.052  -6.641   7.235  0.00  0.00    +0.244 C 
ATOM     27  H   UNL     1     -11.108  -6.323   7.036  0.00  0.00    +0.149 HD
BRANCH  20  21
ATOM     21  C   UNL     1      -8.979  -7.221   5.870  0.00  0.00    +0.037 A 
ATOM     22  C   UNL     1     -10.071  -7.118   5.008  0.00  0.00    +0.013 A 
ATOM     23  C   UNL     1      -7.816  -7.865   5.448  0.00  0.00    +0.013 A 
ATOM     24  C   UNL     1     -10.002  -7.661   3.726  0.00  0.00    +0.001 A 
ATOM     25  C   UNL     1      -7.746  -8.409   4.165  0.00  0.00    +0.001 A 
ATOM     26  C   UNL     1      -8.839  -8.307   3.304  0.00  0.00    +0.000 A 
ENDBRANCH  20  21
ENDBRANCH  13   4
TORSDOF 2
ENDMDL
MODEL 9
REMARK VINA RESULT:      -6.1      2.134      8.251
REMARK  Name = 28962594
REMARK  5 active torsions:
REMARK  status: ('A' for Active; 'I' for Inactive)
REMARK    1  A    between atoms: N_4  and  C_13
REMARK    2  A    between atoms: C_6  and  C_16
REMARK    3  A    between atoms: C_9  and  C_17
REMARK    4  A    between atoms: C_15  and  C_19
REMARK    5  A    between atoms: C_20  and  C_21
REMARK                            x       y       z     vdW  Elec       q    Type
REMARK                         _______ _______ _______ _____ _____    ______ ____
ROOT
ATOM      1  O   UNL     1      10.154   4.757   5.444  0.00  0.00    -0.461 OA
ATOM      2  O   UNL     1       9.792   3.766   7.489  0.00  0.00    -0.251 OA
ATOM      5  C   UNL     1      10.567   6.518   3.682  0.00  0.00    +0.041 C 
ATOM      6  C   UNL     1      10.029   7.938   3.267  0.00  0.00    -0.025 C 
ATOM      7  C   UNL     1       9.718   5.980   4.848  0.00  0.00    +0.184 C 
ATOM      8  C   UNL     1       9.794   6.932   6.027  0.00  0.00    +0.044 C 
ATOM      9  C   UNL     1      10.715   5.571   2.450  0.00  0.00    +0.013 C 
ATOM     10  C   UNL     1       9.962   8.882   4.505  0.00  0.00    +0.007 C 
ATOM     11  C   UNL     1      11.010   8.545   2.238  0.00  0.00    +0.009 C 
ATOM     12  C   UNL     1       9.201   8.287   5.700  0.00  0.00    +0.008 C 
ATOM     13  C   UNL     1      11.631   6.231   1.383  0.00  0.00    +0.076 C 
ATOM     14  C   UNL     1      11.212   7.657   1.016  0.00  0.00    +0.023 C 
ATOM     15  C   UNL     1       9.138   6.093   7.108  0.00  0.00    +0.101 C 
ATOM     16  C   UNL     1       8.610   7.880   2.640  0.00  0.00    +0.011 C 
ATOM     17  C   UNL     1      11.269   4.189   2.830  0.00  0.00    +0.010 C 
ATOM     18  C   UNL     1       9.719   4.737   6.751  0.00  0.00    +0.311 C 
ATOM     19  C   UNL     1       9.502   6.533   8.513  0.00  0.00    +0.019 C 
ENDROOT
BRANCH  13   4
ATOM      3  O   UNL     1      13.992   5.125   0.179  0.00  0.00    -0.270 OA
ATOM      4  N   UNL     1      11.695   5.439   0.173  0.00  0.00    -0.308 N 
ATOM     20  C   UNL     1      12.888   4.949  -0.330  0.00  0.00    +0.244 C 
ATOM     27  H   UNL     1      10.837   5.351  -0.362  0.00  0.00    +0.149 HD
BRANCH  20  21
ATOM     21  C   UNL     1      12.787   4.178  -1.595  0.00  0.00    +0.037 A 
ATOM     22  C   UNL     1      13.291   4.712  -2.781  0.00  0.00    +0.013 A 
ATOM     23  C   UNL     1      12.192   2.917  -1.597  0.00  0.00    +0.013 A 
ATOM     24  C   UNL     1      13.197   3.987  -3.968  0.00  0.00    +0.001 A 
ATOM     25  C   UNL     1      12.097   2.191  -2.784  0.00  0.00    +0.001 A 
ATOM     26  C   UNL     1      12.601   2.726  -3.970  0.00  0.00    +0.000 A 
ENDBRANCH  20  21
ENDBRANCH  13   4
TORSDOF 2
ENDMDL
MODEL 10
REMARK VINA RESULT:      -5.9     42.862     44.570
REMARK  Name = 28962594
REMARK  5 active torsions:
REMARK  status: ('A' for Active; 'I' for Inactive)
REMARK    1  A    between atoms: N_4  and  C_13
REMARK    2  A    between atoms: C_6  and  C_16
REMARK    3  A    between atoms: C_9  and  C_17
REMARK    4  A    between atoms: C_15  and  C_19
REMARK    5  A    between atoms: C_20  and  C_21
REMARK                            x       y       z     vdW  Elec       q    Type
REMARK                         _______ _______ _______ _____ _____    ______ ____
ROOT
ATOM      1  O   UNL     1      -8.086  -8.500  38.784  0.00  0.00    -0.461 OA
ATOM      2  O   UNL     1      -7.749  -6.486  39.845  0.00  0.00    -0.251 OA
ATOM      5  C   UNL     1      -7.904 -10.947  38.190  0.00  0.00    +0.041 C 
ATOM      6  C   UNL     1      -6.794 -12.042  37.972  0.00  0.00    -0.025 C 
ATOM      7  C   UNL     1      -7.227  -9.586  38.430  0.00  0.00    +0.184 C 
ATOM      8  C   UNL     1      -6.325  -9.662  39.648  0.00  0.00    +0.044 C 
ATOM      9  C   UNL     1      -8.984 -10.985  37.064  0.00  0.00    +0.013 C 
ATOM     10  C   UNL     1      -5.772 -12.028  39.150  0.00  0.00    +0.007 C 
ATOM     11  C   UNL     1      -7.480 -13.427  37.933  0.00  0.00    +0.009 C 
ATOM     12  C   UNL     1      -5.185 -10.640  39.447  0.00  0.00    +0.008 C 
ATOM     13  C   UNL     1      -9.604 -12.406  36.974  0.00  0.00    +0.076 C 
ATOM     14  C   UNL     1      -8.561 -13.522  36.863  0.00  0.00    +0.023 C 
ATOM     15  C   UNL     1      -5.998  -8.195  39.849  0.00  0.00    +0.101 C 
ATOM     16  C   UNL     1      -5.999 -11.834  36.656  0.00  0.00    +0.011 C 
ATOM     17  C   UNL     1     -10.095  -9.944  37.275  0.00  0.00    +0.010 C 
ATOM     18  C   UNL     1      -7.353  -7.595  39.522  0.00  0.00    +0.311 C 
ATOM     19  C   UNL     1      -5.539  -7.869  41.257  0.00  0.00    +0.019 C 
ENDROOT
BRANCH  13   4
ATOM      3  O   UNL     1     -12.424 -12.927  37.120  0.00  0.00    -0.270 OA
ATOM      4  N   UNL     1     -10.522 -12.516  35.860  0.00  0.00    -0.308 N 
ATOM     20  C   UNL     1     -11.872 -12.772  36.034  0.00  0.00    +0.244 C 
ATOM     27  H   UNL     1     -10.116 -12.513  34.930  0.00  0.00    +0.149 HD
BRANCH  20  21
ATOM     21  C   UNL     1     -12.675 -12.882  34.790  0.00  0.00    +0.037 A 
ATOM     22  C   UNL     1     -12.397 -13.890  33.867  0.00  0.00    +0.013 A 
ATOM     23  C   UNL     1     -13.709 -11.979  34.545  0.00  0.00    +0.013 A 
ATOM     24  C   UNL     1     -13.151 -13.995  32.699  0.00  0.00    +0.001 A 
ATOM     25  C   UNL     1     -14.464 -12.082  33.377  0.00  0.00    +0.001 A 
ATOM     26  C   UNL     1     -14.185 -13.091  32.453  0.00  0.00    +0.000 A 
ENDBRANCH  20  21
ENDBRANCH  13   4
TORSDOF 2
ENDMDL
