MODEL 1
REMARK VINA RESULT:      -5.9      0.000      0.000
REMARK  Name = 75536948
REMARK  5 active torsions:
REMARK  status: ('A' for Active; 'I' for Inactive)
REMARK    1  A    between atoms: O_2  and  C_6
REMARK    2  A    between atoms: O_3  and  C_16
REMARK    3  A    between atoms: O_3  and  C_17
REMARK    4  A    between atoms: N_4  and  C_8
REMARK    5  A    between atoms: C_8  and  C_11
REMARK                            x       y       z     vdW  Elec       q    Type
REMARK                         _______ _______ _______ _____ _____    ______ ____
ROOT
ATOM      1  O   UNL     1      11.022   8.909  21.185  0.00  0.00    -0.376 OA
ATOM      4  N   UNL     1      13.641   7.865  19.851  0.00  0.00    -0.293 NA
ATOM      5  C   UNL     1      13.073   6.580  20.272  0.00  0.00    +0.118 C 
ATOM      6  C   UNL     1      11.694   6.595  20.952  0.00  0.00    +0.154 C 
ATOM      7  C   UNL     1      12.659   8.821  19.336  0.00  0.00    +0.113 C 
ATOM      9  C   UNL     1      11.474   7.765  21.902  0.00  0.00    +0.192 C 
ATOM     10  C   UNL     1      12.044   9.612  20.491  0.00  0.00    +0.175 C 
ENDROOT
BRANCH   6   2
ATOM      2  O   UNL     1      11.556   5.387  21.702  0.00  0.00    -0.388 OA
ATOM     18  H   UNL     1      12.395   4.900  21.627  0.00  0.00    +0.210 HD
ENDBRANCH   6   2
BRANCH   4   8
ATOM      8  C   UNL     1      14.728   7.646  18.896  0.00  0.00    +0.119 C 
BRANCH   8  11
ATOM     11  C   UNL     1      16.019   7.293  19.586  0.00  0.00    -0.033 A 
ATOM     12  C   UNL     1      16.456   8.045  20.676  0.00  0.00    +0.008 A 
ATOM     13  C   UNL     1      16.777   6.212  19.135  0.00  0.00    +0.008 A 
ATOM     14  C   UNL     1      17.652   7.718  21.315  0.00  0.00    +0.046 A 
ATOM     15  C   UNL     1      17.973   5.884  19.775  0.00  0.00    +0.046 A 
ATOM     16  C   UNL     1      18.411   6.637  20.865  0.00  0.00    +0.120 A 
BRANCH  16   3
ATOM      3  O   UNL     1      19.577   6.317  21.488  0.00  0.00    -0.495 OA
ATOM     17  C   UNL     1      20.000   7.170  22.551  0.00  0.00    +0.277 C 
ENDBRANCH  16   3
ENDBRANCH   8  11
ENDBRANCH   4   8
TORSDOF 4
ENDMDL
MODEL 2
REMARK VINA RESULT:      -5.8     29.586     31.197
REMARK  Name = 75536948
REMARK  5 active torsions:
REMARK  status: ('A' for Active; 'I' for Inactive)
REMARK    1  A    between atoms: O_2  and  C_6
REMARK    2  A    between atoms: O_3  and  C_16
REMARK    3  A    between atoms: O_3  and  C_17
REMARK    4  A    between atoms: N_4  and  C_8
REMARK    5  A    between atoms: C_8  and  C_11
REMARK                            x       y       z     vdW  Elec       q    Type
REMARK                         _______ _______ _______ _____ _____    ______ ____
ROOT
ATOM      1  O   UNL     1      -2.745   0.360  -8.411  0.00  0.00    -0.376 OA
ATOM      4  N   UNL     1      -0.552   0.148  -6.203  0.00  0.00    -0.293 NA
ATOM      5  C   UNL     1      -1.094  -1.212  -6.116  0.00  0.00    +0.118 C 
ATOM      6  C   UNL     1      -2.209  -1.604  -7.100  0.00  0.00    +0.154 C 
ATOM      7  C   UNL     1      -0.443   0.669  -7.567  0.00  0.00    +0.113 C 
ATOM      9  C   UNL     1      -3.219  -0.498  -7.378  0.00  0.00    +0.192 C 
ATOM     10  C   UNL     1      -1.768   1.303  -7.991  0.00  0.00    +0.175 C 
ENDROOT
BRANCH   6   2
ATOM      2  O   UNL     1      -2.914  -2.717  -6.551  0.00  0.00    -0.388 OA
ATOM     18  H   UNL     1      -3.658  -2.915  -7.147  0.00  0.00    +0.210 HD
ENDBRANCH   6   2
BRANCH   4   8
ATOM      8  C   UNL     1       0.728   0.225  -5.497  0.00  0.00    +0.119 C 
BRANCH   8  11
ATOM     11  C   UNL     1       1.137   1.650  -5.232  0.00  0.00    -0.033 A 
ATOM     12  C   UNL     1       0.313   2.483  -4.475  0.00  0.00    +0.008 A 
ATOM     13  C   UNL     1       2.341   2.136  -5.741  0.00  0.00    +0.008 A 
ATOM     14  C   UNL     1       0.692   3.803  -4.229  0.00  0.00    +0.046 A 
ATOM     15  C   UNL     1       2.721   3.455  -5.494  0.00  0.00    +0.046 A 
ATOM     16  C   UNL     1       1.896   4.289  -4.739  0.00  0.00    +0.120 A 
BRANCH  16   3
ATOM      3  O   UNL     1       2.267   5.576  -4.498  0.00  0.00    -0.495 OA
ATOM     17  C   UNL     1       3.656   5.822  -4.281  0.00  0.00    +0.277 C 
ENDBRANCH  16   3
ENDBRANCH   8  11
ENDBRANCH   4   8
TORSDOF 4
ENDMDL
MODEL 3
REMARK VINA RESULT:      -5.1     25.319     27.522
REMARK  Name = 75536948
REMARK  5 active torsions:
REMARK  status: ('A' for Active; 'I' for Inactive)
REMARK    1  A    between atoms: O_2  and  C_6
REMARK    2  A    between atoms: O_3  and  C_16
REMARK    3  A    between atoms: O_3  and  C_17
REMARK    4  A    between atoms: N_4  and  C_8
REMARK    5  A    between atoms: C_8  and  C_11
REMARK                            x       y       z     vdW  Elec       q    Type
REMARK                         _______ _______ _______ _____ _____    ______ ____
ROOT
ATOM      1  O   UNL     1      -7.583 -13.303  18.076  0.00  0.00    -0.376 OA
ATOM      4  N   UNL     1      -4.990 -11.578  17.892  0.00  0.00    -0.293 NA
ATOM      5  C   UNL     1      -5.690 -10.827  18.939  0.00  0.00    +0.118 C 
ATOM      6  C   UNL     1      -7.047 -11.363  19.422  0.00  0.00    +0.154 C 
ATOM      7  C   UNL     1      -5.127 -13.032  17.997  0.00  0.00    +0.113 C 
ATOM      9  C   UNL     1      -7.922 -11.942  18.317  0.00  0.00    +0.192 C 
ATOM     10  C   UNL     1      -6.408 -13.488  17.297  0.00  0.00    +0.175 C 
ENDROOT
BRANCH   6   2
ATOM      2  O   UNL     1      -7.760 -10.285  20.029  0.00  0.00    -0.388 OA
ATOM     18  H   UNL     1      -7.574 -10.312  20.984  0.00  0.00    +0.210 HD
ENDBRANCH   6   2
BRANCH   4   8
ATOM      8  C   UNL     1      -3.584 -11.176  17.837  0.00  0.00    +0.119 C 
BRANCH   8  11
ATOM     11  C   UNL     1      -3.132 -10.909  16.426  0.00  0.00    -0.033 A 
ATOM     12  C   UNL     1      -4.051 -10.955  15.378  0.00  0.00    +0.008 A 
ATOM     13  C   UNL     1      -1.793 -10.616  16.167  0.00  0.00    +0.008 A 
ATOM     14  C   UNL     1      -3.632 -10.707  14.070  0.00  0.00    +0.046 A 
ATOM     15  C   UNL     1      -1.374 -10.368  14.859  0.00  0.00    +0.046 A 
ATOM     16  C   UNL     1      -2.293 -10.414  13.811  0.00  0.00    +0.120 A 
BRANCH  16   3
ATOM      3  O   UNL     1      -1.884 -10.172  12.536  0.00  0.00    -0.495 OA
ATOM     17  C   UNL     1      -2.835 -10.393  11.496  0.00  0.00    +0.277 C 
ENDBRANCH  16   3
ENDBRANCH   8  11
ENDBRANCH   4   8
TORSDOF 4
ENDMDL
MODEL 4
REMARK VINA RESULT:      -5.1     25.960     27.453
REMARK  Name = 75536948
REMARK  5 active torsions:
REMARK  status: ('A' for Active; 'I' for Inactive)
REMARK    1  A    between atoms: O_2  and  C_6
REMARK    2  A    between atoms: O_3  and  C_16
REMARK    3  A    between atoms: O_3  and  C_17
REMARK    4  A    between atoms: N_4  and  C_8
REMARK    5  A    between atoms: C_8  and  C_11
REMARK                            x       y       z     vdW  Elec       q    Type
REMARK                         _______ _______ _______ _____ _____    ______ ____
ROOT
ATOM      1  O   UNL     1     -11.375  10.770  15.148  0.00  0.00    -0.376 OA
ATOM      4  N   UNL     1     -10.939   9.453  17.942  0.00  0.00    -0.293 NA
ATOM      5  C   UNL     1     -10.488   8.344  17.095  0.00  0.00    +0.118 C 
ATOM      6  C   UNL     1     -10.469   8.565  15.573  0.00  0.00    +0.154 C 
ATOM      7  C   UNL     1     -10.532  10.778  17.471  0.00  0.00    +0.113 C 
ATOM      9  C   UNL     1     -11.645   9.376  15.042  0.00  0.00    +0.192 C 
ATOM     10  C   UNL     1     -11.545  11.305  16.454  0.00  0.00    +0.175 C 
ENDROOT
BRANCH   6   2
ATOM      2  O   UNL     1     -10.494   7.286  14.939  0.00  0.00    -0.388 OA
ATOM     18  H   UNL     1     -10.793   6.638  15.599  0.00  0.00    +0.210 HD
ENDBRANCH   6   2
BRANCH   4   8
ATOM      8  C   UNL     1     -10.528   9.227  19.328  0.00  0.00    +0.119 C 
BRANCH   8  11
ATOM     11  C   UNL     1     -11.569   8.468  20.106  0.00  0.00    -0.033 A 
ATOM     12  C   UNL     1     -11.352   7.132  20.444  0.00  0.00    +0.008 A 
ATOM     13  C   UNL     1     -12.752   9.101  20.490  0.00  0.00    +0.008 A 
ATOM     14  C   UNL     1     -12.317   6.429  21.165  0.00  0.00    +0.046 A 
ATOM     15  C   UNL     1     -13.716   8.398  21.212  0.00  0.00    +0.046 A 
ATOM     16  C   UNL     1     -13.499   7.062  21.549  0.00  0.00    +0.120 A 
BRANCH  16   3
ATOM      3  O   UNL     1     -14.440   6.376  22.253  0.00  0.00    -0.495 OA
ATOM     17  C   UNL     1     -14.259   4.966  22.377  0.00  0.00    +0.277 C 
ENDBRANCH  16   3
ENDBRANCH   8  11
ENDBRANCH   4   8
TORSDOF 4
ENDMDL
MODEL 5
REMARK VINA RESULT:      -5.0     26.083     28.212
REMARK  Name = 75536948
REMARK  5 active torsions:
REMARK  status: ('A' for Active; 'I' for Inactive)
REMARK    1  A    between atoms: O_2  and  C_6
REMARK    2  A    between atoms: O_3  and  C_16
REMARK    3  A    between atoms: O_3  and  C_17
REMARK    4  A    between atoms: N_4  and  C_8
REMARK    5  A    between atoms: C_8  and  C_11
REMARK                            x       y       z     vdW  Elec       q    Type
REMARK                         _______ _______ _______ _____ _____    ______ ____
ROOT
ATOM      1  O   UNL     1     -11.736  10.481  16.737  0.00  0.00    -0.376 OA
ATOM      4  N   UNL     1     -11.579   8.433  19.084  0.00  0.00    -0.293 NA
ATOM      5  C   UNL     1     -10.800   7.694  18.085  0.00  0.00    +0.118 C 
ATOM      6  C   UNL     1     -10.552   8.369  16.727  0.00  0.00    +0.154 C 
ATOM      7  C   UNL     1     -11.331   9.876  19.098  0.00  0.00    +0.113 C 
ATOM      9  C   UNL     1     -11.737   9.164  16.195  0.00  0.00    +0.192 C 
ATOM     10  C   UNL     1     -12.224  10.569  18.069  0.00  0.00    +0.175 C 
ENDROOT
BRANCH   6   2
ATOM      2  O   UNL     1     -10.242   7.351  15.775  0.00  0.00    -0.388 OA
ATOM     18  H   UNL     1     -11.042   6.811  15.653  0.00  0.00    +0.210 HD
ENDBRANCH   6   2
BRANCH   4   8
ATOM      8  C   UNL     1     -11.387   7.843  20.410  0.00  0.00    +0.119 C 
BRANCH   8  11
ATOM     11  C   UNL     1     -12.566   7.006  20.828  0.00  0.00    -0.033 A 
ATOM     12  C   UNL     1     -13.856   7.381  20.454  0.00  0.00    +0.008 A 
ATOM     13  C   UNL     1     -12.368   5.854  21.589  0.00  0.00    +0.008 A 
ATOM     14  C   UNL     1     -14.949   6.605  20.841  0.00  0.00    +0.046 A 
ATOM     15  C   UNL     1     -13.461   5.077  21.976  0.00  0.00    +0.046 A 
ATOM     16  C   UNL     1     -14.751   5.453  21.602  0.00  0.00    +0.120 A 
BRANCH  16   3
ATOM      3  O   UNL     1     -15.816   4.695  21.979  0.00  0.00    -0.495 OA
ATOM     17  C   UNL     1     -16.081   4.597  23.378  0.00  0.00    +0.277 C 
ENDBRANCH  16   3
ENDBRANCH   8  11
ENDBRANCH   4   8
TORSDOF 4
ENDMDL
MODEL 6
REMARK VINA RESULT:      -4.9     26.087     28.758
REMARK  Name = 75536948
REMARK  5 active torsions:
REMARK  status: ('A' for Active; 'I' for Inactive)
REMARK    1  A    between atoms: O_2  and  C_6
REMARK    2  A    between atoms: O_3  and  C_16
REMARK    3  A    between atoms: O_3  and  C_17
REMARK    4  A    between atoms: N_4  and  C_8
REMARK    5  A    between atoms: C_8  and  C_11
REMARK                            x       y       z     vdW  Elec       q    Type
REMARK                         _______ _______ _______ _____ _____    ______ ____
ROOT
ATOM      1  O   UNL     1     -17.211   5.914  22.514  0.00  0.00    -0.376 OA
ATOM      4  N   UNL     1     -14.110   5.923  22.174  0.00  0.00    -0.293 NA
ATOM      5  C   UNL     1     -14.206   5.065  23.359  0.00  0.00    +0.118 C 
ATOM      6  C   UNL     1     -15.610   4.718  23.881  0.00  0.00    +0.154 C 
ATOM      7  C   UNL     1     -15.149   5.686  21.170  0.00  0.00    +0.113 C 
ATOM      9  C   UNL     1     -16.610   5.864  23.804  0.00  0.00    +0.192 C 
ATOM     10  C   UNL     1     -16.397   6.502  21.508  0.00  0.00    +0.175 C 
ENDROOT
BRANCH   6   2
ATOM      2  O   UNL     1     -15.490   4.329  25.250  0.00  0.00    -0.388 OA
ATOM     18  H   UNL     1     -14.628   4.646  25.570  0.00  0.00    +0.210 HD
ENDBRANCH   6   2
BRANCH   4   8
ATOM      8  C   UNL     1     -12.771   5.828  21.591  0.00  0.00    +0.119 C 
BRANCH   8  11
ATOM     11  C   UNL     1     -12.351   7.118  20.937  0.00  0.00    -0.033 A 
ATOM     12  C   UNL     1     -12.728   8.339  21.496  0.00  0.00    +0.008 A 
ATOM     13  C   UNL     1     -11.582   7.092  19.773  0.00  0.00    +0.008 A 
ATOM     14  C   UNL     1     -12.339   9.534  20.892  0.00  0.00    +0.046 A 
ATOM     15  C   UNL     1     -11.192   8.287  19.169  0.00  0.00    +0.046 A 
ATOM     16  C   UNL     1     -11.570   9.508  19.728  0.00  0.00    +0.120 A 
BRANCH  16   3
ATOM      3  O   UNL     1     -11.189  10.673  19.138  0.00  0.00    -0.495 OA
ATOM     17  C   UNL     1     -10.171  10.594  18.141  0.00  0.00    +0.277 C 
ENDBRANCH  16   3
ENDBRANCH   8  11
ENDBRANCH   4   8
TORSDOF 4
ENDMDL
MODEL 7
REMARK VINA RESULT:      -4.9     26.562     28.277
REMARK  Name = 75536948
REMARK  5 active torsions:
REMARK  status: ('A' for Active; 'I' for Inactive)
REMARK    1  A    between atoms: O_2  and  C_6
REMARK    2  A    between atoms: O_3  and  C_16
REMARK    3  A    between atoms: O_3  and  C_17
REMARK    4  A    between atoms: N_4  and  C_8
REMARK    5  A    between atoms: C_8  and  C_11
REMARK                            x       y       z     vdW  Elec       q    Type
REMARK                         _______ _______ _______ _____ _____    ______ ____
ROOT
ATOM      1  O   UNL     1      -3.721 -14.588  13.536  0.00  0.00    -0.376 OA
ATOM      4  N   UNL     1      -3.192 -12.048  15.268  0.00  0.00    -0.293 NA
ATOM      5  C   UNL     1      -1.909 -12.111  14.559  0.00  0.00    +0.118 C 
ATOM      6  C   UNL     1      -1.724 -13.219  13.509  0.00  0.00    +0.154 C 
ATOM      7  C   UNL     1      -4.355 -12.377  14.442  0.00  0.00    +0.113 C 
ATOM      9  C   UNL     1      -2.343 -14.557  13.892  0.00  0.00    +0.192 C 
ATOM     10  C   UNL     1      -4.576 -13.891  14.432  0.00  0.00    +0.175 C 
ENDROOT
BRANCH   6   2
ATOM      2  O   UNL     1      -0.323 -13.419  13.318  0.00  0.00    -0.388 OA
ATOM     18  H   UNL     1      -0.029 -14.071  13.977  0.00  0.00    +0.210 HD
ENDBRANCH   6   2
BRANCH   4   8
ATOM      8  C   UNL     1      -3.346 -10.744  15.914  0.00  0.00    +0.119 C 
BRANCH   8  11
ATOM     11  C   UNL     1      -4.413 -10.766  16.976  0.00  0.00    -0.033 A 
ATOM     12  C   UNL     1      -4.226 -11.517  18.137  0.00  0.00    +0.008 A 
ATOM     13  C   UNL     1      -5.588 -10.035  16.799  0.00  0.00    +0.008 A 
ATOM     14  C   UNL     1      -5.214 -11.538  19.121  0.00  0.00    +0.046 A 
ATOM     15  C   UNL     1      -6.576 -10.055  17.785  0.00  0.00    +0.046 A 
ATOM     16  C   UNL     1      -6.389 -10.807  18.945  0.00  0.00    +0.120 A 
BRANCH  16   3
ATOM      3  O   UNL     1      -7.353 -10.826  19.905  0.00  0.00    -0.495 OA
ATOM     17  C   UNL     1      -8.664 -11.220  19.502  0.00  0.00    +0.277 C 
ENDBRANCH  16   3
ENDBRANCH   8  11
ENDBRANCH   4   8
TORSDOF 4
ENDMDL
MODEL 8
REMARK VINA RESULT:      -4.9     25.353     27.486
REMARK  Name = 75536948
REMARK  5 active torsions:
REMARK  status: ('A' for Active; 'I' for Inactive)
REMARK    1  A    between atoms: O_2  and  C_6
REMARK    2  A    between atoms: O_3  and  C_16
REMARK    3  A    between atoms: O_3  and  C_17
REMARK    4  A    between atoms: N_4  and  C_8
REMARK    5  A    between atoms: C_8  and  C_11
REMARK                            x       y       z     vdW  Elec       q    Type
REMARK                         _______ _______ _______ _____ _____    ______ ____
ROOT
ATOM      1  O   UNL     1      -3.975 -11.798  16.189  0.00  0.00    -0.376 OA
ATOM      4  N   UNL     1      -2.948 -10.833  13.406  0.00  0.00    -0.293 NA
ATOM      5  C   UNL     1      -1.727 -10.613  14.188  0.00  0.00    +0.118 C 
ATOM      6  C   UNL     1      -1.742 -11.019  15.671  0.00  0.00    +0.154 C 
ATOM      7  C   UNL     1      -3.674 -12.057  13.749  0.00  0.00    +0.113 C 
ATOM      9  C   UNL     1      -3.055 -10.730  16.387  0.00  0.00    +0.192 C 
ATOM     10  C   UNL     1      -4.619 -11.792  14.922  0.00  0.00    +0.175 C 
ENDROOT
BRANCH   6   2
ATOM      2  O   UNL     1      -0.707 -10.297  16.339  0.00  0.00    -0.388 OA
ATOM     18  H   UNL     1      -0.002 -10.128  15.690  0.00  0.00    +0.210 HD
ENDBRANCH   6   2
BRANCH   4   8
ATOM      8  C   UNL     1      -2.648 -10.772  11.975  0.00  0.00    +0.119 C 
BRANCH   8  11
ATOM     11  C   UNL     1      -3.660  -9.948  11.224  0.00  0.00    -0.033 A 
ATOM     12  C   UNL     1      -4.851  -9.570  11.843  0.00  0.00    +0.008 A 
ATOM     13  C   UNL     1      -3.406  -9.561   9.908  0.00  0.00    +0.008 A 
ATOM     14  C   UNL     1      -5.789  -8.807  11.148  0.00  0.00    +0.046 A 
ATOM     15  C   UNL     1      -4.343  -8.797   9.212  0.00  0.00    +0.046 A 
ATOM     16  C   UNL     1      -5.534  -8.420   9.832  0.00  0.00    +0.120 A 
BRANCH  16   3
ATOM      3  O   UNL     1      -6.448  -7.674   9.153  0.00  0.00    -0.495 OA
ATOM     17  C   UNL     1      -7.718  -8.275   8.901  0.00  0.00    +0.277 C 
ENDBRANCH  16   3
ENDBRANCH   8  11
ENDBRANCH   4   8
TORSDOF 4
ENDMDL
MODEL 9
REMARK VINA RESULT:      -4.7     26.359     28.696
REMARK  Name = 75536948
REMARK  5 active torsions:
REMARK  status: ('A' for Active; 'I' for Inactive)
REMARK    1  A    between atoms: O_2  and  C_6
REMARK    2  A    between atoms: O_3  and  C_16
REMARK    3  A    between atoms: O_3  and  C_17
REMARK    4  A    between atoms: N_4  and  C_8
REMARK    5  A    between atoms: C_8  and  C_11
REMARK                            x       y       z     vdW  Elec       q    Type
REMARK                         _______ _______ _______ _____ _____    ______ ____
ROOT
ATOM      1  O   UNL     1     -11.358  -9.001  14.751  0.00  0.00    -0.376 OA
ATOM      4  N   UNL     1      -9.224  -9.357  16.999  0.00  0.00    -0.293 NA
ATOM      5  C   UNL     1      -9.753  -8.048  17.393  0.00  0.00    +0.118 C 
ATOM      6  C   UNL     1     -10.917  -7.467  16.572  0.00  0.00    +0.154 C 
ATOM      7  C   UNL     1     -10.239 -10.303  16.530  0.00  0.00    +0.113 C 
ATOM      9  C   UNL     1     -10.817  -7.724  15.074  0.00  0.00    +0.192 C 
ATOM     10  C   UNL     1     -10.495 -10.095  15.037  0.00  0.00    +0.175 C 
ENDROOT
BRANCH   6   2
ATOM      2  O   UNL     1     -10.942  -6.054  16.776  0.00  0.00    -0.388 OA
ATOM     18  H   UNL     1     -11.432  -5.660  16.034  0.00  0.00    +0.210 HD
ENDBRANCH   6   2
BRANCH   4   8
ATOM      8  C   UNL     1      -8.425  -9.925  18.085  0.00  0.00    +0.119 C 
BRANCH   8  11
ATOM     11  C   UNL     1      -6.991 -10.135  17.677  0.00  0.00    -0.033 A 
ATOM     12  C   UNL     1      -6.108 -10.785  18.539  0.00  0.00    +0.008 A 
ATOM     13  C   UNL     1      -6.546  -9.680  16.436  0.00  0.00    +0.008 A 
ATOM     14  C   UNL     1      -4.779 -10.980  18.161  0.00  0.00    +0.046 A 
ATOM     15  C   UNL     1      -5.218  -9.875  16.057  0.00  0.00    +0.046 A 
ATOM     16  C   UNL     1      -4.334 -10.525  16.919  0.00  0.00    +0.120 A 
BRANCH  16   3
ATOM      3  O   UNL     1      -3.039 -10.715  16.549  0.00  0.00    -0.495 OA
ATOM     17  C   UNL     1      -2.774 -10.837  15.152  0.00  0.00    +0.277 C 
ENDBRANCH  16   3
ENDBRANCH   8  11
ENDBRANCH   4   8
TORSDOF 4
ENDMDL
MODEL 10
REMARK VINA RESULT:      -4.6      4.483      6.981
REMARK  Name = 75536948
REMARK  5 active torsions:
REMARK  status: ('A' for Active; 'I' for Inactive)
REMARK    1  A    between atoms: O_2  and  C_6
REMARK    2  A    between atoms: O_3  and  C_16
REMARK    3  A    between atoms: O_3  and  C_17
REMARK    4  A    between atoms: N_4  and  C_8
REMARK    5  A    between atoms: C_8  and  C_11
REMARK                            x       y       z     vdW  Elec       q    Type
REMARK                         _______ _______ _______ _____ _____    ______ ____
ROOT
ATOM      1  O   UNL     1      14.438  13.975  23.843  0.00  0.00    -0.376 OA
ATOM      4  N   UNL     1      12.146  11.865  23.685  0.00  0.00    -0.293 NA
ATOM      5  C   UNL     1      12.306  11.920  25.142  0.00  0.00    +0.118 C 
ATOM      6  C   UNL     1      13.331  12.913  25.715  0.00  0.00    +0.154 C 
ATOM      7  C   UNL     1      12.255  13.163  23.017  0.00  0.00    +0.113 C 
ATOM      9  C   UNL     1      14.610  13.035  24.898  0.00  0.00    +0.192 C 
ATOM     10  C   UNL     1      13.723  13.476  22.721  0.00  0.00    +0.175 C 
ENDROOT
BRANCH   6   2
ATOM      2  O   UNL     1      13.686  12.476  27.027  0.00  0.00    -0.388 OA
ATOM     18  H   UNL     1      12.939  11.959  27.376  0.00  0.00    +0.210 HD
ENDBRANCH   6   2
BRANCH   4   8
ATOM      8  C   UNL     1      10.895  11.189  23.341  0.00  0.00    +0.119 C 
BRANCH   8  11
ATOM     11  C   UNL     1      11.112  10.081  22.345  0.00  0.00    -0.033 A 
ATOM     12  C   UNL     1      11.712  10.355  21.116  0.00  0.00    +0.008 A 
ATOM     13  C   UNL     1      10.714   8.780  22.652  0.00  0.00    +0.008 A 
ATOM     14  C   UNL     1      11.914   9.329  20.193  0.00  0.00    +0.046 A 
ATOM     15  C   UNL     1      10.916   7.753  21.729  0.00  0.00    +0.046 A 
ATOM     16  C   UNL     1      11.516   8.027  20.500  0.00  0.00    +0.120 A 
BRANCH  16   3
ATOM      3  O   UNL     1      11.713   7.025  19.600  0.00  0.00    -0.495 OA
ATOM     17  C   UNL     1      12.722   7.229  18.612  0.00  0.00    +0.277 C 
ENDBRANCH  16   3
ENDBRANCH   8  11
ENDBRANCH   4   8
TORSDOF 4
ENDMDL
