MODEL 1
REMARK VINA RESULT:      -6.9      0.000      0.000
REMARK  Name = 71693227
REMARK  5 active torsions:
REMARK  status: ('A' for Active; 'I' for Inactive)
REMARK    1  A    between atoms: O_2  and  C_10
REMARK    2  A    between atoms: N_6  and  C_17
REMARK    3  A    between atoms: CA_7  and  C_10
REMARK    4  A    between atoms: C_8  and  C_9
REMARK    5  A    between atoms: C_18  and  C_19
REMARK                            x       y       z     vdW  Elec       q    Type
REMARK                         _______ _______ _______ _____ _____    ______ ____
ROOT
ATOM      1  O   UNL     1      14.607   7.713  17.682  0.00  0.00    -0.361 OA
ATOM      3  O   UNL     1      11.068   7.931  17.130  0.00  0.00    -0.273 OA
ATOM      5  N   UNL     1      12.225   7.233  18.986  0.00  0.00    -0.306 N 
ATOM      7  CA  UNL     1      13.487   6.886  19.634  0.00  0.00    +0.131 C 
ATOM      8  C   UNL     1      14.620   7.783  19.114  0.00  0.00    +0.171 C 
ATOM     11  C   UNL     1      13.438   8.300  17.147  0.00  0.00    +0.256 C 
ATOM     12  C   UNL     1      12.135   7.788  17.729  0.00  0.00    +0.239 C 
ATOM     20  H   UNL     1      11.366   6.883  19.401  0.00  0.00    +0.149 HD
ENDROOT
BRANCH   8   9
ATOM      9  C   UNL     1      15.995   7.358  19.581  0.00  0.00    -0.017 A 
ATOM     13  C   UNL     1      16.689   8.139  20.504  0.00  0.00    +0.008 A 
ATOM     14  C   UNL     1      16.569   6.187  19.086  0.00  0.00    +0.008 A 
ATOM     15  C   UNL     1      17.957   7.748  20.935  0.00  0.00    +0.023 A 
ATOM     16  C   UNL     1      17.837   5.796  19.517  0.00  0.00    +0.023 A 
ATOM     17  C   UNL     1      18.532   6.577  20.440  0.00  0.00    +0.033 A 
BRANCH  17   6
ATOM      4  O   UNL     1      19.676   6.367  23.218  0.00  0.00    -0.276 OA
ATOM      6  N   UNL     1      19.800   6.186  20.870  0.00  0.00    -0.286 N 
ATOM     18  C   UNL     1      20.283   6.108  22.183  0.00  0.00    +0.214 C 
ATOM     19  C   UNL     1      21.716   5.639  22.225  0.00  0.00    +0.109 C 
ATOM     22  H   UNL     1      20.449   5.927  20.129  0.00  0.00    +0.155 HD
ENDBRANCH  17   6
ENDBRANCH   8   9
BRANCH   7  10
ATOM     10  C   UNL     1      13.325   6.966  21.151  0.00  0.00    +0.181 C 
BRANCH  10   2
ATOM      2  O   UNL     1      12.426   5.953  21.562  0.00  0.00    -0.393 OA
ATOM     21  H   UNL     1      11.577   6.384  21.755  0.00  0.00    +0.209 HD
ENDBRANCH  10   2
ENDBRANCH   7  10
TORSDOF 4
ENDMDL
MODEL 2
REMARK VINA RESULT:      -6.1      3.453      6.520
REMARK  Name = 71693227
REMARK  5 active torsions:
REMARK  status: ('A' for Active; 'I' for Inactive)
REMARK    1  A    between atoms: O_2  and  C_10
REMARK    2  A    between atoms: N_6  and  C_17
REMARK    3  A    between atoms: CA_7  and  C_10
REMARK    4  A    between atoms: C_8  and  C_9
REMARK    5  A    between atoms: C_18  and  C_19
REMARK                            x       y       z     vdW  Elec       q    Type
REMARK                         _______ _______ _______ _____ _____    ______ ____
ROOT
ATOM      1  O   UNL     1      11.592   8.210  19.480  0.00  0.00    -0.361 OA
ATOM      3  O   UNL     1      10.952   5.686  21.947  0.00  0.00    -0.273 OA
ATOM      5  N   UNL     1      12.880   6.158  20.796  0.00  0.00    -0.306 N 
ATOM      7  CA  UNL     1      13.580   6.896  19.748  0.00  0.00    +0.131 C 
ATOM      8  C   UNL     1      13.014   8.319  19.627  0.00  0.00    +0.171 C 
ATOM     11  C   UNL     1      10.988   7.704  20.653  0.00  0.00    +0.256 C 
ATOM     12  C   UNL     1      11.582   6.411  21.178  0.00  0.00    +0.239 C 
ATOM     20  H   UNL     1      13.303   5.299  21.135  0.00  0.00    +0.149 HD
ENDROOT
BRANCH   8   9
ATOM      9  C   UNL     1      13.542   9.085  18.434  0.00  0.00    -0.017 A 
ATOM     13  C   UNL     1      13.962  10.406  18.584  0.00  0.00    +0.008 A 
ATOM     14  C   UNL     1      13.606   8.470  17.184  0.00  0.00    +0.008 A 
ATOM     15  C   UNL     1      14.448  11.112  17.484  0.00  0.00    +0.023 A 
ATOM     16  C   UNL     1      14.092   9.176  16.083  0.00  0.00    +0.023 A 
ATOM     17  C   UNL     1      14.512  10.498  16.233  0.00  0.00    +0.033 A 
BRANCH  17   6
ATOM      4  O   UNL     1      13.066  11.646  13.854  0.00  0.00    -0.276 OA
ATOM      6  N   UNL     1      14.998  11.204  15.132  0.00  0.00    -0.286 N 
ATOM     18  C   UNL     1      14.276  11.717  14.046  0.00  0.00    +0.214 C 
ATOM     19  C   UNL     1      15.174  12.421  13.060  0.00  0.00    +0.109 C 
ATOM     22  H   UNL     1      16.004  11.361  15.126  0.00  0.00    +0.155 HD
ENDBRANCH  17   6
ENDBRANCH   8   9
BRANCH   7  10
ATOM     10  C   UNL     1      15.082   6.885  20.026  0.00  0.00    +0.181 C 
BRANCH  10   2
ATOM      2  O   UNL     1      15.315   6.139  21.207  0.00  0.00    -0.393 OA
ATOM     21  H   UNL     1      15.599   6.768  21.891  0.00  0.00    +0.209 HD
ENDBRANCH  10   2
ENDBRANCH   7  10
TORSDOF 4
ENDMDL
MODEL 3
REMARK VINA RESULT:      -5.9     26.336     28.377
REMARK  Name = 71693227
REMARK  5 active torsions:
REMARK  status: ('A' for Active; 'I' for Inactive)
REMARK    1  A    between atoms: O_2  and  C_10
REMARK    2  A    between atoms: N_6  and  C_17
REMARK    3  A    between atoms: CA_7  and  C_10
REMARK    4  A    between atoms: C_8  and  C_9
REMARK    5  A    between atoms: C_18  and  C_19
REMARK                            x       y       z     vdW  Elec       q    Type
REMARK                         _______ _______ _______ _____ _____    ______ ____
ROOT
ATOM      1  O   UNL     1     -10.953  10.956  19.071  0.00  0.00    -0.361 OA
ATOM      3  O   UNL     1      -8.995  12.727  16.642  0.00  0.00    -0.273 OA
ATOM      5  N   UNL     1      -9.665  10.531  16.671  0.00  0.00    -0.306 N 
ATOM      7  CA  UNL     1     -10.294   9.409  17.362  0.00  0.00    +0.131 C 
ATOM      8  C   UNL     1     -11.455   9.903  18.238  0.00  0.00    +0.171 C 
ATOM     11  C   UNL     1     -10.597  12.092  18.311  0.00  0.00    +0.256 C 
ATOM     12  C   UNL     1      -9.658  11.823  17.151  0.00  0.00    +0.239 C 
ATOM     20  H   UNL     1      -9.047  10.323  15.892  0.00  0.00    +0.149 HD
ENDROOT
BRANCH   8   9
ATOM      9  C   UNL     1     -12.031   8.836  19.143  0.00  0.00    -0.017 A 
ATOM     13  C   UNL     1     -13.395   8.552  19.104  0.00  0.00    +0.008 A 
ATOM     14  C   UNL     1     -11.198   8.140  20.018  0.00  0.00    +0.008 A 
ATOM     15  C   UNL     1     -13.927   7.568  19.938  0.00  0.00    +0.023 A 
ATOM     16  C   UNL     1     -11.729   7.157  20.853  0.00  0.00    +0.023 A 
ATOM     17  C   UNL     1     -13.094   6.871  20.814  0.00  0.00    +0.033 A 
BRANCH  17   6
ATOM      4  O   UNL     1     -14.928   7.108  23.191  0.00  0.00    -0.276 OA
ATOM      6  N   UNL     1     -13.626   5.889  21.649  0.00  0.00    -0.286 N 
ATOM     18  C   UNL     1     -14.478   6.055  22.749  0.00  0.00    +0.214 C 
ATOM     19  C   UNL     1     -14.828   4.736  23.391  0.00  0.00    +0.109 C 
ATOM     22  H   UNL     1     -13.354   4.933  21.423  0.00  0.00    +0.155 HD
ENDBRANCH  17   6
ENDBRANCH   8   9
BRANCH   7  10
ATOM     10  C   UNL     1     -10.734   8.359  16.344  0.00  0.00    +0.181 C 
BRANCH  10   2
ATOM      2  O   UNL     1     -10.117   7.128  16.674  0.00  0.00    -0.393 OA
ATOM     21  H   UNL     1     -10.217   7.005  17.632  0.00  0.00    +0.209 HD
ENDBRANCH  10   2
ENDBRANCH   7  10
TORSDOF 4
ENDMDL
MODEL 4
REMARK VINA RESULT:      -5.8      2.812      6.970
REMARK  Name = 71693227
REMARK  5 active torsions:
REMARK  status: ('A' for Active; 'I' for Inactive)
REMARK    1  A    between atoms: O_2  and  C_10
REMARK    2  A    between atoms: N_6  and  C_17
REMARK    3  A    between atoms: CA_7  and  C_10
REMARK    4  A    between atoms: C_8  and  C_9
REMARK    5  A    between atoms: C_18  and  C_19
REMARK                            x       y       z     vdW  Elec       q    Type
REMARK                         _______ _______ _______ _____ _____    ______ ____
ROOT
ATOM      1  O   UNL     1      19.045   7.541  21.849  0.00  0.00    -0.361 OA
ATOM      3  O   UNL     1      21.626   5.447  20.497  0.00  0.00    -0.273 OA
ATOM      5  N   UNL     1      19.398   5.565  19.959  0.00  0.00    -0.306 N 
ATOM      7  CA  UNL     1      18.058   6.083  20.222  0.00  0.00    +0.131 C 
ATOM      8  C   UNL     1      18.135   7.526  20.742  0.00  0.00    +0.171 C 
ATOM     11  C   UNL     1      20.366   7.260  21.435  0.00  0.00    +0.256 C 
ATOM     12  C   UNL     1      20.530   5.996  20.613  0.00  0.00    +0.239 C 
ATOM     20  H   UNL     1      19.479   4.721  19.399  0.00  0.00    +0.149 HD
ENDROOT
BRANCH   8   9
ATOM      9  C   UNL     1      16.809   8.068  21.231  0.00  0.00    -0.017 A 
ATOM     13  C   UNL     1      15.803   7.189  21.631  0.00  0.00    +0.008 A 
ATOM     14  C   UNL     1      16.593   9.445  21.279  0.00  0.00    +0.008 A 
ATOM     15  C   UNL     1      14.580   7.688  22.081  0.00  0.00    +0.023 A 
ATOM     16  C   UNL     1      15.371   9.943  21.729  0.00  0.00    +0.023 A 
ATOM     17  C   UNL     1      14.363   9.065  22.129  0.00  0.00    +0.033 A 
BRANCH  17   6
ATOM      4  O   UNL     1      11.910   9.899  20.596  0.00  0.00    -0.276 OA
ATOM      6  N   UNL     1      13.141   9.563  22.579  0.00  0.00    -0.286 N 
ATOM     18  C   UNL     1      12.027   9.940  21.817  0.00  0.00    +0.214 C 
ATOM     19  C   UNL     1      10.895  10.431  22.685  0.00  0.00    +0.109 C 
ATOM     22  H   UNL     1      13.057   9.663  23.589  0.00  0.00    +0.155 HD
ENDBRANCH  17   6
ENDBRANCH   8   9
BRANCH   7  10
ATOM     10  C   UNL     1      17.202   5.958  18.963  0.00  0.00    +0.181 C 
BRANCH  10   2
ATOM      2  O   UNL     1      17.918   5.201  18.005  0.00  0.00    -0.393 OA
ATOM     21  H   UNL     1      18.436   5.827  17.473  0.00  0.00    +0.209 HD
ENDBRANCH  10   2
ENDBRANCH   7  10
TORSDOF 4
ENDMDL
MODEL 5
REMARK VINA RESULT:      -5.7     26.267     29.308
REMARK  Name = 71693227
REMARK  5 active torsions:
REMARK  status: ('A' for Active; 'I' for Inactive)
REMARK    1  A    between atoms: O_2  and  C_10
REMARK    2  A    between atoms: N_6  and  C_17
REMARK    3  A    between atoms: CA_7  and  C_10
REMARK    4  A    between atoms: C_8  and  C_9
REMARK    5  A    between atoms: C_18  and  C_19
REMARK                            x       y       z     vdW  Elec       q    Type
REMARK                         _______ _______ _______ _____ _____    ______ ____
ROOT
ATOM      1  O   UNL     1      -4.680 -10.459  15.390  0.00  0.00    -0.361 OA
ATOM      3  O   UNL     1      -1.129 -10.964  15.291  0.00  0.00    -0.273 OA
ATOM      5  N   UNL     1      -2.606 -11.251  17.025  0.00  0.00    -0.306 N 
ATOM      7  CA  UNL     1      -3.950 -11.113  17.578  0.00  0.00    +0.131 C 
ATOM      8  C   UNL     1      -5.005 -11.328  16.482  0.00  0.00    +0.171 C 
ATOM     11  C   UNL     1      -3.468 -10.837  14.771  0.00  0.00    +0.256 C 
ATOM     12  C   UNL     1      -2.287 -10.996  15.709  0.00  0.00    +0.239 C 
ATOM     20  H   UNL     1      -1.834 -11.364  17.675  0.00  0.00    +0.149 HD
ENDROOT
BRANCH   8   9
ATOM      9  C   UNL     1      -6.415 -11.003  16.924  0.00  0.00    -0.017 A 
ATOM     13  C   UNL     1      -6.794  -9.676  17.122  0.00  0.00    +0.008 A 
ATOM     14  C   UNL     1      -7.334 -12.031  17.134  0.00  0.00    +0.008 A 
ATOM     15  C   UNL     1      -8.094  -9.376  17.529  0.00  0.00    +0.023 A 
ATOM     16  C   UNL     1      -8.634 -11.730  17.542  0.00  0.00    +0.023 A 
ATOM     17  C   UNL     1      -9.014 -10.403  17.740  0.00  0.00    +0.033 A 
BRANCH  17   6
ATOM      4  O   UNL     1     -10.250 -10.402  20.486  0.00  0.00    -0.276 OA
ATOM      6  N   UNL     1     -10.314 -10.103  18.148  0.00  0.00    -0.286 N 
ATOM     18  C   UNL     1     -10.840 -10.120  19.447  0.00  0.00    +0.214 C 
ATOM     19  C   UNL     1     -12.296  -9.731  19.467  0.00  0.00    +0.109 C 
ATOM     22  H   UNL     1     -10.954  -9.840  17.401  0.00  0.00    +0.155 HD
ENDBRANCH  17   6
ENDBRANCH   8   9
BRANCH   7  10
ATOM     10  C   UNL     1      -4.124 -12.072  18.755  0.00  0.00    +0.181 C 
BRANCH  10   2
ATOM      2  O   UNL     1      -2.913 -12.107  19.489  0.00  0.00    -0.393 OA
ATOM     21  H   UNL     1      -2.284 -12.644  18.978  0.00  0.00    +0.209 HD
ENDBRANCH  10   2
ENDBRANCH   7  10
TORSDOF 4
ENDMDL
MODEL 6
REMARK VINA RESULT:      -5.7     26.468     28.581
REMARK  Name = 71693227
REMARK  5 active torsions:
REMARK  status: ('A' for Active; 'I' for Inactive)
REMARK    1  A    between atoms: O_2  and  C_10
REMARK    2  A    between atoms: N_6  and  C_17
REMARK    3  A    between atoms: CA_7  and  C_10
REMARK    4  A    between atoms: C_8  and  C_9
REMARK    5  A    between atoms: C_18  and  C_19
REMARK                            x       y       z     vdW  Elec       q    Type
REMARK                         _______ _______ _______ _____ _____    ______ ____
ROOT
ATOM      1  O   UNL     1     -11.375  10.698  19.378  0.00  0.00    -0.361 OA
ATOM      3  O   UNL     1      -9.267  12.515  17.114  0.00  0.00    -0.273 OA
ATOM      5  N   UNL     1      -9.710  10.265  17.223  0.00  0.00    -0.306 N 
ATOM      7  CA  UNL     1     -10.318   9.127  17.906  0.00  0.00    +0.131 C 
ATOM      8  C   UNL     1     -11.640   9.544  18.569  0.00  0.00    +0.171 C 
ATOM     11  C   UNL     1     -11.026  11.815  18.587  0.00  0.00    +0.256 C 
ATOM     12  C   UNL     1      -9.904  11.577  17.594  0.00  0.00    +0.239 C 
ATOM     20  H   UNL     1      -8.966  10.078  16.557  0.00  0.00    +0.149 HD
ENDROOT
BRANCH   8   9
ATOM      9  C   UNL     1     -12.232   8.480  19.466  0.00  0.00    -0.017 A 
ATOM     13  C   UNL     1     -11.401   7.723  20.291  0.00  0.00    +0.008 A 
ATOM     14  C   UNL     1     -13.609   8.256  19.467  0.00  0.00    +0.008 A 
ATOM     15  C   UNL     1     -11.947   6.742  21.119  0.00  0.00    +0.023 A 
ATOM     16  C   UNL     1     -14.154   7.274  20.295  0.00  0.00    +0.023 A 
ATOM     17  C   UNL     1     -13.323   6.516  21.120  0.00  0.00    +0.033 A 
BRANCH  17   6
ATOM      4  O   UNL     1     -15.292   6.743  23.388  0.00  0.00    -0.276 OA
ATOM      6  N   UNL     1     -13.869   5.534  21.947  0.00  0.00    -0.286 N 
ATOM     18  C   UNL     1     -14.785   5.696  22.995  0.00  0.00    +0.214 C 
ATOM     19  C   UNL     1     -15.129   4.380  23.646  0.00  0.00    +0.109 C 
ATOM     22  H   UNL     1     -13.556   4.584  21.758  0.00  0.00    +0.155 HD
ENDBRANCH  17   6
ENDBRANCH   8   9
BRANCH   7  10
ATOM     10  C   UNL     1     -10.495   7.971  16.923  0.00  0.00    +0.181 C 
BRANCH  10   2
ATOM      2  O   UNL     1     -10.127   8.419  15.631  0.00  0.00    -0.393 OA
ATOM     21  H   UNL     1      -9.184   8.214  15.514  0.00  0.00    +0.209 HD
ENDBRANCH  10   2
ENDBRANCH   7  10
TORSDOF 4
ENDMDL
MODEL 7
REMARK VINA RESULT:      -5.7     32.774     34.348
REMARK  Name = 71693227
REMARK  5 active torsions:
REMARK  status: ('A' for Active; 'I' for Inactive)
REMARK    1  A    between atoms: O_2  and  C_10
REMARK    2  A    between atoms: N_6  and  C_17
REMARK    3  A    between atoms: CA_7  and  C_10
REMARK    4  A    between atoms: C_8  and  C_9
REMARK    5  A    between atoms: C_18  and  C_19
REMARK                            x       y       z     vdW  Elec       q    Type
REMARK                         _______ _______ _______ _____ _____    ______ ____
ROOT
ATOM      1  O   UNL     1     -16.269   2.836  31.068  0.00  0.00    -0.361 OA
ATOM      3  O   UNL     1     -14.630   2.114  34.176  0.00  0.00    -0.273 OA
ATOM      5  N   UNL     1     -14.551   0.988  32.177  0.00  0.00    -0.306 N 
ATOM      7  CA  UNL     1     -15.031   0.799  30.811  0.00  0.00    +0.131 C 
ATOM      8  C   UNL     1     -15.380   2.154  30.175  0.00  0.00    +0.171 C 
ATOM     11  C   UNL     1     -15.623   3.186  32.274  0.00  0.00    +0.256 C 
ATOM     12  C   UNL     1     -14.913   2.047  32.980  0.00  0.00    +0.239 C 
ATOM     20  H   UNL     1     -14.072   0.211  32.624  0.00  0.00    +0.149 HD
ENDROOT
BRANCH   8   9
ATOM      9  C   UNL     1     -16.074   2.035  28.836  0.00  0.00    -0.017 A 
ATOM     13  C   UNL     1     -17.011   1.024  28.624  0.00  0.00    +0.008 A 
ATOM     14  C   UNL     1     -15.777   2.936  27.814  0.00  0.00    +0.008 A 
ATOM     15  C   UNL     1     -17.651   0.914  27.390  0.00  0.00    +0.023 A 
ATOM     16  C   UNL     1     -16.417   2.826  26.580  0.00  0.00    +0.023 A 
ATOM     17  C   UNL     1     -17.354   1.814  26.367  0.00  0.00    +0.033 A 
BRANCH  17   6
ATOM      4  O   UNL     1     -17.324  -0.414  24.341  0.00  0.00    -0.276 OA
ATOM      6  N   UNL     1     -17.994   1.704  25.132  0.00  0.00    -0.286 N 
ATOM     18  C   UNL     1     -17.944   0.639  24.223  0.00  0.00    +0.214 C 
ATOM     19  C   UNL     1     -18.780   0.909  22.998  0.00  0.00    +0.109 C 
ATOM     22  H   UNL     1     -18.567   2.504  24.867  0.00  0.00    +0.155 HD
ENDBRANCH  17   6
ENDBRANCH   8   9
BRANCH   7  10
ATOM     10  C   UNL     1     -13.993   0.023  30.003  0.00  0.00    +0.181 C 
BRANCH  10   2
ATOM      2  O   UNL     1     -14.430  -1.318  29.881  0.00  0.00    -0.393 OA
ATOM     21  H   UNL     1     -14.426  -1.535  28.934  0.00  0.00    +0.209 HD
ENDBRANCH  10   2
ENDBRANCH   7  10
TORSDOF 4
ENDMDL
MODEL 8
REMARK VINA RESULT:      -5.6     14.429     17.781
REMARK  Name = 71693227
REMARK  5 active torsions:
REMARK  status: ('A' for Active; 'I' for Inactive)
REMARK    1  A    between atoms: O_2  and  C_10
REMARK    2  A    between atoms: N_6  and  C_17
REMARK    3  A    between atoms: CA_7  and  C_10
REMARK    4  A    between atoms: C_8  and  C_9
REMARK    5  A    between atoms: C_18  and  C_19
REMARK                            x       y       z     vdW  Elec       q    Type
REMARK                         _______ _______ _______ _____ _____    ______ ____
ROOT
ATOM      1  O   UNL     1       9.012   6.121   5.186  0.00  0.00    -0.361 OA
ATOM      3  O   UNL     1       8.509   7.304   8.536  0.00  0.00    -0.273 OA
ATOM      5  N   UNL     1      10.460   6.844   7.419  0.00  0.00    -0.306 N 
ATOM      7  CA  UNL     1      11.153   6.312   6.248  0.00  0.00    +0.131 C 
ATOM      8  C   UNL     1      10.347   6.599   4.973  0.00  0.00    +0.171 C 
ATOM     11  C   UNL     1       8.348   6.871   6.182  0.00  0.00    +0.256 C 
ATOM     12  C   UNL     1       9.095   7.005   7.495  0.00  0.00    +0.239 C 
ATOM     20  H   UNL     1      10.986   6.929   8.283  0.00  0.00    +0.149 HD
ENDROOT
BRANCH   8   9
ATOM      9  C   UNL     1      10.890   5.907   3.741  0.00  0.00    -0.017 A 
ATOM     13  C   UNL     1      11.537   6.650   2.754  0.00  0.00    +0.008 A 
ATOM     14  C   UNL     1      10.741   4.529   3.593  0.00  0.00    +0.008 A 
ATOM     15  C   UNL     1      12.037   6.013   1.618  0.00  0.00    +0.023 A 
ATOM     16  C   UNL     1      11.242   3.892   2.457  0.00  0.00    +0.023 A 
ATOM     17  C   UNL     1      11.889   4.634   1.469  0.00  0.00    +0.033 A 
BRANCH  17   6
ATOM      4  O   UNL     1      10.505   3.794  -1.070  0.00  0.00    -0.276 OA
ATOM      6  N   UNL     1      12.389   3.997   0.333  0.00  0.00    -0.286 N 
ATOM     18  C   UNL     1      11.696   3.626  -0.827  0.00  0.00    +0.214 C 
ATOM     19  C   UNL     1      12.601   2.956  -1.830  0.00  0.00    +0.109 C 
ATOM     22  H   UNL     1      13.383   3.778   0.360  0.00  0.00    +0.155 HD
ENDBRANCH  17   6
ENDBRANCH   8   9
BRANCH   7  10
ATOM     10  C   UNL     1      12.570   6.881   6.186  0.00  0.00    +0.181 C 
BRANCH  10   2
ATOM      2  O   UNL     1      13.383   6.164   7.096  0.00  0.00    -0.393 OA
ATOM     21  H   UNL     1      12.816   5.505   7.530  0.00  0.00    +0.209 HD
ENDBRANCH  10   2
ENDBRANCH   7  10
TORSDOF 4
ENDMDL
MODEL 9
REMARK VINA RESULT:      -5.5     22.496     25.491
REMARK  Name = 71693227
REMARK  5 active torsions:
REMARK  status: ('A' for Active; 'I' for Inactive)
REMARK    1  A    between atoms: O_2  and  C_10
REMARK    2  A    between atoms: N_6  and  C_17
REMARK    3  A    between atoms: CA_7  and  C_10
REMARK    4  A    between atoms: C_8  and  C_9
REMARK    5  A    between atoms: C_18  and  C_19
REMARK                            x       y       z     vdW  Elec       q    Type
REMARK                         _______ _______ _______ _____ _____    ______ ____
ROOT
ATOM      1  O   UNL     1      -1.707   9.561   3.314  0.00  0.00    -0.361 OA
ATOM      3  O   UNL     1       0.928  11.909   3.955  0.00  0.00    -0.273 OA
ATOM      5  N   UNL     1      -0.755  11.177   5.334  0.00  0.00    -0.306 N 
ATOM      7  CA  UNL     1      -1.987  10.420   5.535  0.00  0.00    +0.131 C 
ATOM      8  C   UNL     1      -1.987   9.157   4.660  0.00  0.00    +0.171 C 
ATOM     11  C   UNL     1      -0.392  10.059   3.187  0.00  0.00    +0.256 C 
ATOM     12  C   UNL     1      -0.018  11.151   4.171  0.00  0.00    +0.239 C 
ATOM     20  H   UNL     1      -0.525  11.898   6.012  0.00  0.00    +0.149 HD
ENDROOT
BRANCH   8   9
ATOM      9  C   UNL     1      -3.310   8.422   4.653  0.00  0.00    -0.017 A 
ATOM     13  C   UNL     1      -3.403   7.151   5.218  0.00  0.00    +0.008 A 
ATOM     14  C   UNL     1      -4.434   9.015   4.079  0.00  0.00    +0.008 A 
ATOM     15  C   UNL     1      -4.622   6.473   5.212  0.00  0.00    +0.023 A 
ATOM     16  C   UNL     1      -5.653   8.337   4.073  0.00  0.00    +0.023 A 
ATOM     17  C   UNL     1      -5.747   7.065   4.638  0.00  0.00    +0.033 A 
BRANCH  17   6
ATOM      4  O   UNL     1      -8.276   7.570   6.194  0.00  0.00    -0.276 OA
ATOM      6  N   UNL     1      -6.966   6.387   4.630  0.00  0.00    -0.286 N 
ATOM     18  C   UNL     1      -8.117   6.665   5.381  0.00  0.00    +0.214 C 
ATOM     19  C   UNL     1      -9.229   5.692   5.081  0.00  0.00    +0.109 C 
ATOM     22  H   UNL     1      -7.017   5.590   3.997  0.00  0.00    +0.155 HD
ENDBRANCH  17   6
ENDBRANCH   8   9
BRANCH   7  10
ATOM     10  C   UNL     1      -2.162  10.105   7.019  0.00  0.00    +0.181 C 
BRANCH  10   2
ATOM      2  O   UNL     1      -0.992   9.456   7.482  0.00  0.00    -0.393 OA
ATOM     21  H   UNL     1      -0.827   9.773   8.385  0.00  0.00    +0.209 HD
ENDBRANCH  10   2
ENDBRANCH   7  10
TORSDOF 4
ENDMDL
MODEL 10
REMARK VINA RESULT:      -5.5     32.036     34.385
REMARK  Name = 71693227
REMARK  5 active torsions:
REMARK  status: ('A' for Active; 'I' for Inactive)
REMARK    1  A    between atoms: O_2  and  C_10
REMARK    2  A    between atoms: N_6  and  C_17
REMARK    3  A    between atoms: CA_7  and  C_10
REMARK    4  A    between atoms: C_8  and  C_9
REMARK    5  A    between atoms: C_18  and  C_19
REMARK                            x       y       z     vdW  Elec       q    Type
REMARK                         _______ _______ _______ _____ _____    ______ ____
ROOT
ATOM      1  O   UNL     1       0.183 -14.543  -5.070  0.00  0.00    -0.361 OA
ATOM      3  O   UNL     1      -1.811 -12.905  -7.563  0.00  0.00    -0.273 OA
ATOM      5  N   UNL     1      -0.273 -12.027  -6.103  0.00  0.00    -0.306 N 
ATOM      7  CA  UNL     1       0.627 -12.189  -4.964  0.00  0.00    +0.131 C 
ATOM      8  C   UNL     1       1.252 -13.592  -4.971  0.00  0.00    +0.171 C 
ATOM     11  C   UNL     1      -0.470 -14.457  -6.320  0.00  0.00    +0.256 C 
ATOM     12  C   UNL     1      -0.939 -13.069  -6.709  0.00  0.00    +0.239 C 
ATOM     20  H   UNL     1      -0.565 -11.085  -6.346  0.00  0.00    +0.149 HD
ENDROOT
BRANCH   8   9
ATOM      9  C   UNL     1       2.037 -13.915  -3.719  0.00  0.00    -0.017 A 
ATOM     13  C   UNL     1       3.210 -14.663  -3.806  0.00  0.00    +0.008 A 
ATOM     14  C   UNL     1       1.587 -13.465  -2.478  0.00  0.00    +0.008 A 
ATOM     15  C   UNL     1       3.935 -14.961  -2.651  0.00  0.00    +0.023 A 
ATOM     16  C   UNL     1       2.311 -13.763  -1.323  0.00  0.00    +0.023 A 
ATOM     17  C   UNL     1       3.485 -14.512  -1.410  0.00  0.00    +0.033 A 
BRANCH  17   6
ATOM      4  O   UNL     1       3.551 -17.015   0.264  0.00  0.00    -0.276 OA
ATOM      6  N   UNL     1       4.209 -14.810  -0.255  0.00  0.00    -0.286 N 
ATOM     18  C   UNL     1       4.201 -15.998   0.489  0.00  0.00    +0.214 C 
ATOM     19  C   UNL     1       5.128 -15.921   1.676  0.00  0.00    +0.109 C 
ATOM     22  H   UNL     1       4.816 -14.065   0.081  0.00  0.00    +0.155 HD
ENDBRANCH  17   6
ENDBRANCH   8   9
BRANCH   7  10
ATOM     10  C   UNL     1       1.678 -11.080  -4.977  0.00  0.00    +0.181 C 
BRANCH  10   2
ATOM      2  O   UNL     1       1.241 -10.037  -4.125  0.00  0.00    -0.393 OA
ATOM     21  H   UNL     1       2.015  -9.483  -3.929  0.00  0.00    +0.209 HD
ENDBRANCH  10   2
ENDBRANCH   7  10
TORSDOF 4
ENDMDL
