MODEL 1
REMARK VINA RESULT:      -9.0      0.000      0.000
REMARK  Name = 11913101
REMARK  7 active torsions:
REMARK  status: ('A' for Active; 'I' for Inactive)
REMARK    1  A    between atoms: O_3  and  C_15
REMARK    2  A    between atoms: O_3  and  C_19
REMARK    3  A    between atoms: O_7  and  C_34
REMARK    4  A    between atoms: O_7  and  C_36
REMARK    5  A    between atoms: N_8  and  C_14
REMARK    6  A    between atoms: N_11  and  C_23
REMARK    7  A    between atoms: C_20  and  C_24
REMARK                            x       y       z     vdW  Elec       q    Type
REMARK                         _______ _______ _______ _____ _____    ______ ____
ROOT
ATOM      1  O   UNL     1      -4.481  -9.002  10.086  0.00  0.00    -0.368 OA
ATOM      2  O   UNL     1      -5.742 -11.794  10.260  0.00  0.00    -0.368 OA
ATOM     12  C   UNL     1      -4.411 -11.325  10.562  0.00  0.00    +0.173 C 
ATOM     13  C   UNL     1      -4.076 -10.265   9.532  0.00  0.00    +0.192 C 
ATOM     14  C   UNL     1      -4.412 -10.572  11.872  0.00  0.00    +0.130 C 
ATOM     15  C   UNL     1      -4.939 -10.663   8.359  0.00  0.00    +0.235 C 
ATOM     16  C   UNL     1      -4.881  -9.191  11.453  0.00  0.00    +0.185 C 
ATOM     17  C   UNL     1      -6.186 -11.179   9.042  0.00  0.00    +0.207 C 
ENDROOT
BRANCH  14   8
ATOM      8  N   UNL     1      -3.072 -10.506  12.414  0.00  0.00    -0.306 N 
ATOM      9  N   UNL     1      -3.846 -10.621  14.600  0.00  0.00    -0.214 NA
ATOM     10  N   UNL     1      -1.491 -10.463  14.115  0.00  0.00    -0.223 NA
ATOM     18  C   UNL     1      -2.791 -10.532  13.768  0.00  0.00    +0.216 A 
ATOM     20  C   UNL     1      -3.537 -10.643  15.913  0.00  0.00    +0.076 A 
ATOM     21  C   UNL     1      -1.254 -10.490  15.443  0.00  0.00    +0.116 A 
ATOM     22  C   UNL     1      -2.246 -10.580  16.397  0.00  0.00    +0.048 A 
ATOM     42  H   UNL     1      -2.280 -10.491  11.781  0.00  0.00    +0.149 HD
BRANCH  20  24
ATOM      5  O   UNL     1      -8.238  -9.951  17.083  0.00  0.00    -0.453 OA
ATOM      6  O   UNL     1      -7.953 -10.954  19.256  0.00  0.00    -0.453 OA
ATOM     24  C   UNL     1      -4.665 -10.740  16.807  0.00  0.00    +0.004 A 
ATOM     27  C   UNL     1      -5.912 -10.253  16.407  0.00  0.00    +0.059 A 
ATOM     28  C   UNL     1      -4.499 -11.326  18.075  0.00  0.00    +0.014 A 
ATOM     29  C   UNL     1      -6.960 -10.368  17.297  0.00  0.00    +0.167 A 
ATOM     30  C   UNL     1      -5.577 -11.430  18.957  0.00  0.00    +0.050 A 
ATOM     31  C   UNL     1      -6.798 -10.940  18.537  0.00  0.00    +0.166 A 
ATOM     35  C   UNL     1      -8.862 -10.326  18.329  0.00  0.00    +0.466 C 
ENDBRANCH  20  24
ENDBRANCH  14   8
BRANCH  15   3
ATOM      3  O   UNL     1      -5.219  -9.599   7.478  0.00  0.00    -0.442 OA
BRANCH   3  19
ATOM      4  O   UNL     1      -7.292  -9.726   6.521  0.00  0.00    -0.226 OA
ATOM     11  N   UNL     1      -6.839  -8.247   8.278  0.00  0.00    -0.251 N 
ATOM     19  C   UNL     1      -6.542  -9.227   7.350  0.00  0.00    +0.405 C 
ATOM     43  H   UNL     1      -6.077  -7.960   8.888  0.00  0.00    +0.158 HD
BRANCH  11  23
ATOM     23  C   UNL     1      -8.074  -7.593   8.487  0.00  0.00    +0.037 A 
ATOM     25  C   UNL     1      -9.150  -8.291   9.036  0.00  0.00    +0.027 A 
ATOM     26  C   UNL     1      -8.218  -6.249   8.141  0.00  0.00    +0.027 A 
ATOM     32  C   UNL     1     -10.369  -7.645   9.240  0.00  0.00    +0.048 A 
ATOM     33  C   UNL     1      -9.439  -5.604   8.345  0.00  0.00    +0.048 A 
ATOM     34  C   UNL     1     -10.513  -6.302   8.894  0.00  0.00    +0.129 A 
BRANCH  34   7
ATOM      7  O   UNL     1     -11.704  -5.673   9.092  0.00  0.00    -0.456 OA
BRANCH   7  36
ATOM     36  C   UNL     1     -11.971  -5.182  10.360  0.00  0.00    +0.128 A 
ATOM     37  C   UNL     1     -12.390  -6.049  11.369  0.00  0.00    +0.046 A 
ATOM     38  C   UNL     1     -11.822  -3.822  10.626  0.00  0.00    +0.046 A 
ATOM     39  C   UNL     1     -12.660  -5.554  12.645  0.00  0.00    +0.004 A 
ATOM     40  C   UNL     1     -12.092  -3.327  11.901  0.00  0.00    +0.004 A 
ATOM     41  C   UNL     1     -12.511  -4.194  12.911  0.00  0.00    +0.000 A 
ENDBRANCH   7  36
ENDBRANCH  34   7
ENDBRANCH  11  23
ENDBRANCH   3  19
ENDBRANCH  15   3
TORSDOF 7
ENDMDL
MODEL 2
REMARK VINA RESULT:      -8.4      4.278      9.113
REMARK  Name = 11913101
REMARK  7 active torsions:
REMARK  status: ('A' for Active; 'I' for Inactive)
REMARK    1  A    between atoms: O_3  and  C_15
REMARK    2  A    between atoms: O_3  and  C_19
REMARK    3  A    between atoms: O_7  and  C_34
REMARK    4  A    between atoms: O_7  and  C_36
REMARK    5  A    between atoms: N_8  and  C_14
REMARK    6  A    between atoms: N_11  and  C_23
REMARK    7  A    between atoms: C_20  and  C_24
REMARK                            x       y       z     vdW  Elec       q    Type
REMARK                         _______ _______ _______ _____ _____    ______ ____
ROOT
ATOM      1  O   UNL     1      -5.965 -12.367  19.093  0.00  0.00    -0.368 OA
ATOM      2  O   UNL     1      -7.309 -11.424  16.501  0.00  0.00    -0.368 OA
ATOM     12  C   UNL     1      -6.046 -11.076  17.105  0.00  0.00    +0.173 C 
ATOM     13  C   UNL     1      -6.269 -11.051  18.604  0.00  0.00    +0.192 C 
ATOM     14  C   UNL     1      -5.050 -12.194  16.904  0.00  0.00    +0.130 C 
ATOM     15  C   UNL     1      -7.743 -10.741  18.711  0.00  0.00    +0.235 C 
ATOM     16  C   UNL     1      -5.404 -13.151  18.027  0.00  0.00    +0.185 C 
ATOM     17  C   UNL     1      -8.312 -11.489  17.526  0.00  0.00    +0.207 C 
ENDROOT
BRANCH  14   8
ATOM      8  N   UNL     1      -3.700 -11.700  17.070  0.00  0.00    -0.306 N 
ATOM      9  N   UNL     1      -3.558 -11.056  14.844  0.00  0.00    -0.214 NA
ATOM     10  N   UNL     1      -1.717 -10.720  16.361  0.00  0.00    -0.223 NA
ATOM     18  C   UNL     1      -2.960 -11.134  16.047  0.00  0.00    +0.216 A 
ATOM     20  C   UNL     1      -2.808 -10.500  13.870  0.00  0.00    +0.076 A 
ATOM     21  C   UNL     1      -1.024 -10.174  15.341  0.00  0.00    +0.116 A 
ATOM     22  C   UNL     1      -1.523 -10.036  14.062  0.00  0.00    +0.048 A 
ATOM     42  H   UNL     1      -3.275 -11.714  17.991  0.00  0.00    +0.149 HD
BRANCH  20  24
ATOM      5  O   UNL     1      -6.671 -10.873  10.889  0.00  0.00    -0.453 OA
ATOM      6  O   UNL     1      -5.382 -10.211   8.963  0.00  0.00    -0.453 OA
ATOM     24  C   UNL     1      -3.447 -10.414  12.578  0.00  0.00    +0.004 A 
ATOM     27  C   UNL     1      -4.806 -10.715  12.454  0.00  0.00    +0.059 A 
ATOM     28  C   UNL     1      -2.694 -10.027  11.454  0.00  0.00    +0.014 A 
ATOM     29  C   UNL     1      -5.371 -10.619  11.200  0.00  0.00    +0.167 A 
ATOM     30  C   UNL     1      -3.292  -9.938  10.195  0.00  0.00    +0.050 A 
ATOM     31  C   UNL     1      -4.635 -10.241  10.100  0.00  0.00    +0.166 A 
ATOM     35  C   UNL     1      -6.671 -10.612   9.470  0.00  0.00    +0.466 C 
ENDBRANCH  20  24
ENDBRANCH  14   8
BRANCH  15   3
ATOM      3  O   UNL     1      -8.319 -11.159  19.927  0.00  0.00    -0.442 OA
BRANCH   3  19
ATOM      4  O   UNL     1     -10.175 -12.488  20.070  0.00  0.00    -0.226 OA
ATOM     11  N   UNL     1     -10.341 -10.174  19.758  0.00  0.00    -0.251 N 
ATOM     19  C   UNL     1      -9.682 -11.375  19.930  0.00  0.00    +0.405 C 
ATOM     43  H   UNL     1      -9.754  -9.349  19.661  0.00  0.00    +0.158 HD
BRANCH  11  23
ATOM     23  C   UNL     1     -11.735  -9.947  19.703  0.00  0.00    +0.037 A 
ATOM     25  C   UNL     1     -12.508 -10.061  20.858  0.00  0.00    +0.027 A 
ATOM     26  C   UNL     1     -12.339  -9.609  18.490  0.00  0.00    +0.027 A 
ATOM     32  C   UNL     1     -13.884  -9.839  20.802  0.00  0.00    +0.048 A 
ATOM     33  C   UNL     1     -13.715  -9.388  18.435  0.00  0.00    +0.048 A 
ATOM     34  C   UNL     1     -14.487  -9.503  19.591  0.00  0.00    +0.129 A 
BRANCH  34   7
ATOM      7  O   UNL     1     -15.830  -9.288  19.536  0.00  0.00    -0.456 OA
BRANCH   7  36
ATOM     36  C   UNL     1     -16.291  -8.015  19.830  0.00  0.00    +0.128 A 
ATOM     37  C   UNL     1     -16.780  -7.198  18.810  0.00  0.00    +0.046 A 
ATOM     38  C   UNL     1     -16.265  -7.551  21.144  0.00  0.00    +0.046 A 
ATOM     39  C   UNL     1     -17.243  -5.916  19.106  0.00  0.00    +0.004 A 
ATOM     40  C   UNL     1     -16.728  -6.269  21.440  0.00  0.00    +0.004 A 
ATOM     41  C   UNL     1     -17.217  -5.451  20.420  0.00  0.00    +0.000 A 
ENDBRANCH   7  36
ENDBRANCH  34   7
ENDBRANCH  11  23
ENDBRANCH   3  19
ENDBRANCH  15   3
TORSDOF 7
ENDMDL
MODEL 3
REMARK VINA RESULT:      -8.4      4.588      8.769
REMARK  Name = 11913101
REMARK  7 active torsions:
REMARK  status: ('A' for Active; 'I' for Inactive)
REMARK    1  A    between atoms: O_3  and  C_15
REMARK    2  A    between atoms: O_3  and  C_19
REMARK    3  A    between atoms: O_7  and  C_34
REMARK    4  A    between atoms: O_7  and  C_36
REMARK    5  A    between atoms: N_8  and  C_14
REMARK    6  A    between atoms: N_11  and  C_23
REMARK    7  A    between atoms: C_20  and  C_24
REMARK                            x       y       z     vdW  Elec       q    Type
REMARK                         _______ _______ _______ _____ _____    ______ ____
ROOT
ATOM      1  O   UNL     1      -4.503  -9.487   9.998  0.00  0.00    -0.368 OA
ATOM      2  O   UNL     1      -5.918 -12.072  10.853  0.00  0.00    -0.368 OA
ATOM     12  C   UNL     1      -4.552 -11.635  11.004  0.00  0.00    +0.173 C 
ATOM     13  C   UNL     1      -4.195 -10.868   9.747  0.00  0.00    +0.192 C 
ATOM     14  C   UNL     1      -4.458 -10.599  12.101  0.00  0.00    +0.130 C 
ATOM     15  C   UNL     1      -5.124 -11.470   8.720  0.00  0.00    +0.235 C 
ATOM     16  C   UNL     1      -4.861  -9.326  11.380  0.00  0.00    +0.185 C 
ATOM     17  C   UNL     1      -6.372 -11.729   9.535  0.00  0.00    +0.207 C 
ENDROOT
BRANCH  14   8
ATOM      8  N   UNL     1      -3.096 -10.498  12.580  0.00  0.00    -0.306 N 
ATOM      9  N   UNL     1      -3.761 -10.681  14.797  0.00  0.00    -0.214 NA
ATOM     10  N   UNL     1      -1.439 -10.433  14.206  0.00  0.00    -0.223 NA
ATOM     18  C   UNL     1      -2.750 -10.539  13.919  0.00  0.00    +0.216 A 
ATOM     20  C   UNL     1      -3.388 -10.717  16.094  0.00  0.00    +0.076 A 
ATOM     21  C   UNL     1      -1.137 -10.477  15.520  0.00  0.00    +0.116 A 
ATOM     22  C   UNL     1      -2.078 -10.619  16.518  0.00  0.00    +0.048 A 
ATOM     42  H   UNL     1      -2.336 -10.443  11.911  0.00  0.00    +0.149 HD
BRANCH  20  24
ATOM      5  O   UNL     1      -8.026 -10.123  17.538  0.00  0.00    -0.453 OA
ATOM      6  O   UNL     1      -7.625 -11.237  19.637  0.00  0.00    -0.453 OA
ATOM     24  C   UNL     1      -4.468 -10.870  17.038  0.00  0.00    +0.004 A 
ATOM     27  C   UNL     1      -5.737 -10.371  16.729  0.00  0.00    +0.059 A 
ATOM     28  C   UNL     1      -4.235 -11.521  18.263  0.00  0.00    +0.014 A 
ATOM     29  C   UNL     1      -6.737 -10.541  17.664  0.00  0.00    +0.167 A 
ATOM     30  C   UNL     1      -5.266 -11.680  19.192  0.00  0.00    +0.050 A 
ATOM     31  C   UNL     1      -6.509 -11.177  18.862  0.00  0.00    +0.166 A 
ATOM     35  C   UNL     1      -8.583 -10.568  18.792  0.00  0.00    +0.466 C 
ENDBRANCH  20  24
ENDBRANCH  14   8
BRANCH  15   3
ATOM      3  O   UNL     1      -5.375 -10.624   7.622  0.00  0.00    -0.442 OA
BRANCH   3  19
ATOM      4  O   UNL     1      -5.842 -10.840   5.394  0.00  0.00    -0.226 OA
ATOM     11  N   UNL     1      -4.111 -12.045   6.410  0.00  0.00    -0.251 N 
ATOM     19  C   UNL     1      -5.165 -11.153   6.366  0.00  0.00    +0.405 C 
ATOM     43  H   UNL     1      -3.668 -12.173   7.316  0.00  0.00    +0.158 HD
BRANCH  11  23
ATOM     23  C   UNL     1      -3.568 -12.804   5.348  0.00  0.00    +0.037 A 
ATOM     25  C   UNL     1      -3.167 -12.171   4.171  0.00  0.00    +0.027 A 
ATOM     26  C   UNL     1      -3.436 -14.187   5.476  0.00  0.00    +0.027 A 
ATOM     32  C   UNL     1      -2.633 -12.920   3.123  0.00  0.00    +0.048 A 
ATOM     33  C   UNL     1      -2.903 -14.936   4.427  0.00  0.00    +0.048 A 
ATOM     34  C   UNL     1      -2.502 -14.302   3.251  0.00  0.00    +0.129 A 
BRANCH  34   7
ATOM      7  O   UNL     1      -1.983 -15.034   2.227  0.00  0.00    -0.456 OA
BRANCH   7  36
ATOM     36  C   UNL     1      -0.684 -14.757   1.831  0.00  0.00    +0.128 A 
ATOM     37  C   UNL     1      -0.432 -14.302   0.537  0.00  0.00    +0.046 A 
ATOM     38  C   UNL     1       0.370 -14.934   2.726  0.00  0.00    +0.046 A 
ATOM     39  C   UNL     1       0.876 -14.025   0.138  0.00  0.00    +0.004 A 
ATOM     40  C   UNL     1       1.678 -14.657   2.327  0.00  0.00    +0.004 A 
ATOM     41  C   UNL     1       1.930 -14.202   1.033  0.00  0.00    +0.000 A 
ENDBRANCH   7  36
ENDBRANCH  34   7
ENDBRANCH  11  23
ENDBRANCH   3  19
ENDBRANCH  15   3
TORSDOF 7
ENDMDL
MODEL 4
REMARK VINA RESULT:      -8.3      3.880      7.064
REMARK  Name = 11913101
REMARK  7 active torsions:
REMARK  status: ('A' for Active; 'I' for Inactive)
REMARK    1  A    between atoms: O_3  and  C_15
REMARK    2  A    between atoms: O_3  and  C_19
REMARK    3  A    between atoms: O_7  and  C_34
REMARK    4  A    between atoms: O_7  and  C_36
REMARK    5  A    between atoms: N_8  and  C_14
REMARK    6  A    between atoms: N_11  and  C_23
REMARK    7  A    between atoms: C_20  and  C_24
REMARK                            x       y       z     vdW  Elec       q    Type
REMARK                         _______ _______ _______ _____ _____    ______ ____
ROOT
ATOM      1  O   UNL     1     -11.463  -8.630  17.498  0.00  0.00    -0.368 OA
ATOM      2  O   UNL     1      -9.406  -8.487  15.227  0.00  0.00    -0.368 OA
ATOM     12  C   UNL     1      -9.247  -8.620  16.655  0.00  0.00    +0.173 C 
ATOM     13  C   UNL     1     -10.327  -7.774  17.297  0.00  0.00    +0.192 C 
ATOM     14  C   UNL     1      -9.584 -10.029  17.084  0.00  0.00    +0.130 C 
ATOM     15  C   UNL     1     -10.596  -6.728  16.242  0.00  0.00    +0.235 C 
ATOM     16  C   UNL     1     -11.097  -9.984  17.186  0.00  0.00    +0.185 C 
ATOM     17  C   UNL     1     -10.431  -7.518  14.962  0.00  0.00    +0.207 C 
ENDROOT
BRANCH  14   8
ATOM      8  N   UNL     1      -9.001 -10.313  18.378  0.00  0.00    -0.306 N 
ATOM      9  N   UNL     1      -6.871 -10.530  17.478  0.00  0.00    -0.214 NA
ATOM     10  N   UNL     1      -7.264 -10.806  19.839  0.00  0.00    -0.223 NA
ATOM     18  C   UNL     1      -7.653 -10.560  18.574  0.00  0.00    +0.216 A 
ATOM     20  C   UNL     1      -5.564 -10.776  17.704  0.00  0.00    +0.076 A 
ATOM     21  C   UNL     1      -5.945 -11.044  19.993  0.00  0.00    +0.116 A 
ATOM     22  C   UNL     1      -5.039 -11.041  18.953  0.00  0.00    +0.048 A 
ATOM     42  H   UNL     1      -9.587 -10.283  19.205  0.00  0.00    +0.149 HD
BRANCH  20  24
ATOM      5  O   UNL     1      -4.820 -10.322  12.889  0.00  0.00    -0.453 OA
ATOM      6  O   UNL     1      -2.441 -10.630  13.122  0.00  0.00    -0.453 OA
ATOM     24  C   UNL     1      -4.722 -10.743  16.533  0.00  0.00    +0.004 A 
ATOM     27  C   UNL     1      -5.292 -10.534  15.274  0.00  0.00    +0.059 A 
ATOM     28  C   UNL     1      -3.334 -10.922  16.668  0.00  0.00    +0.014 A 
ATOM     29  C   UNL     1      -4.447 -10.511  14.184  0.00  0.00    +0.167 A 
ATOM     30  C   UNL     1      -2.500 -10.894  15.548  0.00  0.00    +0.050 A 
ATOM     31  C   UNL     1      -3.089 -10.687  14.316  0.00  0.00    +0.166 A 
ATOM     35  C   UNL     1      -3.543 -10.398  12.221  0.00  0.00    +0.466 C 
ENDBRANCH  20  24
ENDBRANCH  14   8
BRANCH  15   3
ATOM      3  O   UNL     1     -11.873  -6.142  16.341  0.00  0.00    -0.442 OA
BRANCH   3  19
ATOM      4  O   UNL     1     -13.404  -7.113  14.947  0.00  0.00    -0.226 OA
ATOM     11  N   UNL     1     -12.474  -5.016  14.482  0.00  0.00    -0.251 N 
ATOM     19  C   UNL     1     -12.664  -6.173  15.211  0.00  0.00    +0.405 C 
ATOM     43  H   UNL     1     -11.814  -4.344  14.867  0.00  0.00    +0.158 HD
BRANCH  11  23
ATOM     23  C   UNL     1     -13.088  -4.645  13.264  0.00  0.00    +0.037 A 
ATOM     25  C   UNL     1     -12.371  -3.917  12.314  0.00  0.00    +0.027 A 
ATOM     26  C   UNL     1     -14.412  -5.006  13.012  0.00  0.00    +0.027 A 
ATOM     32  C   UNL     1     -12.978  -3.549  11.113  0.00  0.00    +0.048 A 
ATOM     33  C   UNL     1     -15.019  -4.637  11.811  0.00  0.00    +0.048 A 
ATOM     34  C   UNL     1     -14.302  -3.909  10.862  0.00  0.00    +0.129 A 
BRANCH  34   7
ATOM      7  O   UNL     1     -14.894  -3.549   9.691  0.00  0.00    -0.456 OA
BRANCH   7  36
ATOM     36  C   UNL     1     -15.346  -2.245   9.572  0.00  0.00    +0.128 A 
ATOM     37  C   UNL     1     -16.122  -1.681  10.584  0.00  0.00    +0.046 A 
ATOM     38  C   UNL     1     -15.025  -1.497   8.439  0.00  0.00    +0.046 A 
ATOM     39  C   UNL     1     -16.578  -0.368  10.463  0.00  0.00    +0.004 A 
ATOM     40  C   UNL     1     -15.481  -0.185   8.318  0.00  0.00    +0.004 A 
ATOM     41  C   UNL     1     -16.258   0.380   9.330  0.00  0.00    +0.000 A 
ENDBRANCH   7  36
ENDBRANCH  34   7
ENDBRANCH  11  23
ENDBRANCH   3  19
ENDBRANCH  15   3
TORSDOF 7
ENDMDL
MODEL 5
REMARK VINA RESULT:      -8.2     26.139     28.391
REMARK  Name = 11913101
REMARK  7 active torsions:
REMARK  status: ('A' for Active; 'I' for Inactive)
REMARK    1  A    between atoms: O_3  and  C_15
REMARK    2  A    between atoms: O_3  and  C_19
REMARK    3  A    between atoms: O_7  and  C_34
REMARK    4  A    between atoms: O_7  and  C_36
REMARK    5  A    between atoms: N_8  and  C_14
REMARK    6  A    between atoms: N_11  and  C_23
REMARK    7  A    between atoms: C_20  and  C_24
REMARK                            x       y       z     vdW  Elec       q    Type
REMARK                         _______ _______ _______ _____ _____    ______ ____
ROOT
ATOM      1  O   UNL     1      14.388  11.079  13.951  0.00  0.00    -0.368 OA
ATOM      2  O   UNL     1      15.495  13.188  15.884  0.00  0.00    -0.368 OA
ATOM     12  C   UNL     1      14.273  12.422  15.902  0.00  0.00    +0.173 C 
ATOM     13  C   UNL     1      13.815  12.293  14.463  0.00  0.00    +0.192 C 
ATOM     14  C   UNL     1      14.560  11.000  16.322  0.00  0.00    +0.130 C 
ATOM     15  C   UNL     1      14.422  13.514  13.815  0.00  0.00    +0.235 C 
ATOM     16  C   UNL     1      15.022  10.364  15.024  0.00  0.00    +0.185 C 
ATOM     17  C   UNL     1      15.741  13.639  14.544  0.00  0.00    +0.207 C 
ENDROOT
BRANCH  14   8
ATOM      8  N   UNL     1      13.348  10.361  16.792  0.00  0.00    -0.306 N 
ATOM      9  N   UNL     1      14.534   8.871  18.120  0.00  0.00    -0.214 NA
ATOM     10  N   UNL     1      12.128   8.819  18.027  0.00  0.00    -0.223 NA
ATOM     18  C   UNL     1      13.336   9.305  17.686  0.00  0.00    +0.216 A 
ATOM     20  C   UNL     1      14.486   7.840  18.989  0.00  0.00    +0.076 A 
ATOM     21  C   UNL     1      12.152   7.791  18.899  0.00  0.00    +0.116 A 
ATOM     22  C   UNL     1      13.312   7.254  19.419  0.00  0.00    +0.048 A 
ATOM     42  H   UNL     1      12.449  10.726  16.500  0.00  0.00    +0.149 HD
BRANCH  20  24
ATOM      5  O   UNL     1      18.452   8.143  21.839  0.00  0.00    -0.453 OA
ATOM      6  O   UNL     1      19.421   6.155  20.882  0.00  0.00    -0.453 OA
ATOM     24  C   UNL     1      15.768   7.373  19.459  0.00  0.00    +0.004 A 
ATOM     27  C   UNL     1      16.438   8.077  20.464  0.00  0.00    +0.059 A 
ATOM     28  C   UNL     1      16.334   6.213  18.900  0.00  0.00    +0.014 A 
ATOM     29  C   UNL     1      17.660   7.592  20.879  0.00  0.00    +0.167 A 
ATOM     30  C   UNL     1      17.574   5.744  19.339  0.00  0.00    +0.050 A 
ATOM     31  C   UNL     1      18.214   6.458  20.332  0.00  0.00    +0.166 A 
ATOM     35  C   UNL     1      19.566   7.226  21.836  0.00  0.00    +0.466 C 
ENDBRANCH  20  24
ENDBRANCH  14   8
BRANCH  15   3
ATOM      3  O   UNL     1      14.596  13.386  12.423  0.00  0.00    -0.442 OA
BRANCH   3  19
ATOM      4  O   UNL     1      12.805  14.471  11.502  0.00  0.00    -0.226 OA
ATOM     11  N   UNL     1      13.214  12.204  11.088  0.00  0.00    -0.251 N 
ATOM     19  C   UNL     1      13.458  13.444  11.644  0.00  0.00    +0.405 C 
ATOM     43  H   UNL     1      13.876  11.467  11.322  0.00  0.00    +0.158 HD
BRANCH  11  23
ATOM     23  C   UNL     1      12.156  11.829  10.228  0.00  0.00    +0.037 A 
ATOM     25  C   UNL     1      12.424  11.466   8.909  0.00  0.00    +0.027 A 
ATOM     26  C   UNL     1      10.843  11.823  10.701  0.00  0.00    +0.027 A 
ATOM     32  C   UNL     1      11.379  11.098   8.061  0.00  0.00    +0.048 A 
ATOM     33  C   UNL     1       9.798  11.456   9.852  0.00  0.00    +0.048 A 
ATOM     34  C   UNL     1      10.067  11.093   8.533  0.00  0.00    +0.129 A 
BRANCH  34   7
ATOM      7  O   UNL     1       9.048  10.736   7.705  0.00  0.00    -0.456 OA
BRANCH   7  36
ATOM     36  C   UNL     1       9.043   9.442   7.210  0.00  0.00    +0.128 A 
ATOM     37  C   UNL     1       9.036   9.221   5.833  0.00  0.00    +0.046 A 
ATOM     38  C   UNL     1       9.043   8.360   8.090  0.00  0.00    +0.046 A 
ATOM     39  C   UNL     1       9.029   7.918   5.336  0.00  0.00    +0.004 A 
ATOM     40  C   UNL     1       9.037   7.057   7.593  0.00  0.00    +0.004 A 
ATOM     41  C   UNL     1       9.030   6.836   6.215  0.00  0.00    +0.000 A 
ENDBRANCH   7  36
ENDBRANCH  34   7
ENDBRANCH  11  23
ENDBRANCH   3  19
ENDBRANCH  15   3
TORSDOF 7
ENDMDL
MODEL 6
REMARK VINA RESULT:      -8.0      3.765      5.501
REMARK  Name = 11913101
REMARK  7 active torsions:
REMARK  status: ('A' for Active; 'I' for Inactive)
REMARK    1  A    between atoms: O_3  and  C_15
REMARK    2  A    between atoms: O_3  and  C_19
REMARK    3  A    between atoms: O_7  and  C_34
REMARK    4  A    between atoms: O_7  and  C_36
REMARK    5  A    between atoms: N_8  and  C_14
REMARK    6  A    between atoms: N_11  and  C_23
REMARK    7  A    between atoms: C_20  and  C_24
REMARK                            x       y       z     vdW  Elec       q    Type
REMARK                         _______ _______ _______ _____ _____    ______ ____
ROOT
ATOM      1  O   UNL     1      -5.618  -8.616  11.094  0.00  0.00    -0.368 OA
ATOM      2  O   UNL     1      -6.489 -11.512  10.577  0.00  0.00    -0.368 OA
ATOM     12  C   UNL     1      -5.189 -10.931  10.804  0.00  0.00    +0.173 C 
ATOM     13  C   UNL     1      -5.187  -9.579  10.119  0.00  0.00    +0.192 C 
ATOM     14  C   UNL     1      -5.020 -10.597  12.268  0.00  0.00    +0.130 C 
ATOM     15  C   UNL     1      -6.211  -9.764   9.025  0.00  0.00    +0.235 C 
ATOM     16  C   UNL     1      -5.718  -9.254  12.378  0.00  0.00    +0.185 C 
ATOM     17  C   UNL     1      -7.232 -10.657   9.694  0.00  0.00    +0.207 C 
ENDROOT
BRANCH  14   8
ATOM      8  N   UNL     1      -3.616 -10.463  12.593  0.00  0.00    -0.306 N 
ATOM      9  N   UNL     1      -4.017 -10.734  14.864  0.00  0.00    -0.214 NA
ATOM     10  N   UNL     1      -1.786 -10.390  14.022  0.00  0.00    -0.223 NA
ATOM     18  C   UNL     1      -3.118 -10.532  13.883  0.00  0.00    +0.216 A 
ATOM     20  C   UNL     1      -3.499 -10.795  16.108  0.00  0.00    +0.076 A 
ATOM     21  C   UNL     1      -1.336 -10.462  15.292  0.00  0.00    +0.116 A 
ATOM     22  C   UNL     1      -2.153 -10.666  16.385  0.00  0.00    +0.048 A 
ATOM     42  H   UNL     1      -2.939 -10.363  11.845  0.00  0.00    +0.149 HD
BRANCH  20  24
ATOM      5  O   UNL     1      -8.002 -10.575  18.009  0.00  0.00    -0.453 OA
ATOM      6  O   UNL     1      -7.289 -11.575  20.083  0.00  0.00    -0.453 OA
ATOM     24  C   UNL     1      -4.459 -11.013  17.163  0.00  0.00    +0.004 A 
ATOM     27  C   UNL     1      -5.793 -10.643  16.974  0.00  0.00    +0.059 A 
ATOM     28  C   UNL     1      -4.043 -11.596  18.374  0.00  0.00    +0.014 A 
ATOM     29  C   UNL     1      -6.673 -10.870  18.012  0.00  0.00    +0.167 A 
ATOM     30  C   UNL     1      -4.956 -11.816  19.408  0.00  0.00    +0.050 A 
ATOM     31  C   UNL     1      -6.267 -11.440  19.196  0.00  0.00    +0.166 A 
ATOM     35  C   UNL     1      -8.386 -11.025  19.326  0.00  0.00    +0.466 C 
ENDBRANCH  20  24
ENDBRANCH  14   8
BRANCH  15   3
ATOM      3  O   UNL     1      -6.779  -8.555   8.575  0.00  0.00    -0.442 OA
BRANCH   3  19
ATOM      4  O   UNL     1      -8.778  -8.416   7.473  0.00  0.00    -0.226 OA
ATOM     11  N   UNL     1      -6.790  -8.936   6.352  0.00  0.00    -0.251 N 
ATOM     19  C   UNL     1      -7.571  -8.620   7.447  0.00  0.00    +0.405 C 
ATOM     43  H   UNL     1      -5.798  -9.068   6.530  0.00  0.00    +0.158 HD
BRANCH  11  23
ATOM     23  C   UNL     1      -7.201  -9.099   5.009  0.00  0.00    +0.037 A 
ATOM     25  C   UNL     1      -7.490  -7.981   4.227  0.00  0.00    +0.027 A 
ATOM     26  C   UNL     1      -7.319 -10.380   4.467  0.00  0.00    +0.027 A 
ATOM     32  C   UNL     1      -7.897  -8.143   2.903  0.00  0.00    +0.048 A 
ATOM     33  C   UNL     1      -7.726 -10.540   3.142  0.00  0.00    +0.048 A 
ATOM     34  C   UNL     1      -8.015  -9.422   2.361  0.00  0.00    +0.129 A 
BRANCH  34   7
ATOM      7  O   UNL     1      -8.414  -9.579   1.069  0.00  0.00    -0.456 OA
BRANCH   7  36
ATOM     36  C   UNL     1      -9.607  -8.987   0.687  0.00  0.00    +0.128 A 
ATOM     37  C   UNL     1     -10.690  -8.971   1.565  0.00  0.00    +0.046 A 
ATOM     38  C   UNL     1      -9.723  -8.409  -0.577  0.00  0.00    +0.046 A 
ATOM     39  C   UNL     1     -11.891  -8.376   1.178  0.00  0.00    +0.004 A 
ATOM     40  C   UNL     1     -10.924  -7.815  -0.964  0.00  0.00    +0.004 A 
ATOM     41  C   UNL     1     -12.009  -7.798  -0.086  0.00  0.00    +0.000 A 
ENDBRANCH   7  36
ENDBRANCH  34   7
ENDBRANCH  11  23
ENDBRANCH   3  19
ENDBRANCH  15   3
TORSDOF 7
ENDMDL
MODEL 7
REMARK VINA RESULT:      -7.9     26.734     31.145
REMARK  Name = 11913101
REMARK  7 active torsions:
REMARK  status: ('A' for Active; 'I' for Inactive)
REMARK    1  A    between atoms: O_3  and  C_15
REMARK    2  A    between atoms: O_3  and  C_19
REMARK    3  A    between atoms: O_7  and  C_34
REMARK    4  A    between atoms: O_7  and  C_36
REMARK    5  A    between atoms: N_8  and  C_14
REMARK    6  A    between atoms: N_11  and  C_23
REMARK    7  A    between atoms: C_20  and  C_24
REMARK                            x       y       z     vdW  Elec       q    Type
REMARK                         _______ _______ _______ _____ _____    ______ ____
ROOT
ATOM      1  O   UNL     1      14.576   7.983  17.387  0.00  0.00    -0.368 OA
ATOM      2  O   UNL     1      11.855   9.161  18.174  0.00  0.00    -0.368 OA
ATOM     12  C   UNL     1      13.123   9.788  17.892  0.00  0.00    +0.173 C 
ATOM     13  C   UNL     1      14.197   8.875  18.448  0.00  0.00    +0.192 C 
ATOM     14  C   UNL     1      13.380   9.789  16.403  0.00  0.00    +0.130 C 
ATOM     15  C   UNL     1      13.470   8.150  19.555  0.00  0.00    +0.235 C 
ATOM     16  C   UNL     1      13.936   8.397  16.169  0.00  0.00    +0.185 C 
ATOM     17  C   UNL     1      12.082   7.991  18.974  0.00  0.00    +0.207 C 
ENDROOT
BRANCH  14   8
ATOM      8  N   UNL     1      14.370  10.790  16.066  0.00  0.00    -0.306 N 
ATOM      9  N   UNL     1      13.165  11.494  14.210  0.00  0.00    -0.214 NA
ATOM     10  N   UNL     1      15.266  12.516  14.797  0.00  0.00    -0.223 NA
ATOM     18  C   UNL     1      14.262  11.637  14.977  0.00  0.00    +0.216 A 
ATOM     20  C   UNL     1      13.093  12.335  13.157  0.00  0.00    +0.076 A 
ATOM     21  C   UNL     1      15.129  13.326  13.727  0.00  0.00    +0.116 A 
ATOM     22  C   UNL     1      14.054  13.281  12.864  0.00  0.00    +0.048 A 
ATOM     42  H   UNL     1      15.167  10.927  16.677  0.00  0.00    +0.149 HD
BRANCH  20  24
ATOM      5  O   UNL     1      10.827  11.912   8.840  0.00  0.00    -0.453 OA
ATOM      6  O   UNL     1       8.655  11.766   9.876  0.00  0.00    -0.453 OA
ATOM     24  C   UNL     1      11.917  12.186  12.333  0.00  0.00    +0.004 A 
ATOM     27  C   UNL     1      12.047  12.127  10.943  0.00  0.00    +0.059 A 
ATOM     28  C   UNL     1      10.650  12.101  12.938  0.00  0.00    +0.014 A 
ATOM     29  C   UNL     1      10.895  11.985  10.198  0.00  0.00    +0.167 A 
ATOM     30  C   UNL     1       9.499  11.957  12.159  0.00  0.00    +0.050 A 
ATOM     31  C   UNL     1       9.655  11.902  10.789  0.00  0.00    +0.166 A 
ATOM     35  C   UNL     1       9.404  11.772   8.644  0.00  0.00    +0.466 C 
ENDBRANCH  20  24
ENDBRANCH  14   8
BRANCH  15   3
ATOM      3  O   UNL     1      14.048   6.909  19.890  0.00  0.00    -0.442 OA
BRANCH   3  19
ATOM      4  O   UNL     1      15.210   7.174  21.842  0.00  0.00    -0.226 OA
ATOM     11  N   UNL     1      16.291   6.681  19.825  0.00  0.00    -0.251 N 
ATOM     19  C   UNL     1      15.207   6.943  20.639  0.00  0.00    +0.405 C 
ATOM     43  H   UNL     1      16.086   6.510  18.844  0.00  0.00    +0.158 HD
BRANCH  11  23
ATOM     23  C   UNL     1      17.656   6.619  20.188  0.00  0.00    +0.037 A 
ATOM     25  C   UNL     1      18.435   5.531  19.794  0.00  0.00    +0.027 A 
ATOM     26  C   UNL     1      18.224   7.647  20.942  0.00  0.00    +0.027 A 
ATOM     32  C   UNL     1      19.780   5.469  20.154  0.00  0.00    +0.048 A 
ATOM     33  C   UNL     1      19.570   7.584  21.302  0.00  0.00    +0.048 A 
ATOM     34  C   UNL     1      20.348   6.496  20.908  0.00  0.00    +0.129 A 
BRANCH  34   7
ATOM      7  O   UNL     1      21.661   6.434  21.261  0.00  0.00    -0.456 OA
BRANCH   7  36
ATOM     36  C   UNL     1      22.156   5.215  21.694  0.00  0.00    +0.128 A 
ATOM     37  C   UNL     1      22.057   4.860  23.039  0.00  0.00    +0.046 A 
ATOM     38  C   UNL     1      22.753   4.343  20.784  0.00  0.00    +0.046 A 
ATOM     39  C   UNL     1      22.557   3.633  23.475  0.00  0.00    +0.004 A 
ATOM     40  C   UNL     1      23.252   3.115  21.220  0.00  0.00    +0.004 A 
ATOM     41  C   UNL     1      23.154   2.761  22.566  0.00  0.00    +0.000 A 
ENDBRANCH   7  36
ENDBRANCH  34   7
ENDBRANCH  11  23
ENDBRANCH   3  19
ENDBRANCH  15   3
TORSDOF 7
ENDMDL
MODEL 8
REMARK VINA RESULT:      -7.8      4.575      7.009
REMARK  Name = 11913101
REMARK  7 active torsions:
REMARK  status: ('A' for Active; 'I' for Inactive)
REMARK    1  A    between atoms: O_3  and  C_15
REMARK    2  A    between atoms: O_3  and  C_19
REMARK    3  A    between atoms: O_7  and  C_34
REMARK    4  A    between atoms: O_7  and  C_36
REMARK    5  A    between atoms: N_8  and  C_14
REMARK    6  A    between atoms: N_11  and  C_23
REMARK    7  A    between atoms: C_20  and  C_24
REMARK                            x       y       z     vdW  Elec       q    Type
REMARK                         _______ _______ _______ _____ _____    ______ ____
ROOT
ATOM      1  O   UNL     1      -4.976  -8.718   9.267  0.00  0.00    -0.368 OA
ATOM      2  O   UNL     1      -6.798 -11.096   9.927  0.00  0.00    -0.368 OA
ATOM     12  C   UNL     1      -5.369 -10.929  10.030  0.00  0.00    +0.173 C 
ATOM     13  C   UNL     1      -4.939 -10.090   8.844  0.00  0.00    +0.192 C 
ATOM     14  C   UNL     1      -5.035 -10.068  11.226  0.00  0.00    +0.130 C 
ATOM     15  C   UNL     1      -6.011 -10.390   7.824  0.00  0.00    +0.235 C 
ATOM     16  C   UNL     1      -5.230  -8.665  10.680  0.00  0.00    +0.185 C 
ATOM     17  C   UNL     1      -7.245 -10.522   8.690  0.00  0.00    +0.207 C 
ENDROOT
BRANCH  14   8
ATOM      8  N   UNL     1      -3.655 -10.267  11.617  0.00  0.00    -0.306 N 
ATOM      9  N   UNL     1      -4.217 -10.430  13.865  0.00  0.00    -0.214 NA
ATOM     10  N   UNL     1      -1.930 -10.623  13.131  0.00  0.00    -0.223 NA
ATOM     18  C   UNL     1      -3.250 -10.448  12.928  0.00  0.00    +0.216 A 
ATOM     20  C   UNL     1      -3.787 -10.608  15.131  0.00  0.00    +0.076 A 
ATOM     21  C   UNL     1      -1.570 -10.796  14.419  0.00  0.00    +0.116 A 
ATOM     22  C   UNL     1      -2.463 -10.798  15.471  0.00  0.00    +0.048 A 
ATOM     42  H   UNL     1      -2.940 -10.331  10.902  0.00  0.00    +0.149 HD
BRANCH  20  24
ATOM      5  O   UNL     1      -5.805 -12.118  19.326  0.00  0.00    -0.453 OA
ATOM      6  O   UNL     1      -7.692 -10.641  19.071  0.00  0.00    -0.453 OA
ATOM     24  C   UNL     1      -4.820 -10.591  16.138  0.00  0.00    +0.004 A 
ATOM     27  C   UNL     1      -4.719 -11.430  17.251  0.00  0.00    +0.059 A 
ATOM     28  C   UNL     1      -5.922  -9.729  15.989  0.00  0.00    +0.014 A 
ATOM     29  C   UNL     1      -5.732 -11.378  18.185  0.00  0.00    +0.167 A 
ATOM     30  C   UNL     1      -6.934  -9.696  16.952  0.00  0.00    +0.050 A 
ATOM     31  C   UNL     1      -6.810 -10.535  18.041  0.00  0.00    +0.166 A 
ATOM     35  C   UNL     1      -7.049 -11.645  19.882  0.00  0.00    +0.466 C 
ENDBRANCH  20  24
ENDBRANCH  14   8
BRANCH  15   3
ATOM      3  O   UNL     1      -6.156  -9.386   6.846  0.00  0.00    -0.442 OA
BRANCH   3  19
ATOM      4  O   UNL     1      -5.781 -10.762   5.059  0.00  0.00    -0.226 OA
ATOM     11  N   UNL     1      -7.304  -8.989   4.946  0.00  0.00    -0.251 N 
ATOM     19  C   UNL     1      -6.366  -9.804   5.548  0.00  0.00    +0.405 C 
ATOM     43  H   UNL     1      -7.683  -8.239   5.519  0.00  0.00    +0.158 HD
BRANCH  11  23
ATOM     23  C   UNL     1      -7.808  -9.069   3.627  0.00  0.00    +0.037 A 
ATOM     25  C   UNL     1      -7.784  -7.945   2.802  0.00  0.00    +0.027 A 
ATOM     26  C   UNL     1      -8.330 -10.273   3.153  0.00  0.00    +0.027 A 
ATOM     32  C   UNL     1      -8.283  -8.024   1.502  0.00  0.00    +0.048 A 
ATOM     33  C   UNL     1      -8.829 -10.351   1.852  0.00  0.00    +0.048 A 
ATOM     34  C   UNL     1      -8.805  -9.227   1.027  0.00  0.00    +0.129 A 
BRANCH  34   7
ATOM      7  O   UNL     1      -9.294  -9.303  -0.241  0.00  0.00    -0.456 OA
BRANCH   7  36
ATOM     36  C   UNL     1      -8.421  -9.688  -1.245  0.00  0.00    +0.128 A 
ATOM     37  C   UNL     1      -7.461  -8.792  -1.717  0.00  0.00    +0.046 A 
ATOM     38  C   UNL     1      -8.503 -10.971  -1.785  0.00  0.00    +0.046 A 
ATOM     39  C   UNL     1      -6.584  -9.180  -2.729  0.00  0.00    +0.004 A 
ATOM     40  C   UNL     1      -7.626 -11.359  -2.798  0.00  0.00    +0.004 A 
ATOM     41  C   UNL     1      -6.665 -10.463  -3.270  0.00  0.00    +0.000 A 
ENDBRANCH   7  36
ENDBRANCH  34   7
ENDBRANCH  11  23
ENDBRANCH   3  19
ENDBRANCH  15   3
TORSDOF 7
ENDMDL
MODEL 9
REMARK VINA RESULT:      -7.7     28.597     32.931
REMARK  Name = 11913101
REMARK  7 active torsions:
REMARK  status: ('A' for Active; 'I' for Inactive)
REMARK    1  A    between atoms: O_3  and  C_15
REMARK    2  A    between atoms: O_3  and  C_19
REMARK    3  A    between atoms: O_7  and  C_34
REMARK    4  A    between atoms: O_7  and  C_36
REMARK    5  A    between atoms: N_8  and  C_14
REMARK    6  A    between atoms: N_11  and  C_23
REMARK    7  A    between atoms: C_20  and  C_24
REMARK                            x       y       z     vdW  Elec       q    Type
REMARK                         _______ _______ _______ _____ _____    ______ ____
ROOT
ATOM      1  O   UNL     1      11.718  12.820  24.934  0.00  0.00    -0.368 OA
ATOM      2  O   UNL     1      14.283  12.236  23.355  0.00  0.00    -0.368 OA
ATOM     12  C   UNL     1      13.130  11.419  23.641  0.00  0.00    +0.173 C 
ATOM     13  C   UNL     1      12.686  11.765  25.049  0.00  0.00    +0.192 C 
ATOM     14  C   UNL     1      11.966  11.845  22.778  0.00  0.00    +0.130 C 
ATOM     15  C   UNL     1      13.967  12.247  25.687  0.00  0.00    +0.235 C 
ATOM     16  C   UNL     1      11.407  13.028  23.547  0.00  0.00    +0.185 C 
ATOM     17  C   UNL     1      14.644  12.963  24.539  0.00  0.00    +0.207 C 
ENDROOT
BRANCH  14   8
ATOM      8  N   UNL     1      10.983  10.785  22.701  0.00  0.00    -0.306 N 
ATOM      9  N   UNL     1      12.559   9.248  21.962  0.00  0.00    -0.214 NA
ATOM     10  N   UNL     1      10.255   8.620  22.279  0.00  0.00    -0.223 NA
ATOM     18  C   UNL     1      11.278   9.495  22.297  0.00  0.00    +0.216 A 
ATOM     20  C   UNL     1      12.812   7.981  21.572  0.00  0.00    +0.076 A 
ATOM     21  C   UNL     1      10.578   7.373  21.880  0.00  0.00    +0.116 A 
ATOM     22  C   UNL     1      11.851   6.992  21.512  0.00  0.00    +0.048 A 
ATOM     42  H   UNL     1      10.033  10.965  23.004  0.00  0.00    +0.149 HD
BRANCH  20  24
ATOM      5  O   UNL     1      16.261   5.697  18.958  0.00  0.00    -0.453 OA
ATOM      6  O   UNL     1      18.040   6.852  20.101  0.00  0.00    -0.453 OA
ATOM     24  C   UNL     1      14.183   7.712  21.213  0.00  0.00    +0.004 A 
ATOM     27  C   UNL     1      14.469   6.784  20.208  0.00  0.00    +0.059 A 
ATOM     28  C   UNL     1      15.222   8.386  21.881  0.00  0.00    +0.014 A 
ATOM     29  C   UNL     1      15.795   6.560  19.902  0.00  0.00    +0.167 A 
ATOM     30  C   UNL     1      16.557   8.140  21.550  0.00  0.00    +0.050 A 
ATOM     31  C   UNL     1      16.811   7.219  20.554  0.00  0.00    +0.166 A 
ATOM     35  C   UNL     1      17.685   5.888  19.090  0.00  0.00    +0.466 C 
ENDBRANCH  20  24
ENDBRANCH  14   8
BRANCH  15   3
ATOM      3  O   UNL     1      13.760  13.097  26.792  0.00  0.00    -0.442 OA
BRANCH   3  19
ATOM      4  O   UNL     1      14.800  13.741  28.724  0.00  0.00    -0.226 OA
ATOM     11  N   UNL     1      14.923  11.540  27.938  0.00  0.00    -0.251 N 
ATOM     19  C   UNL     1      14.533  12.865  27.911  0.00  0.00    +0.405 C 
ATOM     43  H   UNL     1      14.597  10.960  27.168  0.00  0.00    +0.158 HD
BRANCH  11  23
ATOM     23  C   UNL     1      15.718  10.886  28.906  0.00  0.00    +0.037 A 
ATOM     25  C   UNL     1      17.083  10.708  28.684  0.00  0.00    +0.027 A 
ATOM     26  C   UNL     1      15.136  10.418  30.085  0.00  0.00    +0.027 A 
ATOM     32  C   UNL     1      17.867  10.061  29.639  0.00  0.00    +0.048 A 
ATOM     33  C   UNL     1      15.921   9.770  31.040  0.00  0.00    +0.048 A 
ATOM     34  C   UNL     1      17.286   9.592  30.817  0.00  0.00    +0.129 A 
BRANCH  34   7
ATOM      7  O   UNL     1      18.051   8.959  31.748  0.00  0.00    -0.456 OA
BRANCH   7  36
ATOM     36  C   UNL     1      17.751   7.638  32.038  0.00  0.00    +0.128 A 
ATOM     37  C   UNL     1      17.525   6.731  31.003  0.00  0.00    +0.046 A 
ATOM     38  C   UNL     1      17.675   7.217  33.365  0.00  0.00    +0.046 A 
ATOM     39  C   UNL     1      17.222   5.401  31.296  0.00  0.00    +0.004 A 
ATOM     40  C   UNL     1      17.372   5.887  33.658  0.00  0.00    +0.004 A 
ATOM     41  C   UNL     1      17.146   4.979  32.623  0.00  0.00    +0.000 A 
ENDBRANCH   7  36
ENDBRANCH  34   7
ENDBRANCH  11  23
ENDBRANCH   3  19
ENDBRANCH  15   3
TORSDOF 7
ENDMDL
MODEL 10
REMARK VINA RESULT:      -7.6     28.649     32.900
REMARK  Name = 11913101
REMARK  7 active torsions:
REMARK  status: ('A' for Active; 'I' for Inactive)
REMARK    1  A    between atoms: O_3  and  C_15
REMARK    2  A    between atoms: O_3  and  C_19
REMARK    3  A    between atoms: O_7  and  C_34
REMARK    4  A    between atoms: O_7  and  C_36
REMARK    5  A    between atoms: N_8  and  C_14
REMARK    6  A    between atoms: N_11  and  C_23
REMARK    7  A    between atoms: C_20  and  C_24
REMARK                            x       y       z     vdW  Elec       q    Type
REMARK                         _______ _______ _______ _____ _____    ______ ____
ROOT
ATOM      1  O   UNL     1      11.008  13.002  25.486  0.00  0.00    -0.368 OA
ATOM      2  O   UNL     1      13.098  13.322  23.262  0.00  0.00    -0.368 OA
ATOM     12  C   UNL     1      12.453  12.153  23.808  0.00  0.00    +0.173 C 
ATOM     13  C   UNL     1      12.295  12.393  25.296  0.00  0.00    +0.192 C 
ATOM     14  C   UNL     1      11.033  12.061  23.301  0.00  0.00    +0.130 C 
ATOM     15  C   UNL     1      13.419  13.356  25.594  0.00  0.00    +0.235 C 
ATOM     16  C   UNL     1      10.291  12.995  24.240  0.00  0.00    +0.185 C 
ATOM     17  C   UNL     1      13.454  14.202  24.340  0.00  0.00    +0.207 C 
ENDROOT
BRANCH  14   8
ATOM      8  N   UNL     1      10.536  10.708  23.441  0.00  0.00    -0.306 N 
ATOM      9  N   UNL     1      11.491  10.048  21.429  0.00  0.00    -0.214 NA
ATOM     10  N   UNL     1      10.238   8.500  22.785  0.00  0.00    -0.223 NA
ATOM     18  C   UNL     1      10.765   9.708  22.512  0.00  0.00    +0.216 A 
ATOM     20  C   UNL     1      11.694   9.051  20.544  0.00  0.00    +0.076 A 
ATOM     21  C   UNL     1      10.480   7.550  21.859  0.00  0.00    +0.116 A 
ATOM     22  C   UNL     1      11.208   7.769  20.708  0.00  0.00    +0.048 A 
ATOM     42  H   UNL     1      10.036  10.447  24.282  0.00  0.00    +0.149 HD
BRANCH  20  24
ATOM      5  O   UNL     1      13.555   8.167  16.105  0.00  0.00    -0.453 OA
ATOM      6  O   UNL     1      14.658  10.308  16.026  0.00  0.00    -0.453 OA
ATOM     24  C   UNL     1      12.472   9.410  19.383  0.00  0.00    +0.004 A 
ATOM     27  C   UNL     1      12.581   8.515  18.316  0.00  0.00    +0.059 A 
ATOM     28  C   UNL     1      13.117  10.660  19.337  0.00  0.00    +0.014 A 
ATOM     29  C   UNL     1      13.337   8.903  17.229  0.00  0.00    +0.167 A 
ATOM     30  C   UNL     1      13.876  11.028  18.224  0.00  0.00    +0.050 A 
ATOM     31  C   UNL     1      13.967  10.125  17.184  0.00  0.00    +0.166 A 
ATOM     35  C   UNL     1      14.393   9.064  15.347  0.00  0.00    +0.466 C 
ENDBRANCH  20  24
ENDBRANCH  14   8
BRANCH  15   3
ATOM      3  O   UNL     1      13.204  14.133  26.750  0.00  0.00    -0.442 OA
BRANCH   3  19
ATOM      4  O   UNL     1      14.363  14.739  28.626  0.00  0.00    -0.226 OA
ATOM     11  N   UNL     1      14.322  12.524  27.867  0.00  0.00    -0.251 N 
ATOM     19  C   UNL     1      14.010  13.869  27.838  0.00  0.00    +0.405 C 
ATOM     43  H   UNL     1      13.930  11.955  27.121  0.00  0.00    +0.158 HD
BRANCH  11  23
ATOM     23  C   UNL     1      15.119  11.837  28.811  0.00  0.00    +0.037 A 
ATOM     25  C   UNL     1      16.264  11.158  28.395  0.00  0.00    +0.027 A 
ATOM     26  C   UNL     1      14.758  11.835  30.159  0.00  0.00    +0.027 A 
ATOM     32  C   UNL     1      17.049  10.478  29.326  0.00  0.00    +0.048 A 
ATOM     33  C   UNL     1      15.543  11.154  31.090  0.00  0.00    +0.048 A 
ATOM     34  C   UNL     1      16.688  10.476  30.673  0.00  0.00    +0.129 A 
BRANCH  34   7
ATOM      7  O   UNL     1      17.454   9.811  31.581  0.00  0.00    -0.456 OA
BRANCH   7  36
ATOM     36  C   UNL     1      17.706   8.469  31.350  0.00  0.00    +0.128 A 
ATOM     37  C   UNL     1      16.681   7.533  31.483  0.00  0.00    +0.046 A 
ATOM     38  C   UNL     1      18.987   8.054  30.987  0.00  0.00    +0.046 A 
ATOM     39  C   UNL     1      16.936   6.182  31.252  0.00  0.00    +0.004 A 
ATOM     40  C   UNL     1      19.243   6.702  30.756  0.00  0.00    +0.004 A 
ATOM     41  C   UNL     1      18.217   5.766  30.889  0.00  0.00    +0.000 A 
ENDBRANCH   7  36
ENDBRANCH  34   7
ENDBRANCH  11  23
ENDBRANCH   3  19
ENDBRANCH  15   3
TORSDOF 7
ENDMDL
