MODEL 1
REMARK VINA RESULT:      -7.6      0.000      0.000
REMARK  Name = 75536302
REMARK  9 active torsions:
REMARK  status: ('A' for Active; 'I' for Inactive)
REMARK    1  A    between atoms: O_2  and  C_10
REMARK    2  A    between atoms: O_5  and  C_27
REMARK    3  A    between atoms: O_5  and  C_31
REMARK    4  A    between atoms: N_6  and  C_14
REMARK    5  A    between atoms: C_8  and  C_14
REMARK    6  A    between atoms: C_9  and  C_13
REMARK    7  A    between atoms: C_13  and  C_15
REMARK    8  A    between atoms: C_17  and  C_19
REMARK    9  A    between atoms: C_18  and  C_20
REMARK                            x       y       z     vdW  Elec       q    Type
REMARK                         _______ _______ _______ _____ _____    ______ ____
ROOT
ATOM      1  O   UNL     1     -16.091   1.994  25.048  0.00  0.00    -0.369 OA
ATOM      8  C   UNL     1     -16.011   2.990  24.019  0.00  0.00    +0.164 C 
ATOM      9  C   UNL     1     -17.271   2.045  25.853  0.00  0.00    +0.125 C 
ATOM     10  C   UNL     1     -17.239   2.945  23.102  0.00  0.00    +0.145 C 
ATOM     11  C   UNL     1     -18.520   1.885  24.988  0.00  0.00    +0.034 C 
ATOM     12  C   UNL     1     -18.550   2.938  23.885  0.00  0.00    +0.036 C 
ENDROOT
BRANCH  10   2
ATOM      2  O   UNL     1     -17.191   1.747  22.324  0.00  0.00    -0.389 OA
ATOM     32  H   UNL     1     -16.391   1.786  21.772  0.00  0.00    +0.210 HD
ENDBRANCH  10   2
BRANCH   9  13
ATOM     13  C   UNL     1     -17.174   0.922  26.879  0.00  0.00    +0.090 C 
BRANCH  13  15
ATOM      3  O   UNL     1     -15.125   1.160  29.835  0.00  0.00    -0.354 OA
ATOM      7  N   UNL     1     -15.707   0.443  28.796  0.00  0.00    -0.083 NA
ATOM     15  C   UNL     1     -16.400   1.347  28.098  0.00  0.00    +0.087 A 
ATOM     16  C   UNL     1     -16.294   2.638  28.644  0.00  0.00    +0.076 A 
ATOM     18  C   UNL     1     -15.482   2.465  29.733  0.00  0.00    +0.167 A 
BRANCH  18  20
ATOM     20  C   UNL     1     -14.952   3.335  30.742  0.00  0.00    +0.020 A 
ATOM     23  C   UNL     1     -13.920   2.893  31.571  0.00  0.00    +0.011 A 
ATOM     24  C   UNL     1     -15.466   4.622  30.895  0.00  0.00    +0.011 A 
ATOM     28  C   UNL     1     -13.403   3.738  32.553  0.00  0.00    +0.001 A 
ATOM     29  C   UNL     1     -14.949   5.468  31.877  0.00  0.00    +0.001 A 
ATOM     30  C   UNL     1     -13.918   5.026  32.706  0.00  0.00    +0.000 A 
ENDBRANCH  18  20
ENDBRANCH  13  15
ENDBRANCH   9  13
BRANCH   8  14
ATOM     14  C   UNL     1     -15.761   4.375  24.614  0.00  0.00    +0.138 C 
BRANCH  14   6
ATOM      4  O   UNL     1     -16.362   6.534  22.819  0.00  0.00    -0.270 OA
ATOM      6  N   UNL     1     -14.826   5.113  23.820  0.00  0.00    -0.309 N 
ATOM     17  C   UNL     1     -15.206   6.150  22.972  0.00  0.00    +0.244 C 
ATOM     33  H   UNL     1     -13.864   4.791  23.832  0.00  0.00    +0.149 HD
BRANCH  17  19
ATOM     19  C   UNL     1     -14.118   6.799  22.195  0.00  0.00    +0.037 A 
ATOM     21  C   UNL     1     -13.086   6.026  21.660  0.00  0.00    +0.016 A 
ATOM     22  C   UNL     1     -14.128   8.180  21.999  0.00  0.00    +0.016 A 
ATOM     25  C   UNL     1     -12.066   6.635  20.931  0.00  0.00    +0.046 A 
ATOM     26  C   UNL     1     -13.107   8.788  21.270  0.00  0.00    +0.046 A 
ATOM     27  C   UNL     1     -12.075   8.016  20.736  0.00  0.00    +0.120 A 
BRANCH  27   5
ATOM      5  O   UNL     1     -11.079   8.610  20.024  0.00  0.00    -0.495 OA
ATOM     31  C   UNL     1     -11.060   8.378  18.616  0.00  0.00    +0.277 C 
ENDBRANCH  27   5
ENDBRANCH  17  19
ENDBRANCH  14   6
ENDBRANCH   8  14
TORSDOF 8
ENDMDL
MODEL 2
REMARK VINA RESULT:      -7.4     19.747     22.081
REMARK  Name = 75536302
REMARK  9 active torsions:
REMARK  status: ('A' for Active; 'I' for Inactive)
REMARK    1  A    between atoms: O_2  and  C_10
REMARK    2  A    between atoms: O_5  and  C_27
REMARK    3  A    between atoms: O_5  and  C_31
REMARK    4  A    between atoms: N_6  and  C_14
REMARK    5  A    between atoms: C_8  and  C_14
REMARK    6  A    between atoms: C_9  and  C_13
REMARK    7  A    between atoms: C_13  and  C_15
REMARK    8  A    between atoms: C_17  and  C_19
REMARK    9  A    between atoms: C_18  and  C_20
REMARK                            x       y       z     vdW  Elec       q    Type
REMARK                         _______ _______ _______ _____ _____    ______ ____
ROOT
ATOM      1  O   UNL     1      -4.925  -9.134  11.458  0.00  0.00    -0.369 OA
ATOM      8  C   UNL     1      -6.257  -9.002  10.944  0.00  0.00    +0.164 C 
ATOM      9  C   UNL     1      -4.140 -10.166  10.857  0.00  0.00    +0.125 C 
ATOM     10  C   UNL     1      -6.251  -8.797   9.424  0.00  0.00    +0.145 C 
ATOM     11  C   UNL     1      -4.009  -9.935   9.353  0.00  0.00    +0.034 C 
ATOM     12  C   UNL     1      -5.385  -9.827   8.702  0.00  0.00    +0.036 C 
ENDROOT
BRANCH  10   2
ATOM      2  O   UNL     1      -5.718  -7.502   9.135  0.00  0.00    -0.389 OA
ATOM     32  H   UNL     1      -6.118  -6.873   9.760  0.00  0.00    +0.210 HD
ENDBRANCH  10   2
BRANCH   9  13
ATOM     13  C   UNL     1      -2.773 -10.152  11.529  0.00  0.00    +0.090 C 
BRANCH  13  15
ATOM      3  O   UNL     1      -2.282 -10.619  15.069  0.00  0.00    -0.354 OA
ATOM      7  N   UNL     1      -1.880 -10.155  13.823  0.00  0.00    -0.083 NA
ATOM     15  C   UNL     1      -2.867 -10.499  12.991  0.00  0.00    +0.087 A 
ATOM     16  C   UNL     1      -3.908 -11.176  13.649  0.00  0.00    +0.076 A 
ATOM     18  C   UNL     1      -3.491 -11.225  14.953  0.00  0.00    +0.167 A 
BRANCH  18  20
ATOM     20  C   UNL     1      -4.040 -11.755  16.167  0.00  0.00    +0.020 A 
ATOM     23  C   UNL     1      -4.598 -13.034  16.180  0.00  0.00    +0.011 A 
ATOM     24  C   UNL     1      -4.014 -10.994  17.336  0.00  0.00    +0.011 A 
ATOM     28  C   UNL     1      -5.131 -13.551  17.360  0.00  0.00    +0.001 A 
ATOM     29  C   UNL     1      -4.548 -11.511  18.517  0.00  0.00    +0.001 A 
ATOM     30  C   UNL     1      -5.107 -12.789  18.529  0.00  0.00    +0.000 A 
ENDBRANCH  18  20
ENDBRANCH  13  15
ENDBRANCH   9  13
BRANCH   8  14
ATOM     14  C   UNL     1      -7.135 -10.172  11.385  0.00  0.00    +0.138 C 
BRANCH  14   6
ATOM      4  O   UNL     1      -7.198 -12.443  13.139  0.00  0.00    -0.270 OA
ATOM      6  N   UNL     1      -7.343 -10.153  12.801  0.00  0.00    -0.309 N 
ATOM     17  C   UNL     1      -7.358 -11.307  13.579  0.00  0.00    +0.244 C 
ATOM     33  H   UNL     1      -7.569  -9.255  13.216  0.00  0.00    +0.149 HD
BRANCH  17  19
ATOM     19  C   UNL     1      -7.613 -11.121  15.030  0.00  0.00    +0.037 A 
ATOM     21  C   UNL     1      -8.217 -12.139  15.769  0.00  0.00    +0.016 A 
ATOM     22  C   UNL     1      -7.249  -9.928  15.656  0.00  0.00    +0.016 A 
ATOM     25  C   UNL     1      -8.456 -11.964  17.132  0.00  0.00    +0.046 A 
ATOM     26  C   UNL     1      -7.488  -9.754  17.018  0.00  0.00    +0.046 A 
ATOM     27  C   UNL     1      -8.093 -10.770  17.756  0.00  0.00    +0.120 A 
BRANCH  27   5
ATOM      5  O   UNL     1      -8.326 -10.600  19.086  0.00  0.00    -0.495 OA
ATOM     31  C   UNL     1      -9.655 -10.839  19.548  0.00  0.00    +0.277 C 
ENDBRANCH  27   5
ENDBRANCH  17  19
ENDBRANCH  14   6
ENDBRANCH   8  14
TORSDOF 8
ENDMDL
MODEL 3
REMARK VINA RESULT:      -7.3     30.711     35.824
REMARK  Name = 75536302
REMARK  9 active torsions:
REMARK  status: ('A' for Active; 'I' for Inactive)
REMARK    1  A    between atoms: O_2  and  C_10
REMARK    2  A    between atoms: O_5  and  C_27
REMARK    3  A    between atoms: O_5  and  C_31
REMARK    4  A    between atoms: N_6  and  C_14
REMARK    5  A    between atoms: C_8  and  C_14
REMARK    6  A    between atoms: C_9  and  C_13
REMARK    7  A    between atoms: C_13  and  C_15
REMARK    8  A    between atoms: C_17  and  C_19
REMARK    9  A    between atoms: C_18  and  C_20
REMARK                            x       y       z     vdW  Elec       q    Type
REMARK                         _______ _______ _______ _____ _____    ______ ____
ROOT
ATOM      1  O   UNL     1      11.390   6.273   6.463  0.00  0.00    -0.369 OA
ATOM      8  C   UNL     1      10.355   5.321   6.743  0.00  0.00    +0.164 C 
ATOM      9  C   UNL     1      10.961   7.635   6.396  0.00  0.00    +0.125 C 
ATOM     10  C   UNL     1       9.611   5.670   8.038  0.00  0.00    +0.145 C 
ATOM     11  C   UNL     1      10.316   8.062   7.714  0.00  0.00    +0.034 C 
ATOM     12  C   UNL     1       9.164   7.129   8.077  0.00  0.00    +0.036 C 
ENDROOT
BRANCH  10   2
ATOM      2  O   UNL     1      10.487   5.453   9.147  0.00  0.00    -0.389 OA
ATOM     32  H   UNL     1      11.210   4.878   8.843  0.00  0.00    +0.210 HD
ENDBRANCH  10   2
BRANCH   9  13
ATOM     13  C   UNL     1      12.186   8.487   6.091  0.00  0.00    +0.090 C 
BRANCH  13  15
ATOM      3  O   UNL     1      14.635   6.953   3.936  0.00  0.00    -0.354 OA
ATOM      7  N   UNL     1      14.178   7.362   5.183  0.00  0.00    -0.083 NA
ATOM     15  C   UNL     1      12.988   7.922   4.949  0.00  0.00    +0.087 A 
ATOM     16  C   UNL     1      12.645   7.897   3.586  0.00  0.00    +0.076 A 
ATOM     18  C   UNL     1      13.713   7.278   2.993  0.00  0.00    +0.167 A 
BRANCH  18  20
ATOM     20  C   UNL     1      14.046   6.913   1.647  0.00  0.00    +0.020 A 
ATOM     23  C   UNL     1      15.116   6.051   1.403  0.00  0.00    +0.011 A 
ATOM     24  C   UNL     1      13.302   7.420   0.582  0.00  0.00    +0.011 A 
ATOM     28  C   UNL     1      15.441   5.696   0.094  0.00  0.00    +0.001 A 
ATOM     29  C   UNL     1      13.627   7.065  -0.728  0.00  0.00    +0.001 A 
ATOM     30  C   UNL     1      14.696   6.203  -0.972  0.00  0.00    +0.000 A 
ENDBRANCH  18  20
ENDBRANCH  13  15
ENDBRANCH   9  13
BRANCH   8  14
ATOM     14  C   UNL     1       9.422   5.154   5.545  0.00  0.00    +0.138 C 
BRANCH  14   6
ATOM      4  O   UNL     1       9.592   6.435   2.982  0.00  0.00    -0.270 OA
ATOM      6  N   UNL     1      10.138   4.681   4.399  0.00  0.00    -0.309 N 
ATOM     17  C   UNL     1      10.168   5.370   3.189  0.00  0.00    +0.244 C 
ATOM     33  H   UNL     1      10.564   3.764   4.474  0.00  0.00    +0.149 HD
BRANCH  17  19
ATOM     19  C   UNL     1      10.934   4.734   2.087  0.00  0.00    +0.037 A 
ATOM     21  C   UNL     1      12.043   3.937   2.377  0.00  0.00    +0.016 A 
ATOM     22  C   UNL     1      10.545   4.931   0.762  0.00  0.00    +0.016 A 
ATOM     25  C   UNL     1      12.762   3.340   1.343  0.00  0.00    +0.046 A 
ATOM     26  C   UNL     1      11.265   4.333  -0.272  0.00  0.00    +0.046 A 
ATOM     27  C   UNL     1      12.373   3.538   0.018  0.00  0.00    +0.120 A 
BRANCH  27   5
ATOM      5  O   UNL     1      13.075   2.955  -0.992  0.00  0.00    -0.495 OA
ATOM     31  C   UNL     1      12.687   3.280  -2.326  0.00  0.00    +0.277 C 
ENDBRANCH  27   5
ENDBRANCH  17  19
ENDBRANCH  14   6
ENDBRANCH   8  14
TORSDOF 8
ENDMDL
MODEL 4
REMARK VINA RESULT:      -7.2      4.937      9.089
REMARK  Name = 75536302
REMARK  9 active torsions:
REMARK  status: ('A' for Active; 'I' for Inactive)
REMARK    1  A    between atoms: O_2  and  C_10
REMARK    2  A    between atoms: O_5  and  C_27
REMARK    3  A    between atoms: O_5  and  C_31
REMARK    4  A    between atoms: N_6  and  C_14
REMARK    5  A    between atoms: C_8  and  C_14
REMARK    6  A    between atoms: C_9  and  C_13
REMARK    7  A    between atoms: C_13  and  C_15
REMARK    8  A    between atoms: C_17  and  C_19
REMARK    9  A    between atoms: C_18  and  C_20
REMARK                            x       y       z     vdW  Elec       q    Type
REMARK                         _______ _______ _______ _____ _____    ______ ____
ROOT
ATOM      1  O   UNL     1     -14.854   4.891  21.260  0.00  0.00    -0.369 OA
ATOM      8  C   UNL     1     -16.254   4.800  21.556  0.00  0.00    +0.164 C 
ATOM      9  C   UNL     1     -14.075   5.615  22.216  0.00  0.00    +0.125 C 
ATOM     10  C   UNL     1     -16.492   4.198  22.946  0.00  0.00    +0.145 C 
ATOM     11  C   UNL     1     -14.191   4.976  23.598  0.00  0.00    +0.034 C 
ATOM     12  C   UNL     1     -15.652   4.877  24.026  0.00  0.00    +0.036 C 
ENDROOT
BRANCH  10   2
ATOM      2  O   UNL     1     -16.129   2.815  22.919  0.00  0.00    -0.389 OA
ATOM     32  H   UNL     1     -15.665   2.615  23.749  0.00  0.00    +0.210 HD
ENDBRANCH  10   2
BRANCH   9  13
ATOM     13  C   UNL     1     -12.631   5.604  21.732  0.00  0.00    +0.090 C 
BRANCH  13  15
ATOM      3  O   UNL     1     -12.103   9.019  20.705  0.00  0.00    -0.354 OA
ATOM      7  N   UNL     1     -12.571   8.061  21.596  0.00  0.00    -0.083 NA
ATOM     15  C   UNL     1     -12.267   6.888  21.034  0.00  0.00    +0.087 A 
ATOM     16  C   UNL     1     -11.614   7.041  19.799  0.00  0.00    +0.076 A 
ATOM     18  C   UNL     1     -11.536   8.399  19.639  0.00  0.00    +0.167 A 
BRANCH  18  20
ATOM     20  C   UNL     1     -11.002   9.265  18.629  0.00  0.00    +0.020 A 
ATOM     23  C   UNL     1     -10.707   8.760  17.362  0.00  0.00    +0.011 A 
ATOM     24  C   UNL     1     -10.777  10.612  18.911  0.00  0.00    +0.011 A 
ATOM     28  C   UNL     1     -10.188   9.602  16.378  0.00  0.00    +0.001 A 
ATOM     29  C   UNL     1     -10.258  11.455  17.927  0.00  0.00    +0.001 A 
ATOM     30  C   UNL     1      -9.963  10.949  16.661  0.00  0.00    +0.000 A 
ENDBRANCH  18  20
ENDBRANCH  13  15
ENDBRANCH   9  13
BRANCH   8  14
ATOM     14  C   UNL     1     -16.946   6.149  21.364  0.00  0.00    +0.138 C 
BRANCH  14   6
ATOM      4  O   UNL     1     -16.025   8.862  21.530  0.00  0.00    -0.270 OA
ATOM      6  N   UNL     1     -16.318   6.903  20.322  0.00  0.00    -0.309 N 
ATOM     17  C   UNL     1     -15.900   8.221  20.490  0.00  0.00    +0.244 C 
ATOM     33  H   UNL     1     -16.262   6.463  19.410  0.00  0.00    +0.149 HD
BRANCH  17  19
ATOM     19  C   UNL     1     -15.290   8.875  19.304  0.00  0.00    +0.037 A 
ATOM     21  C   UNL     1     -14.979   8.118  18.173  0.00  0.00    +0.016 A 
ATOM     22  C   UNL     1     -15.028  10.246  19.319  0.00  0.00    +0.016 A 
ATOM     25  C   UNL     1     -14.406   8.732  17.059  0.00  0.00    +0.046 A 
ATOM     26  C   UNL     1     -14.456  10.858  18.205  0.00  0.00    +0.046 A 
ATOM     27  C   UNL     1     -14.144  10.102  17.076  0.00  0.00    +0.120 A 
BRANCH  27   5
ATOM      5  O   UNL     1     -13.585  10.701  15.988  0.00  0.00    -0.495 OA
ATOM     31  C   UNL     1     -14.221  11.881  15.498  0.00  0.00    +0.277 C 
ENDBRANCH  27   5
ENDBRANCH  17  19
ENDBRANCH  14   6
ENDBRANCH   8  14
TORSDOF 8
ENDMDL
MODEL 5
REMARK VINA RESULT:      -7.0     20.718     23.203
REMARK  Name = 75536302
REMARK  9 active torsions:
REMARK  status: ('A' for Active; 'I' for Inactive)
REMARK    1  A    between atoms: O_2  and  C_10
REMARK    2  A    between atoms: O_5  and  C_27
REMARK    3  A    between atoms: O_5  and  C_31
REMARK    4  A    between atoms: N_6  and  C_14
REMARK    5  A    between atoms: C_8  and  C_14
REMARK    6  A    between atoms: C_9  and  C_13
REMARK    7  A    between atoms: C_13  and  C_15
REMARK    8  A    between atoms: C_17  and  C_19
REMARK    9  A    between atoms: C_18  and  C_20
REMARK                            x       y       z     vdW  Elec       q    Type
REMARK                         _______ _______ _______ _____ _____    ______ ____
ROOT
ATOM      1  O   UNL     1      -4.295 -12.330  15.882  0.00  0.00    -0.369 OA
ATOM      8  C   UNL     1      -5.481 -12.970  16.372  0.00  0.00    +0.164 C 
ATOM      9  C   UNL     1      -3.850 -11.207  16.645  0.00  0.00    +0.125 C 
ATOM     10  C   UNL     1      -5.320 -13.398  17.835  0.00  0.00    +0.145 C 
ATOM     11  C   UNL     1      -3.563 -11.617  18.089  0.00  0.00    +0.034 C 
ATOM     12  C   UNL     1      -4.790 -12.270  18.717  0.00  0.00    +0.036 C 
ENDROOT
BRANCH  10   2
ATOM      2  O   UNL     1      -4.383 -14.477  17.900  0.00  0.00    -0.389 OA
ATOM     32  H   UNL     1      -3.677 -14.292  17.257  0.00  0.00    +0.210 HD
ENDBRANCH  10   2
BRANCH   9  13
ATOM     13  C   UNL     1      -2.593 -10.666  15.975  0.00  0.00    +0.090 C 
BRANCH  13  15
ATOM      3  O   UNL     1      -2.044 -11.597  12.536  0.00  0.00    -0.354 OA
ATOM      7  N   UNL     1      -1.725 -11.640  13.888  0.00  0.00    -0.083 NA
ATOM     15  C   UNL     1      -2.631 -10.859  14.482  0.00  0.00    +0.087 A 
ATOM     16  C   UNL     1      -3.538 -10.300  13.566  0.00  0.00    +0.076 A 
ATOM     18  C   UNL     1      -3.125 -10.795  12.357  0.00  0.00    +0.167 A 
BRANCH  18  20
ATOM     20  C   UNL     1      -3.576 -10.654  11.003  0.00  0.00    +0.020 A 
ATOM     23  C   UNL     1      -3.949 -11.782  10.271  0.00  0.00    +0.011 A 
ATOM     24  C   UNL     1      -3.644  -9.390  10.418  0.00  0.00    +0.011 A 
ATOM     28  C   UNL     1      -4.388 -11.646   8.955  0.00  0.00    +0.001 A 
ATOM     29  C   UNL     1      -4.083  -9.253   9.100  0.00  0.00    +0.001 A 
ATOM     30  C   UNL     1      -4.455 -10.381   8.369  0.00  0.00    +0.000 A 
ENDBRANCH  18  20
ENDBRANCH  13  15
ENDBRANCH   9  13
BRANCH   8  14
ATOM     14  C   UNL     1      -6.714 -12.097  16.139  0.00  0.00    +0.138 C 
BRANCH  14   6
ATOM      4  O   UNL     1      -6.802  -9.538  14.842  0.00  0.00    -0.270 OA
ATOM      6  N   UNL     1      -6.913 -11.853  14.743  0.00  0.00    -0.309 N 
ATOM     17  C   UNL     1      -6.941 -10.572  14.195  0.00  0.00    +0.244 C 
ATOM     33  H   UNL     1      -7.121 -12.659  14.164  0.00  0.00    +0.149 HD
BRANCH  17  19
ATOM     19  C   UNL     1      -7.184 -10.486  12.732  0.00  0.00    +0.037 A 
ATOM     21  C   UNL     1      -7.112  -9.253  12.084  0.00  0.00    +0.016 A 
ATOM     22  C   UNL     1      -7.485 -11.639  12.006  0.00  0.00    +0.016 A 
ATOM     25  C   UNL     1      -7.339  -9.172  10.710  0.00  0.00    +0.046 A 
ATOM     26  C   UNL     1      -7.712 -11.558  10.633  0.00  0.00    +0.046 A 
ATOM     27  C   UNL     1      -7.641 -10.325   9.985  0.00  0.00    +0.120 A 
BRANCH  27   5
ATOM      5  O   UNL     1      -7.863 -10.246   8.644  0.00  0.00    -0.495 OA
ATOM     31  C   UNL     1      -7.896  -8.942   8.067  0.00  0.00    +0.277 C 
ENDBRANCH  27   5
ENDBRANCH  17  19
ENDBRANCH  14   6
ENDBRANCH   8  14
TORSDOF 8
ENDMDL
MODEL 6
REMARK VINA RESULT:      -7.0     28.682     33.620
REMARK  Name = 75536302
REMARK  9 active torsions:
REMARK  status: ('A' for Active; 'I' for Inactive)
REMARK    1  A    between atoms: O_2  and  C_10
REMARK    2  A    between atoms: O_5  and  C_27
REMARK    3  A    between atoms: O_5  and  C_31
REMARK    4  A    between atoms: N_6  and  C_14
REMARK    5  A    between atoms: C_8  and  C_14
REMARK    6  A    between atoms: C_9  and  C_13
REMARK    7  A    between atoms: C_13  and  C_15
REMARK    8  A    between atoms: C_17  and  C_19
REMARK    9  A    between atoms: C_18  and  C_20
REMARK                            x       y       z     vdW  Elec       q    Type
REMARK                         _______ _______ _______ _____ _____    ______ ____
ROOT
ATOM      1  O   UNL     1      14.080   8.930  19.437  0.00  0.00    -0.369 OA
ATOM      8  C   UNL     1      14.795   8.111  20.371  0.00  0.00    +0.164 C 
ATOM      9  C   UNL     1      12.926   8.322  18.852  0.00  0.00    +0.125 C 
ATOM     10  C   UNL     1      13.876   7.612  21.492  0.00  0.00    +0.145 C 
ATOM     11  C   UNL     1      11.927   7.914  19.933  0.00  0.00    +0.034 C 
ATOM     12  C   UNL     1      12.586   6.995  20.957  0.00  0.00    +0.036 C 
ENDROOT
BRANCH  10   2
ATOM      2  O   UNL     1      13.517   8.719  22.322  0.00  0.00    -0.389 OA
ATOM     32  H   UNL     1      12.833   9.228  21.855  0.00  0.00    +0.210 HD
ENDBRANCH  10   2
BRANCH   9  13
ATOM     13  C   UNL     1      12.309   9.335  17.896  0.00  0.00    +0.090 C 
BRANCH  13  15
ATOM      3  O   UNL     1      14.241   9.390  14.854  0.00  0.00    -0.354 OA
ATOM      7  N   UNL     1      13.324   8.804  15.719  0.00  0.00    -0.083 NA
ATOM     15  C   UNL     1      13.228   9.650  16.747  0.00  0.00    +0.087 A 
ATOM     16  C   UNL     1      14.054  10.777  16.590  0.00  0.00    +0.076 A 
ATOM     18  C   UNL     1      14.668  10.564  15.385  0.00  0.00    +0.167 A 
BRANCH  18  20
ATOM     20  C   UNL     1      15.623  11.289  14.598  0.00  0.00    +0.020 A 
ATOM     23  C   UNL     1      16.756  11.833  15.205  0.00  0.00    +0.011 A 
ATOM     24  C   UNL     1      15.421  11.450  13.228  0.00  0.00    +0.011 A 
ATOM     28  C   UNL     1      17.686  12.538  14.441  0.00  0.00    +0.001 A 
ATOM     29  C   UNL     1      16.351  12.156  12.463  0.00  0.00    +0.001 A 
ATOM     30  C   UNL     1      17.483  12.700  13.070  0.00  0.00    +0.000 A 
ENDBRANCH  18  20
ENDBRANCH  13  15
ENDBRANCH   9  13
BRANCH   8  14
ATOM     14  C   UNL     1      15.534   6.979  19.657  0.00  0.00    +0.138 C 
BRANCH  14   6
ATOM      4  O   UNL     1      17.703   5.455  18.557  0.00  0.00    -0.270 OA
ATOM      6  N   UNL     1      16.798   6.721  20.277  0.00  0.00    -0.309 N 
ATOM     17  C   UNL     1      17.799   5.968  19.668  0.00  0.00    +0.244 C 
ATOM     33  H   UNL     1      16.912   7.043  21.232  0.00  0.00    +0.149 HD
BRANCH  17  19
ATOM     19  C   UNL     1      19.044   5.769  20.454  0.00  0.00    +0.037 A 
ATOM     21  C   UNL     1      19.315   6.588  21.551  0.00  0.00    +0.016 A 
ATOM     22  C   UNL     1      19.942   4.763  20.095  0.00  0.00    +0.016 A 
ATOM     25  C   UNL     1      20.483   6.400  22.289  0.00  0.00    +0.046 A 
ATOM     26  C   UNL     1      21.110   4.577  20.834  0.00  0.00    +0.046 A 
ATOM     27  C   UNL     1      21.382   5.395  21.929  0.00  0.00    +0.120 A 
BRANCH  27   5
ATOM      5  O   UNL     1      22.522   5.213  22.650  0.00  0.00    -0.495 OA
ATOM     31  C   UNL     1      23.608   6.099  22.382  0.00  0.00    +0.277 C 
ENDBRANCH  27   5
ENDBRANCH  17  19
ENDBRANCH  14   6
ENDBRANCH   8  14
TORSDOF 8
ENDMDL
MODEL 7
REMARK VINA RESULT:      -7.0     16.852     18.954
REMARK  Name = 75536302
REMARK  9 active torsions:
REMARK  status: ('A' for Active; 'I' for Inactive)
REMARK    1  A    between atoms: O_2  and  C_10
REMARK    2  A    between atoms: O_5  and  C_27
REMARK    3  A    between atoms: O_5  and  C_31
REMARK    4  A    between atoms: N_6  and  C_14
REMARK    5  A    between atoms: C_8  and  C_14
REMARK    6  A    between atoms: C_9  and  C_13
REMARK    7  A    between atoms: C_13  and  C_15
REMARK    8  A    between atoms: C_17  and  C_19
REMARK    9  A    between atoms: C_18  and  C_20
REMARK                            x       y       z     vdW  Elec       q    Type
REMARK                         _______ _______ _______ _____ _____    ______ ____
ROOT
ATOM      1  O   UNL     1      -5.475 -10.485  16.922  0.00  0.00    -0.369 OA
ATOM      8  C   UNL     1      -5.073 -10.033  15.622  0.00  0.00    +0.164 C 
ATOM      9  C   UNL     1      -5.582 -11.904  17.067  0.00  0.00    +0.125 C 
ATOM     10  C   UNL     1      -3.749 -10.676  15.192  0.00  0.00    +0.145 C 
ATOM     11  C   UNL     1      -4.245 -12.577  16.761  0.00  0.00    +0.034 C 
ATOM     12  C   UNL     1      -3.753 -12.192  15.369  0.00  0.00    +0.036 C 
ENDROOT
BRANCH  10   2
ATOM      2  O   UNL     1      -2.695 -10.147  16.001  0.00  0.00    -0.389 OA
ATOM     32  H   UNL     1      -3.075  -9.920  16.868  0.00  0.00    +0.210 HD
ENDBRANCH  10   2
BRANCH   9  13
ATOM     13  C   UNL     1      -6.017 -12.186  18.499  0.00  0.00    +0.090 C 
BRANCH  13  15
ATOM      3  O   UNL     1      -9.076 -10.869  19.878  0.00  0.00    -0.354 OA
ATOM      7  N   UNL     1      -7.740 -11.239  19.979  0.00  0.00    -0.083 NA
ATOM     15  C   UNL     1      -7.413 -11.690  18.765  0.00  0.00    +0.087 A 
ATOM     16  C   UNL     1      -8.491 -11.631  17.865  0.00  0.00    +0.076 A 
ATOM     18  C   UNL     1      -9.511 -11.107  18.614  0.00  0.00    +0.167 A 
BRANCH  18  20
ATOM     20  C   UNL     1     -10.881 -10.770  18.356  0.00  0.00    +0.020 A 
ATOM     23  C   UNL     1     -11.546  -9.867  19.187  0.00  0.00    +0.011 A 
ATOM     24  C   UNL     1     -11.548 -11.343  17.273  0.00  0.00    +0.011 A 
ATOM     28  C   UNL     1     -12.878  -9.539  18.936  0.00  0.00    +0.001 A 
ATOM     29  C   UNL     1     -12.881 -11.014  17.022  0.00  0.00    +0.001 A 
ATOM     30  C   UNL     1     -13.546 -10.113  17.854  0.00  0.00    +0.000 A 
ENDBRANCH  18  20
ENDBRANCH  13  15
ENDBRANCH   9  13
BRANCH   8  14
ATOM     14  C   UNL     1      -6.191 -10.232  14.600  0.00  0.00    +0.138 C 
BRANCH  14   6
ATOM      4  O   UNL     1      -8.930 -11.049  14.330  0.00  0.00    -0.270 OA
ATOM      6  N   UNL     1      -7.350  -9.469  14.952  0.00  0.00    -0.309 N 
ATOM     17  C   UNL     1      -8.648  -9.945  14.787  0.00  0.00    +0.244 C 
ATOM     33  H   UNL     1      -7.191  -8.514  15.254  0.00  0.00    +0.149 HD
BRANCH  17  19
ATOM     19  C   UNL     1      -9.744  -9.020  15.176  0.00  0.00    +0.037 A 
ATOM     21  C   UNL     1     -10.936  -9.005  14.450  0.00  0.00    +0.016 A 
ATOM     22  C   UNL     1      -9.582  -8.165  16.267  0.00  0.00    +0.016 A 
ATOM     25  C   UNL     1     -11.964  -8.137  14.815  0.00  0.00    +0.046 A 
ATOM     26  C   UNL     1     -10.610  -7.297  16.631  0.00  0.00    +0.046 A 
ATOM     27  C   UNL     1     -11.801  -7.282  15.905  0.00  0.00    +0.120 A 
BRANCH  27   5
ATOM      5  O   UNL     1     -12.805  -6.435  16.261  0.00  0.00    -0.495 OA
ATOM     31  C   UNL     1     -14.131  -6.806  15.888  0.00  0.00    +0.277 C 
ENDBRANCH  27   5
ENDBRANCH  17  19
ENDBRANCH  14   6
ENDBRANCH   8  14
TORSDOF 8
ENDMDL
MODEL 8
REMARK VINA RESULT:      -6.9     19.288     21.752
REMARK  Name = 75536302
REMARK  9 active torsions:
REMARK  status: ('A' for Active; 'I' for Inactive)
REMARK    1  A    between atoms: O_2  and  C_10
REMARK    2  A    between atoms: O_5  and  C_27
REMARK    3  A    between atoms: O_5  and  C_31
REMARK    4  A    between atoms: N_6  and  C_14
REMARK    5  A    between atoms: C_8  and  C_14
REMARK    6  A    between atoms: C_9  and  C_13
REMARK    7  A    between atoms: C_13  and  C_15
REMARK    8  A    between atoms: C_17  and  C_19
REMARK    9  A    between atoms: C_18  and  C_20
REMARK                            x       y       z     vdW  Elec       q    Type
REMARK                         _______ _______ _______ _____ _____    ______ ____
ROOT
ATOM      1  O   UNL     1      -4.313 -11.993  13.252  0.00  0.00    -0.369 OA
ATOM      8  C   UNL     1      -3.142 -12.573  13.842  0.00  0.00    +0.164 C 
ATOM      9  C   UNL     1      -4.151 -10.660  12.762  0.00  0.00    +0.125 C 
ATOM     10  C   UNL     1      -1.955 -12.543  12.871  0.00  0.00    +0.145 C 
ATOM     11  C   UNL     1      -3.053 -10.607  11.701  0.00  0.00    +0.034 C 
ATOM     12  C   UNL     1      -1.744 -11.164  12.253  0.00  0.00    +0.036 C 
ENDROOT
BRANCH  10   2
ATOM      2  O   UNL     1      -2.207 -13.464  11.806  0.00  0.00    -0.389 OA
ATOM     32  H   UNL     1      -2.770 -13.013  11.154  0.00  0.00    +0.210 HD
ENDBRANCH  10   2
BRANCH   9  13
ATOM     13  C   UNL     1      -5.489 -10.220  12.180  0.00  0.00    +0.090 C 
BRANCH  13  15
ATOM      3  O   UNL     1      -8.435 -11.406  13.884  0.00  0.00    -0.354 OA
ATOM      7  N   UNL     1      -7.552 -11.404  12.812  0.00  0.00    -0.083 NA
ATOM     15  C   UNL     1      -6.626 -10.495  13.128  0.00  0.00    +0.087 A 
ATOM     16  C   UNL     1      -6.871  -9.895  14.375  0.00  0.00    +0.076 A 
ATOM     18  C   UNL     1      -8.019 -10.503  14.808  0.00  0.00    +0.167 A 
BRANCH  18  20
ATOM     20  C   UNL     1      -8.836 -10.393  15.981  0.00  0.00    +0.020 A 
ATOM     23  C   UNL     1      -9.730 -11.413  16.307  0.00  0.00    +0.011 A 
ATOM     24  C   UNL     1      -8.737  -9.266  16.798  0.00  0.00    +0.011 A 
ATOM     28  C   UNL     1     -10.525 -11.307  17.448  0.00  0.00    +0.001 A 
ATOM     29  C   UNL     1      -9.533  -9.160  17.940  0.00  0.00    +0.001 A 
ATOM     30  C   UNL     1     -10.426 -10.180  18.264  0.00  0.00    +0.000 A 
ENDBRANCH  18  20
ENDBRANCH  13  15
ENDBRANCH   9  13
BRANCH   8  14
ATOM     14  C   UNL     1      -2.827 -11.926  15.189  0.00  0.00    +0.138 C 
BRANCH  14   6
ATOM      4  O   UNL     1      -4.177  -9.903  16.713  0.00  0.00    -0.270 OA
ATOM      6  N   UNL     1      -3.897 -12.127  16.118  0.00  0.00    -0.309 N 
ATOM     17  C   UNL     1      -4.498 -11.084  16.818  0.00  0.00    +0.244 C 
ATOM     33  H   UNL     1      -4.153 -13.089  16.317  0.00  0.00    +0.149 HD
BRANCH  17  19
ATOM     19  C   UNL     1      -5.578 -11.461  17.765  0.00  0.00    +0.037 A 
ATOM     21  C   UNL     1      -6.320 -12.624  17.551  0.00  0.00    +0.016 A 
ATOM     22  C   UNL     1      -5.851 -10.654  18.870  0.00  0.00    +0.016 A 
ATOM     25  C   UNL     1      -7.333 -12.978  18.440  0.00  0.00    +0.046 A 
ATOM     26  C   UNL     1      -6.864 -11.010  19.759  0.00  0.00    +0.046 A 
ATOM     27  C   UNL     1      -7.606 -12.171  19.545  0.00  0.00    +0.120 A 
BRANCH  27   5
ATOM      5  O   UNL     1      -8.596 -12.517  20.413  0.00  0.00    -0.495 OA
ATOM     31  C   UNL     1      -8.959 -13.896  20.466  0.00  0.00    +0.277 C 
ENDBRANCH  27   5
ENDBRANCH  17  19
ENDBRANCH  14   6
ENDBRANCH   8  14
TORSDOF 8
ENDMDL
MODEL 9
REMARK VINA RESULT:      -6.9      5.625      8.476
REMARK  Name = 75536302
REMARK  9 active torsions:
REMARK  status: ('A' for Active; 'I' for Inactive)
REMARK    1  A    between atoms: O_2  and  C_10
REMARK    2  A    between atoms: O_5  and  C_27
REMARK    3  A    between atoms: O_5  and  C_31
REMARK    4  A    between atoms: N_6  and  C_14
REMARK    5  A    between atoms: C_8  and  C_14
REMARK    6  A    between atoms: C_9  and  C_13
REMARK    7  A    between atoms: C_13  and  C_15
REMARK    8  A    between atoms: C_17  and  C_19
REMARK    9  A    between atoms: C_18  and  C_20
REMARK                            x       y       z     vdW  Elec       q    Type
REMARK                         _______ _______ _______ _____ _____    ______ ____
ROOT
ATOM      1  O   UNL     1     -15.758   5.077  20.601  0.00  0.00    -0.369 OA
ATOM      8  C   UNL     1     -17.071   5.200  20.038  0.00  0.00    +0.164 C 
ATOM      9  C   UNL     1     -15.611   5.598  21.924  0.00  0.00    +0.125 C 
ATOM     10  C   UNL     1     -18.128   4.556  20.944  0.00  0.00    +0.145 C 
ATOM     11  C   UNL     1     -16.569   4.897  22.887  0.00  0.00    +0.034 C 
ATOM     12  C   UNL     1     -18.008   5.014  22.395  0.00  0.00    +0.036 C 
ENDROOT
BRANCH  10   2
ATOM      2  O   UNL     1     -17.955   3.137  20.920  0.00  0.00    -0.389 OA
ATOM     32  H   UNL     1     -17.467   2.886  21.723  0.00  0.00    +0.210 HD
ENDBRANCH  10   2
BRANCH   9  13
ATOM     13  C   UNL     1     -14.163   5.379  22.344  0.00  0.00    +0.090 C 
BRANCH  13  15
ATOM      3  O   UNL     1     -11.413   7.058  20.728  0.00  0.00    -0.354 OA
ATOM      7  N   UNL     1     -11.988   5.955  21.348  0.00  0.00    -0.083 NA
ATOM     15  C   UNL     1     -13.231   6.336  21.651  0.00  0.00    +0.087 A 
ATOM     16  C   UNL     1     -13.496   7.657  21.251  0.00  0.00    +0.076 A 
ATOM     18  C   UNL     1     -12.322   8.065  20.676  0.00  0.00    +0.167 A 
BRANCH  18  20
ATOM     20  C   UNL     1     -11.870   9.277  20.057  0.00  0.00    +0.020 A 
ATOM     23  C   UNL     1     -12.545  10.475  20.294  0.00  0.00    +0.011 A 
ATOM     24  C   UNL     1     -10.756   9.259  19.218  0.00  0.00    +0.011 A 
ATOM     28  C   UNL     1     -12.107  11.654  19.692  0.00  0.00    +0.001 A 
ATOM     29  C   UNL     1     -10.317  10.439  18.616  0.00  0.00    +0.001 A 
ATOM     30  C   UNL     1     -10.993  11.636  18.852  0.00  0.00    +0.000 A 
ENDBRANCH  18  20
ENDBRANCH  13  15
ENDBRANCH   9  13
BRANCH   8  14
ATOM     14  C   UNL     1     -17.388   6.654  19.693  0.00  0.00    +0.138 C 
BRANCH  14   6
ATOM      4  O   UNL     1     -16.732   9.437  19.438  0.00  0.00    -0.270 OA
ATOM      6  N   UNL     1     -16.365   7.219  18.866  0.00  0.00    -0.309 N 
ATOM     17  C   UNL     1     -16.113   8.588  18.803  0.00  0.00    +0.244 C 
ATOM     33  H   UNL     1     -15.872   6.581  18.250  0.00  0.00    +0.149 HD
BRANCH  17  19
ATOM     19  C   UNL     1     -15.034   9.017  17.877  0.00  0.00    +0.037 A 
ATOM     21  C   UNL     1     -14.928  10.358  17.503  0.00  0.00    +0.016 A 
ATOM     22  C   UNL     1     -14.126   8.081  17.380  0.00  0.00    +0.016 A 
ATOM     25  C   UNL     1     -13.915  10.761  16.633  0.00  0.00    +0.046 A 
ATOM     26  C   UNL     1     -13.114   8.485  16.511  0.00  0.00    +0.046 A 
ATOM     27  C   UNL     1     -13.008   9.824  16.136  0.00  0.00    +0.120 A 
BRANCH  27   5
ATOM      5  O   UNL     1     -12.020  10.219  15.288  0.00  0.00    -0.495 OA
ATOM     31  C   UNL     1     -10.877   9.371  15.184  0.00  0.00    +0.277 C 
ENDBRANCH  27   5
ENDBRANCH  17  19
ENDBRANCH  14   6
ENDBRANCH   8  14
TORSDOF 8
ENDMDL
MODEL 10
REMARK VINA RESULT:      -6.9     18.794     20.956
REMARK  Name = 75536302
REMARK  9 active torsions:
REMARK  status: ('A' for Active; 'I' for Inactive)
REMARK    1  A    between atoms: O_2  and  C_10
REMARK    2  A    between atoms: O_5  and  C_27
REMARK    3  A    between atoms: O_5  and  C_31
REMARK    4  A    between atoms: N_6  and  C_14
REMARK    5  A    between atoms: C_8  and  C_14
REMARK    6  A    between atoms: C_9  and  C_13
REMARK    7  A    between atoms: C_13  and  C_15
REMARK    8  A    between atoms: C_17  and  C_19
REMARK    9  A    between atoms: C_18  and  C_20
REMARK                            x       y       z     vdW  Elec       q    Type
REMARK                         _______ _______ _______ _____ _____    ______ ____
ROOT
ATOM      1  O   UNL     1      -3.784 -10.450  13.924  0.00  0.00    -0.369 OA
ATOM      8  C   UNL     1      -3.805 -10.990  12.596  0.00  0.00    +0.164 C 
ATOM      9  C   UNL     1      -3.257 -11.322  14.927  0.00  0.00    +0.125 C 
ATOM     10  C   UNL     1      -2.411 -11.459  12.162  0.00  0.00    +0.145 C 
ATOM     11  C   UNL     1      -1.821 -11.722  14.592  0.00  0.00    +0.034 C 
ATOM     12  C   UNL     1      -1.746 -12.354  13.206  0.00  0.00    +0.036 C 
ENDROOT
BRANCH  10   2
ATOM      2  O   UNL     1      -1.575 -10.314  11.976  0.00  0.00    -0.389 OA
ATOM     32  H   UNL     1      -1.054 -10.194  12.788  0.00  0.00    +0.210 HD
ENDBRANCH  10   2
BRANCH   9  13
ATOM     13  C   UNL     1      -3.318 -10.580  16.256  0.00  0.00    +0.090 C 
BRANCH  13  15
ATOM      3  O   UNL     1      -6.372 -11.223  18.061  0.00  0.00    -0.354 OA
ATOM      7  N   UNL     1      -5.046 -11.499  17.749  0.00  0.00    -0.083 NA
ATOM     15  C   UNL     1      -4.708 -10.587  16.834  0.00  0.00    +0.087 A 
ATOM     16  C   UNL     1      -5.770  -9.717  16.531  0.00  0.00    +0.076 A 
ATOM     18  C   UNL     1      -6.791 -10.160  17.329  0.00  0.00    +0.167 A 
BRANCH  18  20
ATOM     20  C   UNL     1      -8.149  -9.754  17.546  0.00  0.00    +0.020 A 
ATOM     23  C   UNL     1      -8.585  -8.508  17.093  0.00  0.00    +0.011 A 
ATOM     24  C   UNL     1      -9.035 -10.604  18.208  0.00  0.00    +0.011 A 
ATOM     28  C   UNL     1      -9.906  -8.113  17.304  0.00  0.00    +0.001 A 
ATOM     29  C   UNL     1     -10.356 -10.208  18.419  0.00  0.00    +0.001 A 
ATOM     30  C   UNL     1     -10.791  -8.962  17.967  0.00  0.00    +0.000 A 
ENDBRANCH  18  20
ENDBRANCH  13  15
ENDBRANCH   9  13
BRANCH   8  14
ATOM     14  C   UNL     1      -4.868 -12.079  12.461  0.00  0.00    +0.138 C 
BRANCH  14   6
ATOM      4  O   UNL     1      -6.472 -12.829  14.721  0.00  0.00    -0.270 OA
ATOM      6  N   UNL     1      -6.165 -11.573  12.795  0.00  0.00    -0.309 N 
ATOM     17  C   UNL     1      -6.876 -11.994  13.916  0.00  0.00    +0.244 C 
ATOM     33  H   UNL     1      -6.595 -10.944  12.125  0.00  0.00    +0.149 HD
BRANCH  17  19
ATOM     19  C   UNL     1      -8.220 -11.392  14.108  0.00  0.00    +0.037 A 
ATOM     21  C   UNL     1      -8.478 -10.098  13.653  0.00  0.00    +0.016 A 
ATOM     22  C   UNL     1      -9.227 -12.120  14.744  0.00  0.00    +0.016 A 
ATOM     25  C   UNL     1      -9.740  -9.534  13.833  0.00  0.00    +0.046 A 
ATOM     26  C   UNL     1     -10.489 -11.555  14.923  0.00  0.00    +0.046 A 
ATOM     27  C   UNL     1     -10.745 -10.262  14.469  0.00  0.00    +0.120 A 
BRANCH  27   5
ATOM      5  O   UNL     1     -11.977  -9.710  14.644  0.00  0.00    -0.495 OA
ATOM     31  C   UNL     1     -12.342  -8.643  13.770  0.00  0.00    +0.277 C 
ENDBRANCH  27   5
ENDBRANCH  17  19
ENDBRANCH  14   6
ENDBRANCH   8  14
TORSDOF 8
ENDMDL
