MODEL 1
REMARK VINA RESULT:      -6.2      0.000      0.000
REMARK  Name = 45783570
REMARK  9 active torsions:
REMARK  status: ('A' for Active; 'I' for Inactive)
REMARK    1  A    between atoms: O_2  and  C_22
REMARK    2  A    between atoms: O_2  and  C_23
REMARK    3  A    between atoms: O_3  and  C_24
REMARK    4  A    between atoms: O_3  and  C_25
REMARK    5  A    between atoms: N_4  and  C_11
REMARK    6  A    between atoms: C_8  and  C_11
REMARK    7  A    between atoms: C_12  and  C_16
REMARK    8  A    between atoms: C_17  and  C_18
REMARK    9  A    between atoms: C_23  and  C_24
REMARK                            x       y       z     vdW  Elec       q    Type
REMARK                         _______ _______ _______ _____ _____    ______ ____
ROOT
ATOM      1  O   UNL     1      15.716   6.231  18.479  0.00  0.00    -0.336 OA
ATOM      5  N   UNL     1      16.536   7.217  20.315  0.00  0.00    -0.190 NA
ATOM      6  N   UNL     1      16.962   5.637  18.717  0.00  0.00    -0.056 NA
ATOM     16  C   UNL     1      15.544   7.150  19.466  0.00  0.00    +0.245 A 
ATOM     17  C   UNL     1      17.383   6.271  19.815  0.00  0.00    +0.204 A 
ENDROOT
BRANCH  17  18
ATOM      7  N   UNL     1      20.671   4.668  20.485  0.00  0.00    -0.221 NA
ATOM     18  C   UNL     1      18.642   5.983  20.438  0.00  0.00    +0.041 A 
ATOM     19  C   UNL     1      19.069   6.694  21.555  0.00  0.00    +0.018 A 
ATOM     20  C   UNL     1      19.473   4.989  19.946  0.00  0.00    +0.126 A 
ATOM     21  C   UNL     1      20.295   6.393  22.137  0.00  0.00    +0.068 A 
ATOM     22  C   UNL     1      21.051   5.380  21.569  0.00  0.00    +0.215 A 
BRANCH  22   2
ATOM      2  O   UNL     1      22.264   5.065  22.126  0.00  0.00    -0.474 OA
BRANCH   2  23
ATOM     23  C   UNL     1      22.491   3.693  22.428  0.00  0.00    +0.258 C 
BRANCH  23  24
ATOM     24  C   UNL     1      23.870   3.300  21.935  0.00  0.00    +0.200 C 
BRANCH  24   3
ATOM      3  O   UNL     1      23.738   2.585  20.712  0.00  0.00    -0.380 OA
ATOM     25  C   UNL     1      24.781   2.911  19.804  0.00  0.00    +0.194 C 
ENDBRANCH  24   3
ENDBRANCH  23  24
ENDBRANCH   2  23
ENDBRANCH  22   2
ENDBRANCH  17  18
BRANCH  16  12
ATOM      4  N   UNL     1      13.914   8.532  20.743  0.00  0.00    -0.291 NA
ATOM     12  C   UNL     1      14.252   7.940  19.432  0.00  0.00    +0.146 C 
ATOM     13  C   UNL     1      13.156   9.751  20.462  0.00  0.00    +0.085 C 
ATOM     14  C   UNL     1      14.312   9.138  18.466  0.00  0.00    +0.030 C 
ATOM     15  C   UNL     1      13.936  10.348  19.308  0.00  0.00    +0.017 C 
BRANCH   4  11
ATOM     11  C   UNL     1      13.185   7.620  21.614  0.00  0.00    +0.088 C 
BRANCH  11   8
ATOM      8  C   UNL     1      11.916   7.157  20.974  0.00  0.00    +0.003 C 
ATOM      9  C   UNL     1      10.624   7.289  21.726  0.00  0.00    +0.005 C 
ATOM     10  C   UNL     1      11.231   5.933  21.509  0.00  0.00    +0.005 C 
ENDBRANCH  11   8
ENDBRANCH   4  11
ENDBRANCH  16  12
TORSDOF 8
ENDMDL
MODEL 2
REMARK VINA RESULT:      -5.9     16.856     19.525
REMARK  Name = 45783570
REMARK  9 active torsions:
REMARK  status: ('A' for Active; 'I' for Inactive)
REMARK    1  A    between atoms: O_2  and  C_22
REMARK    2  A    between atoms: O_2  and  C_23
REMARK    3  A    between atoms: O_3  and  C_24
REMARK    4  A    between atoms: O_3  and  C_25
REMARK    5  A    between atoms: N_4  and  C_11
REMARK    6  A    between atoms: C_8  and  C_11
REMARK    7  A    between atoms: C_12  and  C_16
REMARK    8  A    between atoms: C_17  and  C_18
REMARK    9  A    between atoms: C_23  and  C_24
REMARK                            x       y       z     vdW  Elec       q    Type
REMARK                         _______ _______ _______ _____ _____    ______ ____
ROOT
ATOM      1  O   UNL     1       9.815   4.275   5.560  0.00  0.00    -0.336 OA
ATOM      5  N   UNL     1       9.987   5.918   4.048  0.00  0.00    -0.190 NA
ATOM      6  N   UNL     1      10.373   3.694   4.415  0.00  0.00    -0.056 NA
ATOM     16  C   UNL     1       9.620   5.586   5.259  0.00  0.00    +0.245 A 
ATOM     17  C   UNL     1      10.443   4.725   3.569  0.00  0.00    +0.204 A 
ENDROOT
BRANCH  17  18
ATOM      7  N   UNL     1      10.543   4.446  -0.138  0.00  0.00    -0.221 NA
ATOM     18  C   UNL     1      10.963   4.597   2.238  0.00  0.00    +0.041 A 
ATOM     19  C   UNL     1      12.331   4.503   2.009  0.00  0.00    +0.018 A 
ATOM     20  C   UNL     1      10.118   4.564   1.140  0.00  0.00    +0.126 A 
ATOM     21  C   UNL     1      12.806   4.380   0.708  0.00  0.00    +0.068 A 
ATOM     22  C   UNL     1      11.879   4.356  -0.322  0.00  0.00    +0.215 A 
BRANCH  22   2
ATOM      2  O   UNL     1      12.322   4.236  -1.613  0.00  0.00    -0.474 OA
BRANCH   2  23
ATOM     23  C   UNL     1      11.352   3.881  -2.591  0.00  0.00    +0.258 C 
BRANCH  23  24
ATOM     24  C   UNL     1      11.463   2.397  -2.881  0.00  0.00    +0.200 C 
BRANCH  24   3
ATOM      3  O   UNL     1      10.187   1.793  -2.703  0.00  0.00    -0.380 OA
ATOM     25  C   UNL     1       9.332   2.046  -3.810  0.00  0.00    +0.194 C 
ENDBRANCH  24   3
ENDBRANCH  23  24
ENDBRANCH   2  23
ENDBRANCH  22   2
ENDBRANCH  17  18
BRANCH  16  12
ATOM      4  N   UNL     1      10.042   7.067   7.214  0.00  0.00    -0.291 NA
ATOM     12  C   UNL     1       9.017   6.446   6.351  0.00  0.00    +0.146 C 
ATOM     13  C   UNL     1       9.469   8.324   7.696  0.00  0.00    +0.085 C 
ATOM     14  C   UNL     1       8.204   7.630   5.794  0.00  0.00    +0.030 C 
ATOM     15  C   UNL     1       8.805   8.866   6.447  0.00  0.00    +0.017 C 
BRANCH   4  11
ATOM     11  C   UNL     1      10.471   6.205   8.307  0.00  0.00    +0.088 C 
BRANCH  11   8
ATOM      8  C   UNL     1       9.323   5.435   8.874  0.00  0.00    +0.003 C 
ATOM      9  C   UNL     1       9.464   4.796  10.225  0.00  0.00    +0.005 C 
ATOM     10  C   UNL     1       9.429   3.942   8.991  0.00  0.00    +0.005 C 
ENDBRANCH  11   8
ENDBRANCH   4  11
ENDBRANCH  16  12
TORSDOF 8
ENDMDL
MODEL 3
REMARK VINA RESULT:      -5.6     30.709     33.905
REMARK  Name = 45783570
REMARK  9 active torsions:
REMARK  status: ('A' for Active; 'I' for Inactive)
REMARK    1  A    between atoms: O_2  and  C_22
REMARK    2  A    between atoms: O_2  and  C_23
REMARK    3  A    between atoms: O_3  and  C_24
REMARK    4  A    between atoms: O_3  and  C_25
REMARK    5  A    between atoms: N_4  and  C_11
REMARK    6  A    between atoms: C_8  and  C_11
REMARK    7  A    between atoms: C_12  and  C_16
REMARK    8  A    between atoms: C_17  and  C_18
REMARK    9  A    between atoms: C_23  and  C_24
REMARK                            x       y       z     vdW  Elec       q    Type
REMARK                         _______ _______ _______ _____ _____    ______ ____
ROOT
ATOM      1  O   UNL     1     -16.434   3.393  22.634  0.00  0.00    -0.336 OA
ATOM      5  N   UNL     1     -16.238   4.583  24.522  0.00  0.00    -0.190 NA
ATOM      6  N   UNL     1     -16.480   2.467  23.685  0.00  0.00    -0.056 NA
ATOM     16  C   UNL     1     -16.290   4.613  23.215  0.00  0.00    +0.245 A 
ATOM     17  C   UNL     1     -16.359   3.245  24.764  0.00  0.00    +0.204 A 
ENDROOT
BRANCH  17  18
ATOM      7  N   UNL     1     -15.984   3.079  28.460  0.00  0.00    -0.221 NA
ATOM     18  C   UNL     1     -16.354   2.719  26.098  0.00  0.00    +0.041 A 
ATOM     19  C   UNL     1     -16.697   1.394  26.347  0.00  0.00    +0.018 A 
ATOM     20  C   UNL     1     -16.008   3.513  27.180  0.00  0.00    +0.126 A 
ATOM     21  C   UNL     1     -16.683   0.911  27.651  0.00  0.00    +0.068 A 
ATOM     22  C   UNL     1     -16.323   1.786  28.663  0.00  0.00    +0.215 A 
BRANCH  22   2
ATOM      2  O   UNL     1     -16.302   1.334  29.957  0.00  0.00    -0.474 OA
BRANCH   2  23
ATOM     23  C   UNL     1     -15.462   0.219  30.230  0.00  0.00    +0.258 C 
BRANCH  23  24
ATOM     24  C   UNL     1     -14.899   0.356  31.631  0.00  0.00    +0.200 C 
BRANCH  24   3
ATOM      3  O   UNL     1     -14.928   1.726  32.011  0.00  0.00    -0.380 OA
ATOM     25  C   UNL     1     -13.621   2.281  32.062  0.00  0.00    +0.194 C 
ENDBRANCH  24   3
ENDBRANCH  23  24
ENDBRANCH   2  23
ENDBRANCH  22   2
ENDBRANCH  17  18
BRANCH  16  12
ATOM      4  N   UNL     1     -15.162   5.648  21.252  0.00  0.00    -0.291 NA
ATOM     12  C   UNL     1     -16.214   5.801  22.277  0.00  0.00    +0.146 C 
ATOM     13  C   UNL     1     -15.616   6.396  20.080  0.00  0.00    +0.085 C 
ATOM     14  C   UNL     1     -17.514   6.010  21.476  0.00  0.00    +0.030 C 
ATOM     15  C   UNL     1     -17.083   6.021  20.017  0.00  0.00    +0.017 C 
BRANCH   4  11
ATOM     11  C   UNL     1     -13.849   6.086  21.708  0.00  0.00    +0.088 C 
BRANCH  11   8
ATOM      8  C   UNL     1     -13.199   6.984  20.705  0.00  0.00    +0.003 C 
ATOM      9  C   UNL     1     -11.704   7.117  20.701  0.00  0.00    +0.005 C 
ATOM     10  C   UNL     1     -12.558   8.259  21.171  0.00  0.00    +0.005 C 
ENDBRANCH  11   8
ENDBRANCH   4  11
ENDBRANCH  16  12
TORSDOF 8
ENDMDL
MODEL 4
REMARK VINA RESULT:      -5.5      2.027      9.355
REMARK  Name = 45783570
REMARK  9 active torsions:
REMARK  status: ('A' for Active; 'I' for Inactive)
REMARK    1  A    between atoms: O_2  and  C_22
REMARK    2  A    between atoms: O_2  and  C_23
REMARK    3  A    between atoms: O_3  and  C_24
REMARK    4  A    between atoms: O_3  and  C_25
REMARK    5  A    between atoms: N_4  and  C_11
REMARK    6  A    between atoms: C_8  and  C_11
REMARK    7  A    between atoms: C_12  and  C_16
REMARK    8  A    between atoms: C_17  and  C_18
REMARK    9  A    between atoms: C_23  and  C_24
REMARK                            x       y       z     vdW  Elec       q    Type
REMARK                         _______ _______ _______ _____ _____    ______ ____
ROOT
ATOM      1  O   UNL     1      21.600   7.151  21.584  0.00  0.00    -0.336 OA
ATOM      5  N   UNL     1      20.446   5.393  20.814  0.00  0.00    -0.190 NA
ATOM      6  N   UNL     1      20.315   7.626  21.292  0.00  0.00    -0.056 NA
ATOM     16  C   UNL     1      21.591   5.828  21.273  0.00  0.00    +0.245 A 
ATOM     17  C   UNL     1      19.695   6.532  20.843  0.00  0.00    +0.204 A 
ENDROOT
BRANCH  17  18
ATOM      7  N   UNL     1      16.640   5.770  18.864  0.00  0.00    -0.221 NA
ATOM     18  C   UNL     1      18.326   6.541  20.416  0.00  0.00    +0.041 A 
ATOM     19  C   UNL     1      17.370   7.291  21.093  0.00  0.00    +0.018 A 
ATOM     20  C   UNL     1      17.913   5.804  19.317  0.00  0.00    +0.126 A 
ATOM     21  C   UNL     1      16.049   7.282  20.656  0.00  0.00    +0.068 A 
ATOM     22  C   UNL     1      15.739   6.511  19.546  0.00  0.00    +0.215 A 
BRANCH  22   2
ATOM      2  O   UNL     1      14.444   6.485  19.097  0.00  0.00    -0.474 OA
BRANCH   2  23
ATOM     23  C   UNL     1      13.497   7.250  19.833  0.00  0.00    +0.258 C 
BRANCH  23  24
ATOM     24  C   UNL     1      12.691   8.098  18.869  0.00  0.00    +0.200 C 
BRANCH  24   3
ATOM      3  O   UNL     1      11.306   7.936  19.153  0.00  0.00    -0.380 OA
ATOM     25  C   UNL     1      10.984   8.406  20.455  0.00  0.00    +0.194 C 
ENDBRANCH  24   3
ENDBRANCH  23  24
ENDBRANCH   2  23
ENDBRANCH  22   2
ENDBRANCH  17  18
BRANCH  16  12
ATOM      4  N   UNL     1      22.749   3.625  21.247  0.00  0.00    -0.291 NA
ATOM     12  C   UNL     1      22.884   5.073  21.504  0.00  0.00    +0.146 C 
ATOM     13  C   UNL     1      24.064   3.158  20.810  0.00  0.00    +0.085 C 
ATOM     14  C   UNL     1      24.016   5.532  20.565  0.00  0.00    +0.030 C 
ATOM     15  C   UNL     1      24.494   4.266  19.870  0.00  0.00    +0.017 C 
BRANCH   4  11
ATOM     11  C   UNL     1      22.258   2.881  22.400  0.00  0.00    +0.088 C 
BRANCH  11   8
ATOM      8  C   UNL     1      23.349   2.637  23.392  0.00  0.00    +0.003 C 
ATOM      9  C   UNL     1      23.245   1.464  24.322  0.00  0.00    +0.005 C 
ATOM     10  C   UNL     1      23.074   2.858  24.851  0.00  0.00    +0.005 C 
ENDBRANCH  11   8
ENDBRANCH   4  11
ENDBRANCH  16  12
TORSDOF 8
ENDMDL
MODEL 5
REMARK VINA RESULT:      -5.5     27.590     29.798
REMARK  Name = 45783570
REMARK  9 active torsions:
REMARK  status: ('A' for Active; 'I' for Inactive)
REMARK    1  A    between atoms: O_2  and  C_22
REMARK    2  A    between atoms: O_2  and  C_23
REMARK    3  A    between atoms: O_3  and  C_24
REMARK    4  A    between atoms: O_3  and  C_25
REMARK    5  A    between atoms: N_4  and  C_11
REMARK    6  A    between atoms: C_8  and  C_11
REMARK    7  A    between atoms: C_12  and  C_16
REMARK    8  A    between atoms: C_17  and  C_18
REMARK    9  A    between atoms: C_23  and  C_24
REMARK                            x       y       z     vdW  Elec       q    Type
REMARK                         _______ _______ _______ _____ _____    ______ ____
ROOT
ATOM      1  O   UNL     1      -1.783 -10.654  13.093  0.00  0.00    -0.336 OA
ATOM      5  N   UNL     1      -4.015 -10.639  13.283  0.00  0.00    -0.190 NA
ATOM      6  N   UNL     1      -2.058 -10.650  14.467  0.00  0.00    -0.056 NA
ATOM     16  C   UNL     1      -2.991 -10.647  12.469  0.00  0.00    +0.245 A 
ATOM     17  C   UNL     1      -3.393 -10.640  14.498  0.00  0.00    +0.204 A 
ENDROOT
BRANCH  17  18
ATOM      7  N   UNL     1      -6.146 -10.014  16.918  0.00  0.00    -0.221 NA
ATOM     18  C   UNL     1      -4.136 -10.633  15.724  0.00  0.00    +0.041 A 
ATOM     19  C   UNL     1      -3.617 -11.205  16.880  0.00  0.00    +0.018 A 
ATOM     20  C   UNL     1      -5.394 -10.055  15.795  0.00  0.00    +0.126 A 
ATOM     21  C   UNL     1      -4.360 -11.182  18.055  0.00  0.00    +0.068 A 
ATOM     22  C   UNL     1      -5.608 -10.580  18.022  0.00  0.00    +0.215 A 
BRANCH  22   2
ATOM      2  O   UNL     1      -6.360 -10.545  19.167  0.00  0.00    -0.474 OA
BRANCH   2  23
ATOM     23  C   UNL     1      -6.961 -11.769  19.574  0.00  0.00    +0.258 C 
BRANCH  23  24
ATOM     24  C   UNL     1      -8.431 -11.745  19.201  0.00  0.00    +0.200 C 
BRANCH  24   3
ATOM      3  O   UNL     1      -9.118 -10.859  20.076  0.00  0.00    -0.380 OA
ATOM     25  C   UNL     1     -10.515 -11.119  20.087  0.00  0.00    +0.194 C 
ENDBRANCH  24   3
ENDBRANCH  23  24
ENDBRANCH   2  23
ENDBRANCH  22   2
ENDBRANCH  17  18
BRANCH  16  12
ATOM      4  N   UNL     1      -4.173 -11.272  10.369  0.00  0.00    -0.291 NA
ATOM     12  C   UNL     1      -2.967 -10.652  10.954  0.00  0.00    +0.146 C 
ATOM     13  C   UNL     1      -4.384 -10.624   9.075  0.00  0.00    +0.085 C 
ATOM     14  C   UNL     1      -2.928  -9.232  10.356  0.00  0.00    +0.030 C 
ATOM     15  C   UNL     1      -4.113  -9.170   9.404  0.00  0.00    +0.017 C 
BRANCH   4  11
ATOM     11  C   UNL     1      -4.071 -12.720  10.247  0.00  0.00    +0.088 C 
BRANCH  11   8
ATOM      8  C   UNL     1      -5.364 -13.386  10.594  0.00  0.00    +0.003 C 
ATOM      9  C   UNL     1      -6.305 -12.709  11.547  0.00  0.00    +0.005 C 
ATOM     10  C   UNL     1      -5.556 -13.936  11.978  0.00  0.00    +0.005 C 
ENDBRANCH  11   8
ENDBRANCH   4  11
ENDBRANCH  16  12
TORSDOF 8
ENDMDL
MODEL 6
REMARK VINA RESULT:      -5.4     27.279     30.380
REMARK  Name = 45783570
REMARK  9 active torsions:
REMARK  status: ('A' for Active; 'I' for Inactive)
REMARK    1  A    between atoms: O_2  and  C_22
REMARK    2  A    between atoms: O_2  and  C_23
REMARK    3  A    between atoms: O_3  and  C_24
REMARK    4  A    between atoms: O_3  and  C_25
REMARK    5  A    between atoms: N_4  and  C_11
REMARK    6  A    between atoms: C_8  and  C_11
REMARK    7  A    between atoms: C_12  and  C_16
REMARK    8  A    between atoms: C_17  and  C_18
REMARK    9  A    between atoms: C_23  and  C_24
REMARK                            x       y       z     vdW  Elec       q    Type
REMARK                         _______ _______ _______ _____ _____    ______ ____
ROOT
ATOM      1  O   UNL     1      -9.107 -11.062  20.077  0.00  0.00    -0.336 OA
ATOM      5  N   UNL     1      -8.459 -10.108  18.157  0.00  0.00    -0.190 NA
ATOM      6  N   UNL     1      -7.753 -11.385  19.918  0.00  0.00    -0.056 NA
ATOM     16  C   UNL     1      -9.443 -10.309  18.997  0.00  0.00    +0.245 A 
ATOM     17  C   UNL     1      -7.444 -10.787  18.765  0.00  0.00    +0.204 A 
ENDROOT
BRANCH  17  18
ATOM      7  N   UNL     1      -4.630 -10.245  16.394  0.00  0.00    -0.221 NA
ATOM     18  C   UNL     1      -6.131 -10.848  18.192  0.00  0.00    +0.041 A 
ATOM     19  C   UNL     1      -5.102 -11.534  18.829  0.00  0.00    +0.018 A 
ATOM     20  C   UNL     1      -5.845 -10.226  16.987  0.00  0.00    +0.126 A 
ATOM     21  C   UNL     1      -3.839 -11.577  18.250  0.00  0.00    +0.068 A 
ATOM     22  C   UNL     1      -3.657 -10.923  17.042  0.00  0.00    +0.215 A 
BRANCH  22   2
ATOM      2  O   UNL     1      -2.420 -10.950  16.452  0.00  0.00    -0.474 OA
BRANCH   2  23
ATOM     23  C   UNL     1      -2.377 -10.726  15.048  0.00  0.00    +0.258 C 
BRANCH  23  24
ATOM     24  C   UNL     1      -2.067 -12.034  14.347  0.00  0.00    +0.200 C 
BRANCH  24   3
ATOM      3  O   UNL     1      -1.897 -11.787  12.956  0.00  0.00    -0.380 OA
ATOM     25  C   UNL     1      -2.477 -10.548  12.573  0.00  0.00    +0.194 C 
ENDBRANCH  24   3
ENDBRANCH  23  24
ENDBRANCH   2  23
ENDBRANCH  22   2
ENDBRANCH  17  18
BRANCH  16  12
ATOM      4  N   UNL     1     -11.593 -10.332  17.743  0.00  0.00    -0.291 NA
ATOM     12  C   UNL     1     -10.877  -9.825  18.931  0.00  0.00    +0.146 C 
ATOM     13  C   UNL     1     -13.003 -10.426  18.120  0.00  0.00    +0.085 C 
ATOM     14  C   UNL     1     -11.720 -10.301  20.129  0.00  0.00    +0.030 C 
ATOM     15  C   UNL     1     -12.917 -11.011  19.515  0.00  0.00    +0.017 C 
BRANCH   4  11
ATOM     11  C   UNL     1     -11.395  -9.508  16.559  0.00  0.00    +0.088 C 
BRANCH  11   8
ATOM      8  C   UNL     1     -11.531  -8.054  16.880  0.00  0.00    +0.003 C 
ATOM      9  C   UNL     1     -11.953  -7.101  15.800  0.00  0.00    +0.005 C 
ATOM     10  C   UNL     1     -10.541  -7.082  16.307  0.00  0.00    +0.005 C 
ENDBRANCH  11   8
ENDBRANCH   4  11
ENDBRANCH  16  12
TORSDOF 8
ENDMDL
MODEL 7
REMARK VINA RESULT:      -5.4      2.108      9.235
REMARK  Name = 45783570
REMARK  9 active torsions:
REMARK  status: ('A' for Active; 'I' for Inactive)
REMARK    1  A    between atoms: O_2  and  C_22
REMARK    2  A    between atoms: O_2  and  C_23
REMARK    3  A    between atoms: O_3  and  C_24
REMARK    4  A    between atoms: O_3  and  C_25
REMARK    5  A    between atoms: N_4  and  C_11
REMARK    6  A    between atoms: C_8  and  C_11
REMARK    7  A    between atoms: C_12  and  C_16
REMARK    8  A    between atoms: C_17  and  C_18
REMARK    9  A    between atoms: C_23  and  C_24
REMARK                            x       y       z     vdW  Elec       q    Type
REMARK                         _______ _______ _______ _____ _____    ______ ____
ROOT
ATOM      1  O   UNL     1      20.186   4.896  20.081  0.00  0.00    -0.336 OA
ATOM      5  N   UNL     1      19.495   6.781  21.075  0.00  0.00    -0.190 NA
ATOM      6  N   UNL     1      18.848   5.067  19.705  0.00  0.00    -0.056 NA
ATOM     16  C   UNL     1      20.487   5.949  20.887  0.00  0.00    +0.245 A 
ATOM     17  C   UNL     1      18.511   6.199  20.330  0.00  0.00    +0.204 A 
ENDROOT
BRANCH  17  18
ATOM      7  N   UNL     1      15.003   6.748  19.226  0.00  0.00    -0.221 NA
ATOM     18  C   UNL     1      17.201   6.774  20.232  0.00  0.00    +0.041 A 
ATOM     19  C   UNL     1      16.842   7.874  21.004  0.00  0.00    +0.018 A 
ATOM     20  C   UNL     1      16.254   6.253  19.365  0.00  0.00    +0.126 A 
ATOM     21  C   UNL     1      15.565   8.411  20.887  0.00  0.00    +0.068 A 
ATOM     22  C   UNL     1      14.691   7.817  19.991  0.00  0.00    +0.215 A 
BRANCH  22   2
ATOM      2  O   UNL     1      13.426   8.328  19.859  0.00  0.00    -0.474 OA
BRANCH   2  23
ATOM     23  C   UNL     1      12.828   8.866  21.032  0.00  0.00    +0.258 C 
BRANCH  23  24
ATOM     24  C   UNL     1      11.438   8.281  21.192  0.00  0.00    +0.200 C 
BRANCH  24   3
ATOM      3  O   UNL     1      11.388   7.018  20.538  0.00  0.00    -0.380 OA
ATOM     25  C   UNL     1      11.272   5.953  21.471  0.00  0.00    +0.194 C 
ENDBRANCH  24   3
ENDBRANCH  23  24
ENDBRANCH   2  23
ENDBRANCH  22   2
ENDBRANCH  17  18
BRANCH  16  12
ATOM      4  N   UNL     1      22.801   5.041  20.760  0.00  0.00    -0.291 NA
ATOM     12  C   UNL     1      21.899   5.997  21.434  0.00  0.00    +0.146 C 
ATOM     13  C   UNL     1      24.141   5.625  20.821  0.00  0.00    +0.085 C 
ATOM     14  C   UNL     1      22.567   7.371  21.237  0.00  0.00    +0.030 C 
ATOM     15  C   UNL     1      23.864   7.080  20.498  0.00  0.00    +0.017 C 
BRANCH   4  11
ATOM     11  C   UNL     1      22.759   3.705  21.340  0.00  0.00    +0.088 C 
BRANCH  11   8
ATOM      8  C   UNL     1      24.021   2.953  21.062  0.00  0.00    +0.003 C 
ATOM      9  C   UNL     1      23.993   1.453  21.054  0.00  0.00    +0.005 C 
ATOM     10  C   UNL     1      24.674   2.184  22.173  0.00  0.00    +0.005 C 
ENDBRANCH  11   8
ENDBRANCH   4  11
ENDBRANCH  16  12
TORSDOF 8
ENDMDL
MODEL 8
REMARK VINA RESULT:      -5.4      5.201      7.862
REMARK  Name = 45783570
REMARK  9 active torsions:
REMARK  status: ('A' for Active; 'I' for Inactive)
REMARK    1  A    between atoms: O_2  and  C_22
REMARK    2  A    between atoms: O_2  and  C_23
REMARK    3  A    between atoms: O_3  and  C_24
REMARK    4  A    between atoms: O_3  and  C_25
REMARK    5  A    between atoms: N_4  and  C_11
REMARK    6  A    between atoms: C_8  and  C_11
REMARK    7  A    between atoms: C_12  and  C_16
REMARK    8  A    between atoms: C_17  and  C_18
REMARK    9  A    between atoms: C_23  and  C_24
REMARK                            x       y       z     vdW  Elec       q    Type
REMARK                         _______ _______ _______ _____ _____    ______ ____
ROOT
ATOM      1  O   UNL     1      12.288   8.168  16.904  0.00  0.00    -0.336 OA
ATOM      5  N   UNL     1      13.783   9.432  17.993  0.00  0.00    -0.190 NA
ATOM      6  N   UNL     1      12.952   8.918  15.924  0.00  0.00    -0.056 NA
ATOM     16  C   UNL     1      12.839   8.532  18.092  0.00  0.00    +0.245 A 
ATOM     17  C   UNL     1      13.817   9.637  16.644  0.00  0.00    +0.204 A 
ENDROOT
BRANCH  17  18
ATOM      7  N   UNL     1      16.083  12.562  16.264  0.00  0.00    -0.221 NA
ATOM     18  C   UNL     1      14.729  10.570  16.048  0.00  0.00    +0.041 A 
ATOM     19  C   UNL     1      15.146  10.422  14.730  0.00  0.00    +0.018 A 
ATOM     20  C   UNL     1      15.222  11.648  16.766  0.00  0.00    +0.126 A 
ATOM     21  C   UNL     1      16.030  11.342  14.178  0.00  0.00    +0.068 A 
ATOM     22  C   UNL     1      16.465  12.385  14.980  0.00  0.00    +0.215 A 
BRANCH  22   2
ATOM      2  O   UNL     1      17.337  13.305  14.459  0.00  0.00    -0.474 OA
BRANCH   2  23
ATOM     23  C   UNL     1      18.719  12.968  14.495  0.00  0.00    +0.258 C 
BRANCH  23  24
ATOM     24  C   UNL     1      19.235  12.846  13.074  0.00  0.00    +0.200 C 
BRANCH  24   3
ATOM      3  O   UNL     1      20.083  11.707  12.985  0.00  0.00    -0.380 OA
ATOM     25  C   UNL     1      20.103  10.976  14.204  0.00  0.00    +0.194 C 
ENDBRANCH  24   3
ENDBRANCH  23  24
ENDBRANCH   2  23
ENDBRANCH  22   2
ENDBRANCH  17  18
BRANCH  16  12
ATOM      4  N   UNL     1      13.238   7.862  20.456  0.00  0.00    -0.291 NA
ATOM     12  C   UNL     1      12.285   7.852  19.328  0.00  0.00    +0.146 C 
ATOM     13  C   UNL     1      12.432   7.864  21.677  0.00  0.00    +0.085 C 
ATOM     14  C   UNL     1      11.024   8.547  19.874  0.00  0.00    +0.030 C 
ATOM     15  C   UNL     1      11.340   8.856  21.330  0.00  0.00    +0.017 C 
BRANCH   4  11
ATOM     11  C   UNL     1      14.179   6.751  20.423  0.00  0.00    +0.088 C 
BRANCH  11   8
ATOM      8  C   UNL     1      15.583   7.234  20.250  0.00  0.00    +0.003 C 
ATOM      9  C   UNL     1      16.601   6.323  19.628  0.00  0.00    +0.005 C 
ATOM     10  C   UNL     1      16.672   6.636  21.094  0.00  0.00    +0.005 C 
ENDBRANCH  11   8
ENDBRANCH   4  11
ENDBRANCH  16  12
TORSDOF 8
ENDMDL
MODEL 9
REMARK VINA RESULT:      -5.3      1.593      2.888
REMARK  Name = 45783570
REMARK  9 active torsions:
REMARK  status: ('A' for Active; 'I' for Inactive)
REMARK    1  A    between atoms: O_2  and  C_22
REMARK    2  A    between atoms: O_2  and  C_23
REMARK    3  A    between atoms: O_3  and  C_24
REMARK    4  A    between atoms: O_3  and  C_25
REMARK    5  A    between atoms: N_4  and  C_11
REMARK    6  A    between atoms: C_8  and  C_11
REMARK    7  A    between atoms: C_12  and  C_16
REMARK    8  A    between atoms: C_17  and  C_18
REMARK    9  A    between atoms: C_23  and  C_24
REMARK                            x       y       z     vdW  Elec       q    Type
REMARK                         _______ _______ _______ _____ _____    ______ ____
ROOT
ATOM      1  O   UNL     1      16.424   9.257  20.904  0.00  0.00    -0.336 OA
ATOM      5  N   UNL     1      16.540   7.023  20.781  0.00  0.00    -0.190 NA
ATOM      6  N   UNL     1      17.756   8.920  21.174  0.00  0.00    -0.056 NA
ATOM     16  C   UNL     1      15.777   8.082  20.684  0.00  0.00    +0.245 A 
ATOM     17  C   UNL     1      17.745   7.588  21.083  0.00  0.00    +0.204 A 
ENDROOT
BRANCH  17  18
ATOM      7  N   UNL     1      20.397   5.047  20.499  0.00  0.00    -0.221 NA
ATOM     18  C   UNL     1      18.919   6.791  21.288  0.00  0.00    +0.041 A 
ATOM     19  C   UNL     1      19.710   6.957  22.420  0.00  0.00    +0.018 A 
ATOM     20  C   UNL     1      19.303   5.830  20.366  0.00  0.00    +0.126 A 
ATOM     21  C   UNL     1      20.843   6.169  22.593  0.00  0.00    +0.068 A 
ATOM     22  C   UNL     1      21.140   5.237  21.611  0.00  0.00    +0.215 A 
BRANCH  22   2
ATOM      2  O   UNL     1      22.252   4.449  21.759  0.00  0.00    -0.474 OA
BRANCH   2  23
ATOM     23  C   UNL     1      23.498   5.121  21.894  0.00  0.00    +0.258 C 
BRANCH  23  24
ATOM     24  C   UNL     1      24.311   4.915  20.631  0.00  0.00    +0.200 C 
BRANCH  24   3
ATOM      3  O   UNL     1      25.160   3.787  20.804  0.00  0.00    -0.380 OA
ATOM     25  C   UNL     1      24.765   2.706  19.971  0.00  0.00    +0.194 C 
ENDBRANCH  24   3
ENDBRANCH  23  24
ENDBRANCH   2  23
ENDBRANCH  22   2
ENDBRANCH  17  18
BRANCH  16  12
ATOM      4  N   UNL     1      13.887   7.234  19.304  0.00  0.00    -0.291 NA
ATOM     12  C   UNL     1      14.299   8.175  20.365  0.00  0.00    +0.146 C 
ATOM     13  C   UNL     1      12.488   6.901  19.568  0.00  0.00    +0.085 C 
ATOM     14  C   UNL     1      13.407   7.821  21.570  0.00  0.00    +0.030 C 
ATOM     15  C   UNL     1      12.488   6.715  21.072  0.00  0.00    +0.017 C 
BRANCH   4  11
ATOM     11  C   UNL     1      14.080   7.764  17.960  0.00  0.00    +0.088 C 
BRANCH  11   8
ATOM      8  C   UNL     1      12.977   8.699  17.582  0.00  0.00    +0.003 C 
ATOM      9  C   UNL     1      12.926   9.245  16.185  0.00  0.00    +0.005 C 
ATOM     10  C   UNL     1      13.296  10.143  17.329  0.00  0.00    +0.005 C 
ENDBRANCH  11   8
ENDBRANCH   4  11
ENDBRANCH  16  12
TORSDOF 8
ENDMDL
MODEL 10
REMARK VINA RESULT:      -5.3     30.046     32.309
REMARK  Name = 45783570
REMARK  9 active torsions:
REMARK  status: ('A' for Active; 'I' for Inactive)
REMARK    1  A    between atoms: O_2  and  C_22
REMARK    2  A    between atoms: O_2  and  C_23
REMARK    3  A    between atoms: O_3  and  C_24
REMARK    4  A    between atoms: O_3  and  C_25
REMARK    5  A    between atoms: N_4  and  C_11
REMARK    6  A    between atoms: C_8  and  C_11
REMARK    7  A    between atoms: C_12  and  C_16
REMARK    8  A    between atoms: C_17  and  C_18
REMARK    9  A    between atoms: C_23  and  C_24
REMARK                            x       y       z     vdW  Elec       q    Type
REMARK                         _______ _______ _______ _____ _____    ______ ____
ROOT
ATOM      1  O   UNL     1     -13.454  -6.344  12.951  0.00  0.00    -0.336 OA
ATOM      5  N   UNL     1     -11.824  -5.436  14.189  0.00  0.00    -0.190 NA
ATOM      6  N   UNL     1     -12.870  -7.400  13.662  0.00  0.00    -0.056 NA
ATOM     16  C   UNL     1     -12.779  -5.224  13.320  0.00  0.00    +0.245 A 
ATOM     17  C   UNL     1     -11.918  -6.785  14.369  0.00  0.00    +0.204 A 
ENDROOT
BRANCH  17  18
ATOM      7  N   UNL     1      -9.472  -9.290  15.622  0.00  0.00    -0.221 NA
ATOM     18  C   UNL     1     -11.044  -7.489  15.262  0.00  0.00    +0.041 A 
ATOM     19  C   UNL     1     -10.905  -7.093  16.588  0.00  0.00    +0.018 A 
ATOM     20  C   UNL     1     -10.312  -8.585  14.832  0.00  0.00    +0.126 A 
ATOM     21  C   UNL     1     -10.051  -7.795  17.431  0.00  0.00    +0.068 A 
ATOM     22  C   UNL     1      -9.363  -8.876  16.904  0.00  0.00    +0.215 A 
BRANCH  22   2
ATOM      2  O   UNL     1      -8.514  -9.584  17.716  0.00  0.00    -0.474 OA
BRANCH   2  23
ATOM     23  C   UNL     1      -9.107 -10.559  18.565  0.00  0.00    +0.258 C 
BRANCH  23  24
ATOM     24  C   UNL     1      -8.056 -11.579  18.956  0.00  0.00    +0.200 C 
BRANCH  24   3
ATOM      3  O   UNL     1      -7.304 -11.073  20.053  0.00  0.00    -0.380 OA
ATOM     25  C   UNL     1      -5.907 -11.206  19.832  0.00  0.00    +0.194 C 
ENDBRANCH  24   3
ENDBRANCH  23  24
ENDBRANCH   2  23
ENDBRANCH  22   2
ENDBRANCH  17  18
BRANCH  16  12
ATOM      4  N   UNL     1     -13.064  -3.929  11.214  0.00  0.00    -0.291 NA
ATOM     12  C   UNL     1     -13.226  -3.925  12.682  0.00  0.00    +0.146 C 
ATOM     13  C   UNL     1     -14.100  -3.044  10.682  0.00  0.00    +0.085 C 
ATOM     14  C   UNL     1     -14.723  -3.636  12.909  0.00  0.00    +0.030 C 
ATOM     15  C   UNL     1     -15.303  -3.432  11.518  0.00  0.00    +0.017 C 
BRANCH   4  11
ATOM     11  C   UNL     1     -11.730  -3.532  10.784  0.00  0.00    +0.088 C 
BRANCH  11   8
ATOM      8  C   UNL     1     -11.518  -3.824   9.333  0.00  0.00    +0.003 C 
ATOM      9  C   UNL     1     -11.369  -5.249   8.886  0.00  0.00    +0.005 C 
ATOM     10  C   UNL     1     -10.182  -4.331   8.876  0.00  0.00    +0.005 C 
ENDBRANCH  11   8
ENDBRANCH   4  11
ENDBRANCH  16  12
TORSDOF 8
ENDMDL
