MODEL 1
REMARK VINA RESULT:      -7.3      0.000      0.000
REMARK  Name = 11879846
REMARK  7 active torsions:
REMARK  status: ('A' for Active; 'I' for Inactive)
REMARK    1  A    between atoms: S_1  and  N_11
REMARK    2  A    between atoms: S_1  and  C_25
REMARK    3  A    between atoms: O_4  and  C_24
REMARK    4  A    between atoms: O_8  and  C_30
REMARK    5  A    between atoms: O_8  and  C_31
REMARK    6  A    between atoms: N_11  and  C_22
REMARK    7  A    between atoms: C_21  and  C_24
REMARK                            x       y       z     vdW  Elec       q    Type
REMARK                         _______ _______ _______ _____ _____    ______ ____
ROOT
ATOM      2  O   UNL     1      13.725   7.225   3.888  0.00  0.00    -0.266 OA
ATOM      3  O   UNL     1       9.704   4.190   6.325  0.00  0.00    -0.263 OA
ATOM      9  N   UNL     1      11.387   7.365   3.961  0.00  0.00    -0.310 N 
ATOM     10  N   UNL     1       9.325   6.496   6.275  0.00  0.00    -0.291 N 
ATOM     12  C   UNL     1      10.127   8.790   5.671  0.00  0.00    +0.027 C 
ATOM     13  C   UNL     1       8.869   7.465   4.026  0.00  0.00    +0.054 C 
ATOM     14  C   UNL     1       9.042   8.867   4.605  0.00  0.00    +0.018 C 
ATOM     15  C   UNL     1      11.450   8.396   5.004  0.00  0.00    +0.130 C 
ATOM     16  C   UNL     1       9.730   7.806   6.788  0.00  0.00    +0.113 C 
ATOM     17  C   UNL     1       8.402   6.509   5.138  0.00  0.00    +0.118 C 
ATOM     18  C   UNL     1      10.162   6.955   3.417  0.00  0.00    +0.027 A 
ATOM     19  C   UNL     1      10.130   6.097   2.381  0.00  0.00    +0.024 A 
ATOM     20  C   UNL     1      12.619   6.891   3.464  0.00  0.00    +0.274 A 
ATOM     21  C   UNL     1       9.655   5.284   6.874  0.00  0.00    +0.324 C 
ATOM     22  C   UNL     1      12.517   5.929   2.338  0.00  0.00    +0.112 A 
ATOM     23  C   UNL     1      11.343   5.565   1.821  0.00  0.00    +0.031 A 
ENDROOT
BRANCH  21  24
ATOM      5  O   UNL     1       9.145   4.966   9.167  0.00  0.00    -0.240 OA
ATOM     24  C   UNL     1       9.991   5.157   8.316  0.00  0.00    +0.392 C 
BRANCH  24   4
ATOM      4  O   UNL     1      11.315   5.279   8.474  0.00  0.00    -0.474 OA
ATOM     33  H   UNL     1      11.801   4.480   8.180  0.00  0.00    +0.296 HD
ENDBRANCH  24   4
ENDBRANCH  21  24
BRANCH  22  11
ATOM     11  N   UNL     1      13.680   5.382   1.766  0.00  0.00    -0.211 N 
ATOM     32  H   UNL     1      14.055   5.955   0.998  0.00  0.00    +0.174 HD
BRANCH  11   1
ATOM      1  S   UNL     1      13.679   3.716   1.466  0.00  0.00    +0.073 S 
ATOM      6  O   UNL     1      14.975   3.158   1.802  0.00  0.00    -0.150 OA
ATOM      7  O   UNL     1      12.467   3.124   2.002  0.00  0.00    -0.150 OA
BRANCH   1  25
ATOM     25  C   UNL     1      13.539   3.700  -0.298  0.00  0.00    +0.109 A 
ATOM     26  C   UNL     1      12.476   3.038  -0.885  0.00  0.00    +0.032 A 
ATOM     27  C   UNL     1      14.498   4.347  -1.056  0.00  0.00    +0.032 A 
ATOM     28  C   UNL     1      12.367   3.024  -2.275  0.00  0.00    +0.047 A 
ATOM     29  C   UNL     1      14.390   4.334  -2.447  0.00  0.00    +0.047 A 
ATOM     30  C   UNL     1      13.324   3.672  -3.056  0.00  0.00    +0.120 A 
BRANCH  30   8
ATOM      8  O   UNL     1      13.218   3.658  -4.413  0.00  0.00    -0.495 OA
ATOM     31  C   UNL     1      11.966   3.251  -4.962  0.00  0.00    +0.277 C 
ENDBRANCH  30   8
ENDBRANCH   1  25
ENDBRANCH  11   1
ENDBRANCH  22  11
TORSDOF 6
ENDMDL
MODEL 2
REMARK VINA RESULT:      -7.2      2.119      2.730
REMARK  Name = 11879846
REMARK  7 active torsions:
REMARK  status: ('A' for Active; 'I' for Inactive)
REMARK    1  A    between atoms: S_1  and  N_11
REMARK    2  A    between atoms: S_1  and  C_25
REMARK    3  A    between atoms: O_4  and  C_24
REMARK    4  A    between atoms: O_8  and  C_30
REMARK    5  A    between atoms: O_8  and  C_31
REMARK    6  A    between atoms: N_11  and  C_22
REMARK    7  A    between atoms: C_21  and  C_24
REMARK                            x       y       z     vdW  Elec       q    Type
REMARK                         _______ _______ _______ _____ _____    ______ ____
ROOT
ATOM      2  O   UNL     1      12.495   7.647   3.078  0.00  0.00    -0.266 OA
ATOM      3  O   UNL     1       9.129   5.280   6.871  0.00  0.00    -0.263 OA
ATOM      9  N   UNL     1      10.655   8.392   4.324  0.00  0.00    -0.310 N 
ATOM     10  N   UNL     1       9.644   7.527   7.255  0.00  0.00    -0.291 N 
ATOM     12  C   UNL     1      10.884   9.592   6.571  0.00  0.00    +0.027 C 
ATOM     13  C   UNL     1       8.649   9.150   5.649  0.00  0.00    +0.054 C 
ATOM     14  C   UNL     1       9.558  10.244   6.205  0.00  0.00    +0.018 C 
ATOM     15  C   UNL     1      11.538   9.048   5.296  0.00  0.00    +0.130 C 
ATOM     16  C   UNL     1      10.681   8.490   7.629  0.00  0.00    +0.113 C 
ATOM     17  C   UNL     1       8.396   8.096   6.740  0.00  0.00    +0.118 C 
ATOM     18  C   UNL     1       9.261   8.492   4.426  0.00  0.00    +0.027 A 
ATOM     19  C   UNL     1       8.469   7.986   3.462  0.00  0.00    +0.024 A 
ATOM     20  C   UNL     1      11.278   7.753   3.232  0.00  0.00    +0.274 A 
ATOM     21  C   UNL     1       9.729   6.157   7.481  0.00  0.00    +0.324 C 
ATOM     22  C   UNL     1      10.353   7.194   2.215  0.00  0.00    +0.112 A 
ATOM     23  C   UNL     1       9.029   7.314   2.320  0.00  0.00    +0.031 A 
ENDROOT
BRANCH  21  24
ATOM      5  O   UNL     1      10.139   5.205   9.612  0.00  0.00    -0.240 OA
ATOM     24  C   UNL     1      10.584   5.561   8.539  0.00  0.00    +0.392 C 
BRANCH  24   4
ATOM      4  O   UNL     1      11.848   5.494   8.102  0.00  0.00    -0.474 OA
ATOM     33  H   UNL     1      12.475   5.943   8.708  0.00  0.00    +0.296 HD
ENDBRANCH  24   4
ENDBRANCH  21  24
BRANCH  22  11
ATOM     11  N   UNL     1      10.859   6.526   1.086  0.00  0.00    -0.211 N 
ATOM     32  H   UNL     1      10.524   6.928   0.200  0.00  0.00    +0.174 HD
BRANCH  11   1
ATOM      1  S   UNL     1      10.869   4.834   1.132  0.00  0.00    +0.073 S 
ATOM      6  O   UNL     1      10.659   4.381   2.494  0.00  0.00    -0.150 OA
ATOM      7  O   UNL     1      10.050   4.311   0.054  0.00  0.00    -0.150 OA
BRANCH   1  25
ATOM     25  C   UNL     1      12.557   4.503   0.722  0.00  0.00    +0.109 A 
ATOM     26  C   UNL     1      13.023   4.834  -0.538  0.00  0.00    +0.032 A 
ATOM     27  C   UNL     1      13.379   3.918   1.668  0.00  0.00    +0.032 A 
ATOM     28  C   UNL     1      14.354   4.571  -0.862  0.00  0.00    +0.047 A 
ATOM     29  C   UNL     1      14.711   3.655   1.345  0.00  0.00    +0.047 A 
ATOM     30  C   UNL     1      15.198   3.982   0.079  0.00  0.00    +0.120 A 
BRANCH  30   8
ATOM      8  O   UNL     1      16.497   3.727  -0.237  0.00  0.00    -0.495 OA
ATOM     31  C   UNL     1      17.029   4.390  -1.381  0.00  0.00    +0.277 C 
ENDBRANCH  30   8
ENDBRANCH   1  25
ENDBRANCH  11   1
ENDBRANCH  22  11
TORSDOF 6
ENDMDL
MODEL 3
REMARK VINA RESULT:      -7.2      4.311      6.229
REMARK  Name = 11879846
REMARK  7 active torsions:
REMARK  status: ('A' for Active; 'I' for Inactive)
REMARK    1  A    between atoms: S_1  and  N_11
REMARK    2  A    between atoms: S_1  and  C_25
REMARK    3  A    between atoms: O_4  and  C_24
REMARK    4  A    between atoms: O_8  and  C_30
REMARK    5  A    between atoms: O_8  and  C_31
REMARK    6  A    between atoms: N_11  and  C_22
REMARK    7  A    between atoms: C_21  and  C_24
REMARK                            x       y       z     vdW  Elec       q    Type
REMARK                         _______ _______ _______ _____ _____    ______ ____
ROOT
ATOM      2  O   UNL     1      13.605   8.542   6.948  0.00  0.00    -0.266 OA
ATOM      3  O   UNL     1      10.076   4.294   7.852  0.00  0.00    -0.263 OA
ATOM      9  N   UNL     1      11.398   8.085   6.309  0.00  0.00    -0.310 N 
ATOM     10  N   UNL     1       9.099   6.418   7.824  0.00  0.00    -0.291 N 
ATOM     12  C   UNL     1       9.365   8.900   7.630  0.00  0.00    +0.027 C 
ATOM     13  C   UNL     1       9.038   7.546   5.604  0.00  0.00    +0.054 C 
ATOM     14  C   UNL     1       8.644   8.853   6.289  0.00  0.00    +0.018 C 
ATOM     15  C   UNL     1      10.876   8.945   7.379  0.00  0.00    +0.130 C 
ATOM     16  C   UNL     1       8.962   7.703   8.512  0.00  0.00    +0.113 C 
ATOM     17  C   UNL     1       8.565   6.359   6.461  0.00  0.00    +0.118 C 
ATOM     18  C   UNL     1      10.539   7.464   5.392  0.00  0.00    +0.027 A 
ATOM     19  C   UNL     1      11.038   6.778   4.348  0.00  0.00    +0.024 A 
ATOM     20  C   UNL     1      12.800   8.007   6.187  0.00  0.00    +0.274 A 
ATOM     21  C   UNL     1       9.573   5.255   8.423  0.00  0.00    +0.324 C 
ATOM     22  C   UNL     1      13.291   7.216   5.030  0.00  0.00    +0.112 A 
ATOM     23  C   UNL     1      12.458   6.647   4.157  0.00  0.00    +0.031 A 
ENDROOT
BRANCH  21  24
ATOM      5  O   UNL     1      10.512   4.919  10.573  0.00  0.00    -0.240 OA
ATOM     24  C   UNL     1       9.514   5.015   9.888  0.00  0.00    +0.392 C 
BRANCH  24   4
ATOM      4  O   UNL     1       8.233   4.938  10.272  0.00  0.00    -0.474 OA
ATOM     33  H   UNL     1       8.140   4.878  11.247  0.00  0.00    +0.296 HD
ENDBRANCH  24   4
ENDBRANCH  21  24
BRANCH  22  11
ATOM     11  N   UNL     1      14.671   7.061   4.811  0.00  0.00    -0.211 N 
ATOM     32  H   UNL     1      15.205   6.964   5.684  0.00  0.00    +0.174 HD
BRANCH  11   1
ATOM      1  S   UNL     1      15.386   8.072   3.656  0.00  0.00    +0.073 S 
ATOM      6  O   UNL     1      15.585   7.339   2.421  0.00  0.00    -0.150 OA
ATOM      7  O   UNL     1      14.708   9.355   3.644  0.00  0.00    -0.150 OA
BRANCH   1  25
ATOM     25  C   UNL     1      16.979   8.323   4.382  0.00  0.00    +0.109 A 
ATOM     26  C   UNL     1      18.109   8.177   3.597  0.00  0.00    +0.032 A 
ATOM     27  C   UNL     1      17.065   8.660   5.721  0.00  0.00    +0.032 A 
ATOM     28  C   UNL     1      19.366   8.373   4.171  0.00  0.00    +0.047 A 
ATOM     29  C   UNL     1      18.321   8.857   6.295  0.00  0.00    +0.047 A 
ATOM     30  C   UNL     1      19.472   8.713   5.519  0.00  0.00    +0.120 A 
BRANCH  30   8
ATOM      8  O   UNL     1      20.698   8.906   6.078  0.00  0.00    -0.495 OA
ATOM     31  C   UNL     1      21.763   8.083   5.606  0.00  0.00    +0.277 C 
ENDBRANCH  30   8
ENDBRANCH   1  25
ENDBRANCH  11   1
ENDBRANCH  22  11
TORSDOF 6
ENDMDL
MODEL 4
REMARK VINA RESULT:      -7.2     24.553     27.723
REMARK  Name = 11879846
REMARK  7 active torsions:
REMARK  status: ('A' for Active; 'I' for Inactive)
REMARK    1  A    between atoms: S_1  and  N_11
REMARK    2  A    between atoms: S_1  and  C_25
REMARK    3  A    between atoms: O_4  and  C_24
REMARK    4  A    between atoms: O_8  and  C_30
REMARK    5  A    between atoms: O_8  and  C_31
REMARK    6  A    between atoms: N_11  and  C_22
REMARK    7  A    between atoms: C_21  and  C_24
REMARK                            x       y       z     vdW  Elec       q    Type
REMARK                         _______ _______ _______ _____ _____    ______ ____
ROOT
ATOM      2  O   UNL     1      -3.822 -11.567  18.170  0.00  0.00    -0.266 OA
ATOM      3  O   UNL     1      -8.080 -14.153  15.621  0.00  0.00    -0.263 OA
ATOM      9  N   UNL     1      -6.134 -11.201  18.071  0.00  0.00    -0.310 N 
ATOM     10  N   UNL     1      -8.557 -13.296  17.743  0.00  0.00    -0.291 N 
ATOM     12  C   UNL     1      -7.769 -12.122  19.810  0.00  0.00    +0.027 C 
ATOM     13  C   UNL     1      -8.620 -10.811  17.912  0.00  0.00    +0.054 C 
ATOM     14  C   UNL     1      -8.631 -10.924  19.434  0.00  0.00    +0.018 C 
ATOM     15  C   UNL     1      -6.325 -11.848  19.375  0.00  0.00    +0.130 C 
ATOM     16  C   UNL     1      -8.324 -13.416  19.183  0.00  0.00    +0.113 C 
ATOM     17  C   UNL     1      -9.243 -12.079  17.303  0.00  0.00    +0.118 C 
ATOM     18  C   UNL     1      -7.210 -10.624  17.382  0.00  0.00    +0.027 A 
ATOM     19  C   UNL     1      -6.999  -9.932  16.248  0.00  0.00    +0.024 A 
ATOM     20  C   UNL     1      -4.808 -11.097  17.603  0.00  0.00    +0.274 A 
ATOM     21  C   UNL     1      -8.288 -14.301  16.819  0.00  0.00    +0.324 C 
ATOM     22  C   UNL     1      -4.643 -10.343  16.335  0.00  0.00    +0.112 A 
ATOM     23  C   UNL     1      -5.676  -9.785  15.703  0.00  0.00    +0.031 A 
ENDROOT
BRANCH  21  24
ATOM      5  O   UNL     1      -9.229 -16.403  17.380  0.00  0.00    -0.240 OA
ATOM     24  C   UNL     1      -8.230 -15.741  17.182  0.00  0.00    +0.392 C 
BRANCH  24   4
ATOM      4  O   UNL     1      -6.950 -16.132  17.236  0.00  0.00    -0.474 OA
ATOM     33  H   UNL     1      -6.853 -17.035  17.606  0.00  0.00    +0.296 HD
ENDBRANCH  24   4
ENDBRANCH  21  24
BRANCH  22  11
ATOM     11  N   UNL     1      -3.366 -10.181  15.768  0.00  0.00    -0.211 N 
ATOM     32  H   UNL     1      -3.215  -9.237  15.389  0.00  0.00    +0.174 HD
BRANCH  11   1
ATOM      1  S   UNL     1      -2.798 -11.435  14.782  0.00  0.00    +0.073 S 
ATOM      6  O   UNL     1      -1.373 -11.610  14.987  0.00  0.00    -0.150 OA
ATOM      7  O   UNL     1      -3.695 -12.572  14.872  0.00  0.00    -0.150 OA
BRANCH   1  25
ATOM     25  C   UNL     1      -3.015 -10.716  13.180  0.00  0.00    +0.109 A 
ATOM     26  C   UNL     1      -4.291 -10.601  12.659  0.00  0.00    +0.032 A 
ATOM     27  C   UNL     1      -1.903 -10.285  12.478  0.00  0.00    +0.032 A 
ATOM     28  C   UNL     1      -4.461 -10.037  11.394  0.00  0.00    +0.047 A 
ATOM     29  C   UNL     1      -2.073  -9.720  11.214  0.00  0.00    +0.047 A 
ATOM     30  C   UNL     1      -3.352  -9.596  10.672  0.00  0.00    +0.120 A 
BRANCH  30   8
ATOM      8  O   UNL     1      -3.519  -9.045   9.439  0.00  0.00    -0.495 OA
ATOM     31  C   UNL     1      -4.642  -9.484   8.678  0.00  0.00    +0.277 C 
ENDBRANCH  30   8
ENDBRANCH   1  25
ENDBRANCH  11   1
ENDBRANCH  22  11
TORSDOF 6
ENDMDL
MODEL 5
REMARK VINA RESULT:      -7.2     18.425     22.474
REMARK  Name = 11879846
REMARK  7 active torsions:
REMARK  status: ('A' for Active; 'I' for Inactive)
REMARK    1  A    between atoms: S_1  and  N_11
REMARK    2  A    between atoms: S_1  and  C_25
REMARK    3  A    between atoms: O_4  and  C_24
REMARK    4  A    between atoms: O_8  and  C_30
REMARK    5  A    between atoms: O_8  and  C_31
REMARK    6  A    between atoms: N_11  and  C_22
REMARK    7  A    between atoms: C_21  and  C_24
REMARK                            x       y       z     vdW  Elec       q    Type
REMARK                         _______ _______ _______ _____ _____    ______ ____
ROOT
ATOM      2  O   UNL     1      20.900   3.890  20.461  0.00  0.00    -0.266 OA
ATOM      3  O   UNL     1      23.720   4.229  25.283  0.00  0.00    -0.263 OA
ATOM      9  N   UNL     1      23.165   3.752  21.044  0.00  0.00    -0.310 N 
ATOM     10  N   UNL     1      24.554   2.680  23.743  0.00  0.00    -0.291 N 
ATOM     12  C   UNL     1      24.351   1.537  21.525  0.00  0.00    +0.027 C 
ATOM     13  C   UNL     1      25.597   3.648  21.699  0.00  0.00    +0.054 C 
ATOM     14  C   UNL     1      25.605   2.263  21.058  0.00  0.00    +0.018 C 
ATOM     15  C   UNL     1      23.120   2.285  20.999  0.00  0.00    +0.130 C 
ATOM     16  C   UNL     1      24.332   1.404  23.060  0.00  0.00    +0.113 C 
ATOM     17  C   UNL     1      25.653   3.501  23.229  0.00  0.00    +0.118 C 
ATOM     18  C   UNL     1      24.362   4.434  21.301  0.00  0.00    +0.027 A 
ATOM     19  C   UNL     1      24.411   5.777  21.221  0.00  0.00    +0.024 A 
ATOM     20  C   UNL     1      21.976   4.433  20.712  0.00  0.00    +0.274 A 
ATOM     21  C   UNL     1      23.885   3.077  24.897  0.00  0.00    +0.324 C 
ATOM     22  C   UNL     1      22.087   5.912  20.664  0.00  0.00    +0.112 A 
ATOM     23  C   UNL     1      23.239   6.543  20.893  0.00  0.00    +0.031 A 
ENDROOT
BRANCH  21  24
ATOM      5  O   UNL     1      23.930   1.500  26.665  0.00  0.00    -0.240 OA
ATOM     24  C   UNL     1      23.273   2.117  25.851  0.00  0.00    +0.392 C 
BRANCH  24   4
ATOM      4  O   UNL     1      21.949   2.077  25.650  0.00  0.00    -0.474 OA
ATOM     33  H   UNL     1      21.550   1.241  25.971  0.00  0.00    +0.296 HD
ENDBRANCH  24   4
ENDBRANCH  21  24
BRANCH  22  11
ATOM     11  N   UNL     1      20.963   6.698  20.351  0.00  0.00    -0.211 N 
ATOM     32  H   UNL     1      21.171   7.438  19.668  0.00  0.00    +0.174 HD
BRANCH  11   1
ATOM      1  S   UNL     1      19.983   7.186  21.642  0.00  0.00    +0.073 S 
ATOM      6  O   UNL     1      20.027   6.188  22.694  0.00  0.00    -0.150 OA
ATOM      7  O   UNL     1      20.237   8.582  21.948  0.00  0.00    -0.150 OA
BRANCH   1  25
ATOM     25  C   UNL     1      18.383   7.092  20.894  0.00  0.00    +0.109 A 
ATOM     26  C   UNL     1      17.392   7.965  21.306  0.00  0.00    +0.032 A 
ATOM     27  C   UNL     1      18.153   6.145  19.911  0.00  0.00    +0.032 A 
ATOM     28  C   UNL     1      16.130   7.889  20.717  0.00  0.00    +0.047 A 
ATOM     29  C   UNL     1      16.891   6.070  19.321  0.00  0.00    +0.047 A 
ATOM     30  C   UNL     1      15.880   6.942  19.724  0.00  0.00    +0.120 A 
BRANCH  30   8
ATOM      8  O   UNL     1      14.648   6.869  19.149  0.00  0.00    -0.495 OA
ATOM     31  C   UNL     1      13.520   6.963  20.016  0.00  0.00    +0.277 C 
ENDBRANCH  30   8
ENDBRANCH   1  25
ENDBRANCH  11   1
ENDBRANCH  22  11
TORSDOF 6
ENDMDL
MODEL 6
REMARK VINA RESULT:      -7.1     12.041     15.748
REMARK  Name = 11879846
REMARK  7 active torsions:
REMARK  status: ('A' for Active; 'I' for Inactive)
REMARK    1  A    between atoms: S_1  and  N_11
REMARK    2  A    between atoms: S_1  and  C_25
REMARK    3  A    between atoms: O_4  and  C_24
REMARK    4  A    between atoms: O_8  and  C_30
REMARK    5  A    between atoms: O_8  and  C_31
REMARK    6  A    between atoms: N_11  and  C_22
REMARK    7  A    between atoms: C_21  and  C_24
REMARK                            x       y       z     vdW  Elec       q    Type
REMARK                         _______ _______ _______ _____ _____    ______ ____
ROOT
ATOM      2  O   UNL     1      13.842  11.856  18.302  0.00  0.00    -0.266 OA
ATOM      3  O   UNL     1      15.414   6.567  19.236  0.00  0.00    -0.263 OA
ATOM      9  N   UNL     1      12.751   9.943  19.102  0.00  0.00    -0.310 N 
ATOM     10  N   UNL     1      13.898   7.448  20.782  0.00  0.00    -0.291 N 
ATOM     12  C   UNL     1      12.544   9.393  21.592  0.00  0.00    +0.027 C 
ATOM     13  C   UNL     1      11.597   7.857  19.922  0.00  0.00    +0.054 C 
ATOM     14  C   UNL     1      11.276   8.654  21.184  0.00  0.00    +0.018 C 
ATOM     15  C   UNL     1      12.910  10.394  20.490  0.00  0.00    +0.130 C 
ATOM     16  C   UNL     1      13.690   8.402  21.874  0.00  0.00    +0.113 C 
ATOM     17  C   UNL     1      12.690   6.823  20.237  0.00  0.00    +0.118 C 
ATOM     18  C   UNL     1      12.055   8.766  18.796  0.00  0.00    +0.027 A 
ATOM     19  C   UNL     1      11.816   8.430  17.515  0.00  0.00    +0.024 A 
ATOM     20  C   UNL     1      13.238  10.803  18.097  0.00  0.00    +0.274 A 
ATOM     21  C   UNL     1      15.147   7.021  20.343  0.00  0.00    +0.324 C 
ATOM     22  C   UNL     1      12.966  10.366  16.705  0.00  0.00    +0.112 A 
ATOM     23  C   UNL     1      12.285   9.252  16.433  0.00  0.00    +0.031 A 
ENDROOT
BRANCH  21  24
ATOM      5  O   UNL     1      17.255   7.858  21.033  0.00  0.00    -0.240 OA
ATOM     24  C   UNL     1      16.361   7.051  21.198  0.00  0.00    +0.392 C 
BRANCH  24   4
ATOM      4  O   UNL     1      16.276   6.085  22.122  0.00  0.00    -0.474 OA
ATOM     33  H   UNL     1      15.933   5.245  21.752  0.00  0.00    +0.296 HD
ENDBRANCH  24   4
ENDBRANCH  21  24
BRANCH  22  11
ATOM     11  N   UNL     1      13.411  11.140  15.618  0.00  0.00    -0.211 N 
ATOM     32  H   UNL     1      12.692  11.262  14.893  0.00  0.00    +0.174 HD
BRANCH  11   1
ATOM      1  S   UNL     1      14.962  10.812  15.025  0.00  0.00    +0.073 S 
ATOM      6  O   UNL     1      15.956  11.395  15.905  0.00  0.00    -0.150 OA
ATOM      7  O   UNL     1      15.053   9.415  14.642  0.00  0.00    -0.150 OA
BRANCH   1  25
ATOM     25  C   UNL     1      14.953  11.767  13.536  0.00  0.00    +0.109 A 
ATOM     26  C   UNL     1      13.843  12.536  13.234  0.00  0.00    +0.032 A 
ATOM     27  C   UNL     1      16.055  11.725  12.701  0.00  0.00    +0.032 A 
ATOM     28  C   UNL     1      13.836  13.287  12.058  0.00  0.00    +0.047 A 
ATOM     29  C   UNL     1      16.048  12.477  11.526  0.00  0.00    +0.047 A 
ATOM     30  C   UNL     1      14.938  13.258  11.205  0.00  0.00    +0.120 A 
BRANCH  30   8
ATOM      8  O   UNL     1      14.930  13.992  10.058  0.00  0.00    -0.495 OA
ATOM     31  C   UNL     1      14.034  13.579   9.029  0.00  0.00    +0.277 C 
ENDBRANCH  30   8
ENDBRANCH   1  25
ENDBRANCH  11   1
ENDBRANCH  22  11
TORSDOF 6
ENDMDL
MODEL 7
REMARK VINA RESULT:      -7.0      3.170      7.557
REMARK  Name = 11879846
REMARK  7 active torsions:
REMARK  status: ('A' for Active; 'I' for Inactive)
REMARK    1  A    between atoms: S_1  and  N_11
REMARK    2  A    between atoms: S_1  and  C_25
REMARK    3  A    between atoms: O_4  and  C_24
REMARK    4  A    between atoms: O_8  and  C_30
REMARK    5  A    between atoms: O_8  and  C_31
REMARK    6  A    between atoms: N_11  and  C_22
REMARK    7  A    between atoms: C_21  and  C_24
REMARK                            x       y       z     vdW  Elec       q    Type
REMARK                         _______ _______ _______ _____ _____    ______ ____
ROOT
ATOM      2  O   UNL     1      10.214   4.317   5.049  0.00  0.00    -0.266 OA
ATOM      3  O   UNL     1      13.470   8.297   2.843  0.00  0.00    -0.263 OA
ATOM      9  N   UNL     1      10.346   5.343   2.947  0.00  0.00    -0.310 N 
ATOM     10  N   UNL     1      12.883   6.565   1.388  0.00  0.00    -0.291 N 
ATOM     12  C   UNL     1      11.713   4.384   1.009  0.00  0.00    +0.027 C 
ATOM     13  C   UNL     1      10.488   6.493   0.708  0.00  0.00    +0.054 C 
ATOM     14  C   UNL     1      10.705   5.101   0.121  0.00  0.00    +0.018 C 
ATOM     15  C   UNL     1      11.107   4.209   2.406  0.00  0.00    +0.130 C 
ATOM     16  C   UNL     1      13.049   5.149   1.052  0.00  0.00    +0.113 C 
ATOM     17  C   UNL     1      11.814   7.271   0.677  0.00  0.00    +0.118 C 
ATOM     18  C   UNL     1       9.967   6.418   2.132  0.00  0.00    +0.027 A 
ATOM     19  C   UNL     1       9.169   7.389   2.613  0.00  0.00    +0.024 A 
ATOM     20  C   UNL     1       9.928   5.242   4.290  0.00  0.00    +0.274 A 
ATOM     21  C   UNL     1      13.742   7.279   2.217  0.00  0.00    +0.324 C 
ATOM     22  C   UNL     1       9.071   6.356   4.770  0.00  0.00    +0.112 A 
ATOM     23  C   UNL     1       8.706   7.361   3.974  0.00  0.00    +0.031 A 
ENDROOT
BRANCH  21  24
ATOM      5  O   UNL     1      16.065   7.292   1.748  0.00  0.00    -0.240 OA
ATOM     24  C   UNL     1      15.157   6.890   2.448  0.00  0.00    +0.392 C 
BRANCH  24   4
ATOM      4  O   UNL     1      15.224   6.073   3.507  0.00  0.00    -0.474 OA
ATOM     33  H   UNL     1      14.505   5.407   3.509  0.00  0.00    +0.296 HD
ENDBRANCH  24   4
ENDBRANCH  21  24
BRANCH  22  11
ATOM     11  N   UNL     1       8.601   6.368   6.095  0.00  0.00    -0.211 N 
ATOM     32  H   UNL     1       7.625   6.052   6.175  0.00  0.00    +0.174 HD
BRANCH  11   1
ATOM      1  S   UNL     1       8.981   7.724   7.034  0.00  0.00    +0.073 S 
ATOM      6  O   UNL     1       8.514   8.925   6.370  0.00  0.00    -0.150 OA
ATOM      7  O   UNL     1       8.632   7.472   8.420  0.00  0.00    -0.150 OA
BRANCH   1  25
ATOM     25  C   UNL     1      10.747   7.714   6.925  0.00  0.00    +0.109 A 
ATOM     26  C   UNL     1      11.400   8.833   6.441  0.00  0.00    +0.032 A 
ATOM     27  C   UNL     1      11.441   6.585   7.324  0.00  0.00    +0.032 A 
ATOM     28  C   UNL     1      12.792   8.823   6.353  0.00  0.00    +0.047 A 
ATOM     29  C   UNL     1      12.833   6.575   7.237  0.00  0.00    +0.047 A 
ATOM     30  C   UNL     1      13.508   7.695   6.751  0.00  0.00    +0.120 A 
BRANCH  30   8
ATOM      8  O   UNL     1      14.867   7.687   6.666  0.00  0.00    -0.495 OA
ATOM     31  C   UNL     1      15.470   8.668   5.825  0.00  0.00    +0.277 C 
ENDBRANCH  30   8
ENDBRANCH   1  25
ENDBRANCH  11   1
ENDBRANCH  22  11
TORSDOF 6
ENDMDL
MODEL 8
REMARK VINA RESULT:      -6.9     14.532     16.964
REMARK  Name = 11879846
REMARK  7 active torsions:
REMARK  status: ('A' for Active; 'I' for Inactive)
REMARK    1  A    between atoms: S_1  and  N_11
REMARK    2  A    between atoms: S_1  and  C_25
REMARK    3  A    between atoms: O_4  and  C_24
REMARK    4  A    between atoms: O_8  and  C_30
REMARK    5  A    between atoms: O_8  and  C_31
REMARK    6  A    between atoms: N_11  and  C_22
REMARK    7  A    between atoms: C_21  and  C_24
REMARK                            x       y       z     vdW  Elec       q    Type
REMARK                         _______ _______ _______ _____ _____    ______ ____
ROOT
ATOM      2  O   UNL     1      14.038  11.850  18.849  0.00  0.00    -0.266 OA
ATOM      3  O   UNL     1      15.521   6.457  19.030  0.00  0.00    -0.263 OA
ATOM      9  N   UNL     1      12.908   9.859  19.348  0.00  0.00    -0.310 N 
ATOM     10  N   UNL     1      13.992   7.129  20.665  0.00  0.00    -0.291 N 
ATOM     12  C   UNL     1      12.652   8.958  21.728  0.00  0.00    +0.027 C 
ATOM     13  C   UNL     1      11.711   7.696  19.840  0.00  0.00    +0.054 C 
ATOM     14  C   UNL     1      11.381   8.307  21.199  0.00  0.00    +0.018 C 
ATOM     15  C   UNL     1      13.050  10.102  20.789  0.00  0.00    +0.130 C 
ATOM     16  C   UNL     1      13.779   7.919  21.880  0.00  0.00    +0.113 C 
ATOM     17  C   UNL     1      12.785   6.609  20.018  0.00  0.00    +0.118 C 
ATOM     18  C   UNL     1      12.201   8.750  18.864  0.00  0.00    +0.027 A 
ATOM     19  C   UNL     1      11.978   8.606  17.545  0.00  0.00    +0.024 A 
ATOM     20  C   UNL     1      13.423  10.848  18.485  0.00  0.00    +0.274 A 
ATOM     21  C   UNL     1      15.242   6.750  20.187  0.00  0.00    +0.324 C 
ATOM     22  C   UNL     1      13.168  10.621  17.040  0.00  0.00    +0.112 A 
ATOM     23  C   UNL     1      12.476   9.569  16.600  0.00  0.00    +0.031 A 
ENDROOT
BRANCH  21  24
ATOM      5  O   UNL     1      17.481   7.219  20.810  0.00  0.00    -0.240 OA
ATOM     24  C   UNL     1      16.442   6.637  21.054  0.00  0.00    +0.392 C 
BRANCH  24   4
ATOM      4  O   UNL     1      16.168   5.828  22.086  0.00  0.00    -0.474 OA
ATOM     33  H   UNL     1      16.873   5.163  22.236  0.00  0.00    +0.296 HD
ENDBRANCH  24   4
ENDBRANCH  21  24
BRANCH  22  11
ATOM     11  N   UNL     1      13.642  11.537  16.084  0.00  0.00    -0.211 N 
ATOM     32  H   UNL     1      12.915  12.189  15.761  0.00  0.00    +0.174 HD
BRANCH  11   1
ATOM      1  S   UNL     1      14.633  10.923  14.856  0.00  0.00    +0.073 S 
ATOM      6  O   UNL     1      14.805   9.494  15.035  0.00  0.00    -0.150 OA
ATOM      7  O   UNL     1      14.207  11.453  13.574  0.00  0.00    -0.150 OA
BRANCH   1  25
ATOM     25  C   UNL     1      16.173  11.694  15.261  0.00  0.00    +0.109 A 
ATOM     26  C   UNL     1      16.242  12.525  16.365  0.00  0.00    +0.032 A 
ATOM     27  C   UNL     1      17.278  11.453  14.464  0.00  0.00    +0.032 A 
ATOM     28  C   UNL     1      17.457  13.134  16.682  0.00  0.00    +0.047 A 
ATOM     29  C   UNL     1      18.492  12.062  14.781  0.00  0.00    +0.047 A 
ATOM     30  C   UNL     1      18.581  12.903  15.891  0.00  0.00    +0.120 A 
BRANCH  30   8
ATOM      8  O   UNL     1      19.766  13.497  16.202  0.00  0.00    -0.495 OA
ATOM     31  C   UNL     1      20.942  12.701  16.082  0.00  0.00    +0.277 C 
ENDBRANCH  30   8
ENDBRANCH   1  25
ENDBRANCH  11   1
ENDBRANCH  22  11
TORSDOF 6
ENDMDL
MODEL 9
REMARK VINA RESULT:      -6.8      2.811      8.531
REMARK  Name = 11879846
REMARK  7 active torsions:
REMARK  status: ('A' for Active; 'I' for Inactive)
REMARK    1  A    between atoms: S_1  and  N_11
REMARK    2  A    between atoms: S_1  and  C_25
REMARK    3  A    between atoms: O_4  and  C_24
REMARK    4  A    between atoms: O_8  and  C_30
REMARK    5  A    between atoms: O_8  and  C_31
REMARK    6  A    between atoms: N_11  and  C_22
REMARK    7  A    between atoms: C_21  and  C_24
REMARK                            x       y       z     vdW  Elec       q    Type
REMARK                         _______ _______ _______ _____ _____    ______ ____
ROOT
ATOM      2  O   UNL     1      13.439   7.437   1.069  0.00  0.00    -0.266 OA
ATOM      3  O   UNL     1       9.051   4.951  -1.357  0.00  0.00    -0.263 OA
ATOM      9  N   UNL     1      13.162   5.497  -0.215  0.00  0.00    -0.310 N 
ATOM     10  N   UNL     1      11.054   4.838  -2.557  0.00  0.00    -0.291 N 
ATOM     12  C   UNL     1      13.475   5.445  -2.753  0.00  0.00    +0.027 C 
ATOM     13  C   UNL     1      12.824   3.394  -1.564  0.00  0.00    +0.054 C 
ATOM     14  C   UNL     1      13.839   3.981  -2.542  0.00  0.00    +0.018 C 
ATOM     15  C   UNL     1      13.628   6.190  -1.422  0.00  0.00    +0.130 C 
ATOM     16  C   UNL     1      12.052   5.580  -3.329  0.00  0.00    +0.113 C 
ATOM     17  C   UNL     1      11.418   3.469  -2.183  0.00  0.00    +0.118 C 
ATOM     18  C   UNL     1      12.844   4.132  -0.238  0.00  0.00    +0.027 A 
ATOM     19  C   UNL     1      12.534   3.485   0.901  0.00  0.00    +0.024 A 
ATOM     20  C   UNL     1      13.154   6.243   0.981  0.00  0.00    +0.274 A 
ATOM     21  C   UNL     1       9.771   5.303  -2.284  0.00  0.00    +0.324 C 
ATOM     22  C   UNL     1      12.780   5.481   2.199  0.00  0.00    +0.112 A 
ATOM     23  C   UNL     1      12.499   4.178   2.161  0.00  0.00    +0.031 A 
ENDROOT
BRANCH  21  24
ATOM      5  O   UNL     1       9.144   7.507  -2.891  0.00  0.00    -0.240 OA
ATOM     24  C   UNL     1       9.080   6.316  -3.123  0.00  0.00    +0.392 C 
BRANCH  24   4
ATOM      4  O   UNL     1       8.426   5.697  -4.115  0.00  0.00    -0.474 OA
ATOM     33  H   UNL     1       8.821   5.883  -4.993  0.00  0.00    +0.296 HD
ENDBRANCH  24   4
ENDBRANCH  21  24
BRANCH  22  11
ATOM     11  N   UNL     1      12.730   6.123   3.450  0.00  0.00    -0.211 N 
ATOM     32  H   UNL     1      13.108   5.543   4.211  0.00  0.00    +0.174 HD
BRANCH  11   1
ATOM      1  S   UNL     1      11.303   6.949   3.834  0.00  0.00    +0.073 S 
ATOM      6  O   UNL     1      11.620   8.299   4.258  0.00  0.00    -0.150 OA
ATOM      7  O   UNL     1      10.313   6.720   2.799  0.00  0.00    -0.150 OA
BRANCH   1  25
ATOM     25  C   UNL     1      10.783   6.055   5.269  0.00  0.00    +0.109 A 
ATOM     26  C   UNL     1      11.029   6.587   6.522  0.00  0.00    +0.032 A 
ATOM     27  C   UNL     1      10.141   4.840   5.110  0.00  0.00    +0.032 A 
ATOM     28  C   UNL     1      10.621   5.880   7.653  0.00  0.00    +0.047 A 
ATOM     29  C   UNL     1       9.730   4.133   6.241  0.00  0.00    +0.047 A 
ATOM     30  C   UNL     1       9.971   4.654   7.513  0.00  0.00    +0.120 A 
BRANCH  30   8
ATOM      8  O   UNL     1       9.572   3.965   8.617  0.00  0.00    -0.495 OA
ATOM     31  C   UNL     1       9.371   4.716   9.813  0.00  0.00    +0.277 C 
ENDBRANCH  30   8
ENDBRANCH   1  25
ENDBRANCH  11   1
ENDBRANCH  22  11
TORSDOF 6
ENDMDL
MODEL 10
REMARK VINA RESULT:      -6.8     24.666     28.016
REMARK  Name = 11879846
REMARK  7 active torsions:
REMARK  status: ('A' for Active; 'I' for Inactive)
REMARK    1  A    between atoms: S_1  and  N_11
REMARK    2  A    between atoms: S_1  and  C_25
REMARK    3  A    between atoms: O_4  and  C_24
REMARK    4  A    between atoms: O_8  and  C_30
REMARK    5  A    between atoms: O_8  and  C_31
REMARK    6  A    between atoms: N_11  and  C_22
REMARK    7  A    between atoms: C_21  and  C_24
REMARK                            x       y       z     vdW  Elec       q    Type
REMARK                         _______ _______ _______ _____ _____    ______ ____
ROOT
ATOM      2  O   UNL     1      -6.004 -13.330  15.113  0.00  0.00    -0.266 OA
ATOM      3  O   UNL     1      -8.320  -8.931  17.683  0.00  0.00    -0.263 OA
ATOM      9  N   UNL     1      -6.995 -12.996  17.210  0.00  0.00    -0.310 N 
ATOM     10  N   UNL     1      -9.349 -10.988  18.099  0.00  0.00    -0.291 N 
ATOM     12  C   UNL     1      -9.469 -13.453  17.674  0.00  0.00    +0.027 C 
ATOM     13  C   UNL     1      -8.030 -12.594  19.473  0.00  0.00    +0.054 C 
ATOM     14  C   UNL     1      -9.014 -13.702  19.106  0.00  0.00    +0.018 C 
ATOM     15  C   UNL     1      -8.258 -13.578  16.741  0.00  0.00    +0.130 C 
ATOM     16  C   UNL     1     -10.154 -12.079  17.547  0.00  0.00    +0.113 C 
ATOM     17  C   UNL     1      -8.748 -11.235  19.413  0.00  0.00    +0.118 C 
ATOM     18  C   UNL     1      -6.833 -12.587  18.540  0.00  0.00    +0.027 A 
ATOM     19  C   UNL     1      -5.633 -12.167  18.983  0.00  0.00    +0.024 A 
ATOM     20  C   UNL     1      -5.929 -12.969  16.287  0.00  0.00    +0.274 A 
ATOM     21  C   UNL     1      -9.238  -9.727  17.523  0.00  0.00    +0.324 C 
ATOM     22  C   UNL     1      -4.638 -12.473  16.827  0.00  0.00    +0.112 A 
ATOM     23  C   UNL     1      -4.498 -12.106  18.101  0.00  0.00    +0.031 A 
ENDROOT
BRANCH  21  24
ATOM      5  O   UNL     1     -10.146  -9.172  15.405  0.00  0.00    -0.240 OA
ATOM     24  C   UNL     1     -10.266  -9.157  16.614  0.00  0.00    +0.392 C 
BRANCH  24   4
ATOM      4  O   UNL     1     -11.277  -8.666  17.342  0.00  0.00    -0.474 OA
ATOM     33  H   UNL     1     -11.892  -8.123  16.806  0.00  0.00    +0.296 HD
ENDBRANCH  24   4
ENDBRANCH  21  24
BRANCH  22  11
ATOM     11  N   UNL     1      -3.506 -12.394  15.997  0.00  0.00    -0.211 N 
ATOM     32  H   UNL     1      -2.820 -13.138  16.185  0.00  0.00    +0.174 HD
BRANCH  11   1
ATOM      1  S   UNL     1      -2.832 -10.859  15.758  0.00  0.00    +0.073 S 
ATOM      6  O   UNL     1      -3.659  -9.857  16.403  0.00  0.00    -0.150 OA
ATOM      7  O   UNL     1      -1.405 -10.907  16.018  0.00  0.00    -0.150 OA
BRANCH   1  25
ATOM     25  C   UNL     1      -3.046 -10.675  14.012  0.00  0.00    +0.109 A 
ATOM     26  C   UNL     1      -4.321 -10.731  13.478  0.00  0.00    +0.032 A 
ATOM     27  C   UNL     1      -1.933 -10.481  13.214  0.00  0.00    +0.032 A 
ATOM     28  C   UNL     1      -4.488 -10.588  12.101  0.00  0.00    +0.047 A 
ATOM     29  C   UNL     1      -2.100 -10.337  11.836  0.00  0.00    +0.047 A 
ATOM     30  C   UNL     1      -3.378 -10.391  11.280  0.00  0.00    +0.120 A 
BRANCH  30   8
ATOM      8  O   UNL     1      -3.542 -10.250   9.936  0.00  0.00    -0.495 OA
ATOM     31  C   UNL     1      -3.940  -8.966   9.462  0.00  0.00    +0.277 C 
ENDBRANCH  30   8
ENDBRANCH   1  25
ENDBRANCH  11   1
ENDBRANCH  22  11
TORSDOF 6
ENDMDL
