MODEL 1
REMARK VINA RESULT:      -5.8      0.000      0.000
REMARK  Name = 25388796
REMARK  8 active torsions:
REMARK  status: ('A' for Active; 'I' for Inactive)
REMARK    1  A    between atoms: N_4  and  C_14
REMARK    2  A    between atoms: N_4  and  C_16
REMARK    3  A    between atoms: N_4  and  C_17
REMARK    4  A    between atoms: N_5  and  C_15
REMARK    5  A    between atoms: N_6  and  C_22
REMARK    6  A    between atoms: C_8  and  C_14
REMARK    7  A    between atoms: C_9  and  C_15
REMARK    8  A    between atoms: C_16  and  C_19
REMARK                            x       y       z     vdW  Elec       q    Type
REMARK                         _______ _______ _______ _____ _____    ______ ____
ROOT
ATOM      3  N   UNL     1      -5.376  -9.879  10.217  0.00  0.00    -0.298 NA
ATOM      7  C   UNL     1      -3.318 -10.761  11.541  0.00  0.00    -0.003 C 
ATOM      8  C   UNL     1      -4.043 -11.917  10.815  0.00  0.00    +0.020 C 
ATOM      9  C   UNL     1      -5.440  -9.411  11.629  0.00  0.00    +0.074 C 
ATOM     10  C   UNL     1      -4.311 -10.043  12.474  0.00  0.00    +0.024 C 
ATOM     11  C   UNL     1      -5.331 -11.361  10.168  0.00  0.00    +0.089 C 
ATOM     12  C   UNL     1      -2.893  -9.749  10.461  0.00  0.00    +0.019 C 
ATOM     13  C   UNL     1      -4.123  -9.358   9.621  0.00  0.00    +0.085 C 
ENDROOT
BRANCH   8  14
ATOM     14  C   UNL     1      -4.337 -13.109  11.722  0.00  0.00    +0.089 C 
BRANCH  14   4
ATOM      4  N   UNL     1      -3.107 -13.660  12.270  0.00  0.00    -0.301 NA
ATOM     17  C   UNL     1      -2.717 -14.875  11.550  0.00  0.00    +0.105 C 
BRANCH   4  16
ATOM     16  C   UNL     1      -3.259 -13.947  13.698  0.00  0.00    +0.119 C 
BRANCH  16  19
ATOM     19  C   UNL     1      -2.934 -12.748  14.549  0.00  0.00    -0.033 A 
ATOM     20  C   UNL     1      -1.664 -12.173  14.487  0.00  0.00    +0.005 A 
ATOM     21  C   UNL     1      -3.903 -12.211  15.398  0.00  0.00    +0.005 A 
ATOM     23  C   UNL     1      -1.363 -11.062  15.274  0.00  0.00    +0.000 A 
ATOM     24  C   UNL     1      -3.601 -11.100  16.185  0.00  0.00    +0.000 A 
ATOM     25  C   UNL     1      -2.331 -10.525  16.123  0.00  0.00    +0.000 A 
ENDBRANCH  16  19
ENDBRANCH   4  16
ENDBRANCH  14   4
ENDBRANCH   8  14
BRANCH   9  15
ATOM     15  C   UNL     1      -6.816  -9.640  12.258  0.00  0.00    +0.124 C 
BRANCH  15   5
ATOM      2  O   UNL     1      -7.634 -11.279  14.459  0.00  0.00    -0.253 OA
ATOM      5  N   UNL     1      -6.808  -9.274  13.665  0.00  0.00    -0.298 N 
ATOM      6  N   UNL     1      -7.108  -9.518  15.918  0.00  0.00    -0.269 N 
ATOM     18  C   UNL     1      -7.226 -10.141  14.673  0.00  0.00    +0.304 C 
ATOM     29  H   UNL     1      -6.588  -8.314  13.912  0.00  0.00    +0.150 HD
ATOM     30  H   UNL     1      -6.750  -8.566  15.933  0.00  0.00    +0.156 HD
BRANCH   6  22
ATOM      1  S   UNL     1      -8.768 -10.975  19.174  0.00  0.00    -0.103 S 
ATOM     22  C   UNL     1      -7.424 -10.050  17.189  0.00  0.00    +0.042 A 
ATOM     26  C   UNL     1      -6.472 -10.349  18.207  0.00  0.00    +0.031 A 
ATOM     27  C   UNL     1      -8.711 -10.344  17.582  0.00  0.00    +0.068 A 
ATOM     28  C   UNL     1      -7.068 -10.858  19.339  0.00  0.00    +0.047 A 
ENDBRANCH   6  22
ENDBRANCH  15   5
ENDBRANCH   9  15
TORSDOF 7
ENDMDL
MODEL 2
REMARK VINA RESULT:      -5.6     24.210     27.262
REMARK  Name = 25388796
REMARK  8 active torsions:
REMARK  status: ('A' for Active; 'I' for Inactive)
REMARK    1  A    between atoms: N_4  and  C_14
REMARK    2  A    between atoms: N_4  and  C_16
REMARK    3  A    between atoms: N_4  and  C_17
REMARK    4  A    between atoms: N_5  and  C_15
REMARK    5  A    between atoms: N_6  and  C_22
REMARK    6  A    between atoms: C_8  and  C_14
REMARK    7  A    between atoms: C_9  and  C_15
REMARK    8  A    between atoms: C_16  and  C_19
REMARK                            x       y       z     vdW  Elec       q    Type
REMARK                         _______ _______ _______ _____ _____    ______ ____
ROOT
ATOM      3  N   UNL     1      14.168   8.831   6.251  0.00  0.00    -0.298 NA
ATOM      7  C   UNL     1      11.600   8.741   5.845  0.00  0.00    -0.003 C 
ATOM      8  C   UNL     1      12.030   7.689   6.891  0.00  0.00    +0.020 C 
ATOM      9  C   UNL     1      13.887   8.711   4.794  0.00  0.00    +0.074 C 
ATOM     10  C   UNL     1      12.377   8.506   4.536  0.00  0.00    +0.024 C 
ATOM     11  C   UNL     1      13.572   7.688   6.985  0.00  0.00    +0.089 C 
ATOM     12  C   UNL     1      12.030  10.117   6.390  0.00  0.00    +0.019 C 
ATOM     13  C   UNL     1      13.530  10.077   6.738  0.00  0.00    +0.085 C 
ENDROOT
BRANCH   8  14
ATOM     14  C   UNL     1      11.483   6.293   6.603  0.00  0.00    +0.089 C 
BRANCH  14   4
ATOM      4  N   UNL     1      10.061   6.221   6.900  0.00  0.00    -0.301 NA
ATOM     17  C   UNL     1       9.829   5.505   8.158  0.00  0.00    +0.105 C 
BRANCH   4  16
ATOM     16  C   UNL     1       9.334   5.569   5.808  0.00  0.00    +0.119 C 
BRANCH  16  19
ATOM     19  C   UNL     1       9.082   6.511   4.661  0.00  0.00    -0.033 A 
ATOM     20  C   UNL     1       8.217   7.594   4.824  0.00  0.00    +0.005 A 
ATOM     21  C   UNL     1       9.715   6.303   3.435  0.00  0.00    +0.005 A 
ATOM     23  C   UNL     1       7.984   8.467   3.763  0.00  0.00    +0.000 A 
ATOM     24  C   UNL     1       9.482   7.177   2.373  0.00  0.00    +0.000 A 
ATOM     25  C   UNL     1       8.617   8.259   2.537  0.00  0.00    +0.000 A 
ENDBRANCH  16  19
ENDBRANCH   4  16
ENDBRANCH  14   4
ENDBRANCH   8  14
BRANCH   9  15
ATOM     15  C   UNL     1      14.731   7.625   4.125  0.00  0.00    +0.124 C 
BRANCH  15   5
ATOM      2  O   UNL     1      14.467   6.768   1.405  0.00  0.00    -0.253 OA
ATOM      5  N   UNL     1      13.888   6.549   3.630  0.00  0.00    -0.298 N 
ATOM      6  N   UNL     1      12.934   5.136   2.106  0.00  0.00    -0.269 N 
ATOM     18  C   UNL     1      13.822   6.199   2.282  0.00  0.00    +0.304 C 
ATOM     29  H   UNL     1      13.244   6.104   4.277  0.00  0.00    +0.150 HD
ATOM     30  H   UNL     1      12.473   4.768   2.936  0.00  0.00    +0.156 HD
BRANCH   6  22
ATOM      1  S   UNL     1      11.298   3.825  -1.223  0.00  0.00    -0.103 S 
ATOM     22  C   UNL     1      12.584   4.486   0.901  0.00  0.00    +0.042 A 
ATOM     26  C   UNL     1      13.356   3.466   0.272  0.00  0.00    +0.031 A 
ATOM     27  C   UNL     1      11.439   4.778   0.193  0.00  0.00    +0.068 A 
ATOM     28  C   UNL     1      12.771   3.018  -0.892  0.00  0.00    +0.047 A 
ENDBRANCH   6  22
ENDBRANCH  15   5
ENDBRANCH   9  15
TORSDOF 7
ENDMDL
MODEL 3
REMARK VINA RESULT:      -5.5      3.322      7.314
REMARK  Name = 25388796
REMARK  8 active torsions:
REMARK  status: ('A' for Active; 'I' for Inactive)
REMARK    1  A    between atoms: N_4  and  C_14
REMARK    2  A    between atoms: N_4  and  C_16
REMARK    3  A    between atoms: N_4  and  C_17
REMARK    4  A    between atoms: N_5  and  C_15
REMARK    5  A    between atoms: N_6  and  C_22
REMARK    6  A    between atoms: C_8  and  C_14
REMARK    7  A    between atoms: C_9  and  C_15
REMARK    8  A    between atoms: C_16  and  C_19
REMARK                            x       y       z     vdW  Elec       q    Type
REMARK                         _______ _______ _______ _____ _____    ______ ____
ROOT
ATOM      3  N   UNL     1      -9.742  -7.805  15.610  0.00  0.00    -0.298 NA
ATOM      7  C   UNL     1     -11.795  -8.710  16.925  0.00  0.00    -0.003 C 
ATOM      8  C   UNL     1     -10.529  -8.715  17.810  0.00  0.00    +0.020 C 
ATOM      9  C   UNL     1     -10.405  -8.890  14.835  0.00  0.00    +0.074 C 
ATOM     10  C   UNL     1     -11.536  -9.546  15.658  0.00  0.00    +0.024 C 
ATOM     11  C   UNL     1      -9.319  -8.307  16.939  0.00  0.00    +0.089 C 
ATOM     12  C   UNL     1     -12.021  -7.255  16.473  0.00  0.00    +0.019 C 
ATOM     13  C   UNL     1     -10.733  -6.723  15.818  0.00  0.00    +0.085 C 
ENDROOT
BRANCH   8  14
ATOM     14  C   UNL     1     -10.291 -10.048  18.516  0.00  0.00    +0.089 C 
BRANCH  14   4
ATOM      4  N   UNL     1      -9.057 -10.666  18.055  0.00  0.00    -0.301 NA
ATOM     17  C   UNL     1      -9.323 -11.982  17.468  0.00  0.00    +0.105 C 
BRANCH   4  16
ATOM     16  C   UNL     1      -8.097 -10.790  19.155  0.00  0.00    +0.119 C 
BRANCH  16  19
ATOM     19  C   UNL     1      -6.685 -10.930  18.653  0.00  0.00    -0.033 A 
ATOM     20  C   UNL     1      -5.785 -11.758  19.325  0.00  0.00    +0.005 A 
ATOM     21  C   UNL     1      -6.276 -10.233  17.516  0.00  0.00    +0.005 A 
ATOM     23  C   UNL     1      -4.476 -11.890  18.860  0.00  0.00    +0.000 A 
ATOM     24  C   UNL     1      -4.967 -10.365  17.051  0.00  0.00    +0.000 A 
ATOM     25  C   UNL     1      -4.067 -11.193  17.723  0.00  0.00    +0.000 A 
ENDBRANCH  16  19
ENDBRANCH   4  16
ENDBRANCH  14   4
ENDBRANCH   8  14
BRANCH   9  15
ATOM     15  C   UNL     1      -9.408  -9.926  14.312  0.00  0.00    +0.124 C 
BRANCH  15   5
ATOM      2  O   UNL     1      -7.767 -10.778  12.125  0.00  0.00    -0.253 OA
ATOM      5  N   UNL     1      -8.199  -9.280  13.828  0.00  0.00    -0.298 N 
ATOM      6  N   UNL     1      -6.356  -8.944  12.518  0.00  0.00    -0.269 N 
ATOM     18  C   UNL     1      -7.460  -9.767  12.752  0.00  0.00    +0.304 C 
ATOM     29  H   UNL     1      -7.821  -8.502  14.363  0.00  0.00    +0.150 HD
ATOM     30  H   UNL     1      -6.236  -8.137  13.125  0.00  0.00    +0.156 HD
BRANCH   6  22
ATOM      1  S   UNL     1      -3.237  -9.855  10.298  0.00  0.00    -0.103 S 
ATOM     22  C   UNL     1      -5.362  -9.087  11.523  0.00  0.00    +0.042 A 
ATOM     26  C   UNL     1      -5.376  -8.432  10.257  0.00  0.00    +0.031 A 
ATOM     27  C   UNL     1      -4.254  -9.892  11.676  0.00  0.00    +0.068 A 
ATOM     28  C   UNL     1      -4.280  -8.761   9.492  0.00  0.00    +0.047 A 
ENDBRANCH   6  22
ENDBRANCH  15   5
ENDBRANCH   9  15
TORSDOF 7
ENDMDL
MODEL 4
REMARK VINA RESULT:      -5.5      5.345      7.945
REMARK  Name = 25388796
REMARK  8 active torsions:
REMARK  status: ('A' for Active; 'I' for Inactive)
REMARK    1  A    between atoms: N_4  and  C_14
REMARK    2  A    between atoms: N_4  and  C_16
REMARK    3  A    between atoms: N_4  and  C_17
REMARK    4  A    between atoms: N_5  and  C_15
REMARK    5  A    between atoms: N_6  and  C_22
REMARK    6  A    between atoms: C_8  and  C_14
REMARK    7  A    between atoms: C_9  and  C_15
REMARK    8  A    between atoms: C_16  and  C_19
REMARK                            x       y       z     vdW  Elec       q    Type
REMARK                         _______ _______ _______ _____ _____    ______ ____
ROOT
ATOM      3  N   UNL     1     -10.061  -8.972  14.994  0.00  0.00    -0.298 NA
ATOM      7  C   UNL     1      -8.371  -9.906  16.736  0.00  0.00    -0.003 C 
ATOM      8  C   UNL     1      -9.680 -10.727  16.742  0.00  0.00    +0.020 C 
ATOM      9  C   UNL     1      -9.584  -7.875  15.879  0.00  0.00    +0.074 C 
ATOM     10  C   UNL     1      -8.695  -8.427  17.016  0.00  0.00    +0.024 C 
ATOM     11  C   UNL     1     -10.695 -10.044  15.799  0.00  0.00    +0.089 C 
ATOM     12  C   UNL     1      -7.799  -9.986  15.308  0.00  0.00    +0.019 C 
ATOM     13  C   UNL     1      -8.881  -9.547  14.304  0.00  0.00    +0.085 C 
ENDROOT
BRANCH   8  14
ATOM     14  C   UNL     1     -10.259 -10.929  18.141  0.00  0.00    +0.089 C 
BRANCH  14   4
ATOM      4  N   UNL     1      -9.883 -12.228  18.676  0.00  0.00    -0.301 NA
ATOM     17  C   UNL     1     -11.061 -12.949  19.166  0.00  0.00    +0.105 C 
BRANCH   4  16
ATOM     16  C   UNL     1      -8.899 -12.080  19.751  0.00  0.00    +0.119 C 
BRANCH  16  19
ATOM     19  C   UNL     1      -7.488 -12.084  19.225  0.00  0.00    -0.033 A 
ATOM     20  C   UNL     1      -7.104 -13.021  18.266  0.00  0.00    +0.005 A 
ATOM     21  C   UNL     1      -6.565 -11.149  19.695  0.00  0.00    +0.005 A 
ATOM     23  C   UNL     1      -5.798 -13.024  17.777  0.00  0.00    +0.000 A 
ATOM     24  C   UNL     1      -5.259 -11.152  19.207  0.00  0.00    +0.000 A 
ATOM     25  C   UNL     1      -4.875 -12.089  18.248  0.00  0.00    +0.000 A 
ENDBRANCH  16  19
ENDBRANCH   4  16
ENDBRANCH  14   4
ENDBRANCH   8  14
BRANCH   9  15
ATOM     15  C   UNL     1     -10.732  -7.020  16.419  0.00  0.00    +0.124 C 
BRANCH  15   5
ATOM      2  O   UNL     1     -12.695  -6.769  14.349  0.00  0.00    -0.253 OA
ATOM      5  N   UNL     1     -10.957  -5.862  15.569  0.00  0.00    -0.298 N 
ATOM      6  N   UNL     1     -11.921  -4.594  13.930  0.00  0.00    -0.269 N 
ATOM     18  C   UNL     1     -11.940  -5.829  14.583  0.00  0.00    +0.304 C 
ATOM     29  H   UNL     1     -10.302  -5.087  15.627  0.00  0.00    +0.150 HD
ATOM     30  H   UNL     1     -11.233  -3.911  14.239  0.00  0.00    +0.156 HD
BRANCH   6  22
ATOM      1  S   UNL     1     -14.830  -3.390  11.570  0.00  0.00    -0.103 S 
ATOM     22  C   UNL     1     -12.753  -4.157  12.874  0.00  0.00    +0.042 A 
ATOM     26  C   UNL     1     -12.317  -3.921  11.538  0.00  0.00    +0.031 A 
ATOM     27  C   UNL     1     -14.098  -3.906  13.030  0.00  0.00    +0.068 A 
ATOM     28  C   UNL     1     -13.345  -3.500  10.724  0.00  0.00    +0.047 A 
ENDBRANCH   6  22
ENDBRANCH  15   5
ENDBRANCH   9  15
TORSDOF 7
ENDMDL
MODEL 5
REMARK VINA RESULT:      -5.4      3.121      5.642
REMARK  Name = 25388796
REMARK  8 active torsions:
REMARK  status: ('A' for Active; 'I' for Inactive)
REMARK    1  A    between atoms: N_4  and  C_14
REMARK    2  A    between atoms: N_4  and  C_16
REMARK    3  A    between atoms: N_4  and  C_17
REMARK    4  A    between atoms: N_5  and  C_15
REMARK    5  A    between atoms: N_6  and  C_22
REMARK    6  A    between atoms: C_8  and  C_14
REMARK    7  A    between atoms: C_9  and  C_15
REMARK    8  A    between atoms: C_16  and  C_19
REMARK                            x       y       z     vdW  Elec       q    Type
REMARK                         _______ _______ _______ _____ _____    ______ ____
ROOT
ATOM      3  N   UNL     1      -5.847 -11.664  18.051  0.00  0.00    -0.298 NA
ATOM      7  C   UNL     1      -5.355 -12.232  15.561  0.00  0.00    -0.003 C 
ATOM      8  C   UNL     1      -4.098 -11.660  16.255  0.00  0.00    +0.020 C 
ATOM      9  C   UNL     1      -6.863 -11.022  17.172  0.00  0.00    +0.074 C 
ATOM     10  C   UNL     1      -6.508 -11.219  15.681  0.00  0.00    +0.024 C 
ATOM     11  C   UNL     1      -4.486 -11.209  17.681  0.00  0.00    +0.089 C 
ATOM     12  C   UNL     1      -5.768 -13.490  16.348  0.00  0.00    +0.019 C 
ATOM     13  C   UNL     1      -5.920 -13.129  17.837  0.00  0.00    +0.085 C 
ENDROOT
BRANCH   8  14
ATOM     14  C   UNL     1      -3.434 -10.533  15.468  0.00  0.00    +0.089 C 
BRANCH  14   4
ATOM      4  N   UNL     1      -2.129 -10.944  14.975  0.00  0.00    -0.301 NA
ATOM     17  C   UNL     1      -1.083 -10.631  15.952  0.00  0.00    +0.105 C 
BRANCH   4  16
ATOM     16  C   UNL     1      -1.831 -10.297  13.695  0.00  0.00    +0.119 C 
BRANCH  16  19
ATOM     19  C   UNL     1      -2.516 -10.988  12.545  0.00  0.00    -0.033 A 
ATOM     20  C   UNL     1      -3.047 -10.237  11.496  0.00  0.00    +0.005 A 
ATOM     21  C   UNL     1      -2.618 -12.380  12.528  0.00  0.00    +0.005 A 
ATOM     23  C   UNL     1      -3.680 -10.877  10.430  0.00  0.00    +0.000 A 
ATOM     24  C   UNL     1      -3.251 -13.019  11.463  0.00  0.00    +0.000 A 
ATOM     25  C   UNL     1      -3.782 -12.268  10.414  0.00  0.00    +0.000 A 
ENDBRANCH  16  19
ENDBRANCH   4  16
ENDBRANCH  14   4
ENDBRANCH   8  14
BRANCH   9  15
ATOM     15  C   UNL     1      -7.082  -9.547  17.514  0.00  0.00    +0.124 C 
BRANCH  15   5
ATOM      2  O   UNL     1      -9.820  -8.721  17.676  0.00  0.00    -0.253 OA
ATOM      5  N   UNL     1      -7.854  -8.886  16.475  0.00  0.00    -0.298 N 
ATOM      6  N   UNL     1      -9.665  -7.906  15.481  0.00  0.00    -0.269 N 
ATOM     18  C   UNL     1      -9.188  -8.518  16.642  0.00  0.00    +0.304 C 
ATOM     29  H   UNL     1      -7.435  -8.783  15.555  0.00  0.00    +0.150 HD
ATOM     30  H   UNL     1      -9.016  -7.808  14.703  0.00  0.00    +0.156 HD
BRANCH   6  22
ATOM      1  S   UNL     1     -13.475  -7.268  14.738  0.00  0.00    -0.103 S 
ATOM     22  C   UNL     1     -10.958  -7.389  15.239  0.00  0.00    +0.042 A 
ATOM     26  C   UNL     1     -11.293  -6.004  15.227  0.00  0.00    +0.031 A 
ATOM     27  C   UNL     1     -12.052  -8.188  14.988  0.00  0.00    +0.068 A 
ATOM     28  C   UNL     1     -12.629  -5.797  14.966  0.00  0.00    +0.047 A 
ENDBRANCH   6  22
ENDBRANCH  15   5
ENDBRANCH   9  15
TORSDOF 7
ENDMDL
MODEL 6
REMARK VINA RESULT:      -5.4      3.123      7.608
REMARK  Name = 25388796
REMARK  8 active torsions:
REMARK  status: ('A' for Active; 'I' for Inactive)
REMARK    1  A    between atoms: N_4  and  C_14
REMARK    2  A    between atoms: N_4  and  C_16
REMARK    3  A    between atoms: N_4  and  C_17
REMARK    4  A    between atoms: N_5  and  C_15
REMARK    5  A    between atoms: N_6  and  C_22
REMARK    6  A    between atoms: C_8  and  C_14
REMARK    7  A    between atoms: C_9  and  C_15
REMARK    8  A    between atoms: C_16  and  C_19
REMARK                            x       y       z     vdW  Elec       q    Type
REMARK                         _______ _______ _______ _____ _____    ______ ____
ROOT
ATOM      3  N   UNL     1      -6.648 -12.713  18.852  0.00  0.00    -0.298 NA
ATOM      7  C   UNL     1      -7.734 -10.469  18.110  0.00  0.00    -0.003 C 
ATOM      8  C   UNL     1      -7.836 -11.528  16.989  0.00  0.00    +0.020 C 
ATOM      9  C   UNL     1      -5.693 -11.590  19.062  0.00  0.00    +0.074 C 
ATOM     10  C   UNL     1      -6.256 -10.270  18.491  0.00  0.00    +0.024 C 
ATOM     11  C   UNL     1      -7.052 -12.785  17.428  0.00  0.00    +0.089 C 
ATOM     12  C   UNL     1      -8.449 -11.052  19.344  0.00  0.00    +0.019 C 
ATOM     13  C   UNL     1      -7.859 -12.438  19.663  0.00  0.00    +0.085 C 
ENDROOT
BRANCH   8  14
ATOM     14  C   UNL     1      -7.364 -11.016  15.630  0.00  0.00    +0.089 C 
BRANCH  14   4
ATOM      4  N   UNL     1      -8.421 -11.128  14.638  0.00  0.00    -0.301 NA
ATOM     17  C   UNL     1      -7.920 -11.760  13.414  0.00  0.00    +0.105 C 
BRANCH   4  16
ATOM     16  C   UNL     1      -8.986  -9.813  14.330  0.00  0.00    +0.119 C 
BRANCH  16  19
ATOM     19  C   UNL     1      -9.907  -9.329  15.419  0.00  0.00    -0.033 A 
ATOM     20  C   UNL     1      -9.655  -8.114  16.057  0.00  0.00    +0.005 A 
ATOM     21  C   UNL     1     -11.012 -10.096  15.790  0.00  0.00    +0.005 A 
ATOM     23  C   UNL     1     -10.508  -7.665  17.065  0.00  0.00    +0.000 A 
ATOM     24  C   UNL     1     -11.865  -9.647  16.798  0.00  0.00    +0.000 A 
ATOM     25  C   UNL     1     -11.613  -8.431  17.436  0.00  0.00    +0.000 A 
ENDBRANCH  16  19
ENDBRANCH   4  16
ENDBRANCH  14   4
ENDBRANCH   8  14
BRANCH   9  15
ATOM     15  C   UNL     1      -4.299 -11.900  18.510  0.00  0.00    +0.124 C 
BRANCH  15   5
ATOM      2  O   UNL     1      -3.911 -12.693  15.786  0.00  0.00    -0.253 OA
ATOM      5  N   UNL     1      -3.984 -11.031  17.388  0.00  0.00    -0.298 N 
ATOM      6  N   UNL     1      -3.518 -10.447  15.227  0.00  0.00    -0.269 N 
ATOM     18  C   UNL     1      -3.812 -11.507  16.090  0.00  0.00    +0.304 C 
ATOM     29  H   UNL     1      -3.778 -10.054  17.578  0.00  0.00    +0.150 HD
ATOM     30  H   UNL     1      -3.471  -9.515  15.631  0.00  0.00    +0.156 HD
BRANCH   6  22
ATOM      1  S   UNL     1      -3.668 -10.635  11.300  0.00  0.00    -0.103 S 
ATOM     22  C   UNL     1      -3.275 -10.502  13.836  0.00  0.00    +0.042 A 
ATOM     26  C   UNL     1      -1.984 -10.475  13.233  0.00  0.00    +0.031 A 
ATOM     27  C   UNL     1      -4.281 -10.587  12.899  0.00  0.00    +0.068 A 
ATOM     28  C   UNL     1      -2.052 -10.541  11.859  0.00  0.00    +0.047 A 
ENDBRANCH   6  22
ENDBRANCH  15   5
ENDBRANCH   9  15
TORSDOF 7
ENDMDL
MODEL 7
REMARK VINA RESULT:      -5.3     29.710     32.025
REMARK  Name = 25388796
REMARK  8 active torsions:
REMARK  status: ('A' for Active; 'I' for Inactive)
REMARK    1  A    between atoms: N_4  and  C_14
REMARK    2  A    between atoms: N_4  and  C_16
REMARK    3  A    between atoms: N_4  and  C_17
REMARK    4  A    between atoms: N_5  and  C_15
REMARK    5  A    between atoms: N_6  and  C_22
REMARK    6  A    between atoms: C_8  and  C_14
REMARK    7  A    between atoms: C_9  and  C_15
REMARK    8  A    between atoms: C_16  and  C_19
REMARK                            x       y       z     vdW  Elec       q    Type
REMARK                         _______ _______ _______ _____ _____    ______ ____
ROOT
ATOM      3  N   UNL     1      21.287   7.000  22.495  0.00  0.00    -0.298 NA
ATOM      7  C   UNL     1      23.002   5.044  22.488  0.00  0.00    -0.003 C 
ATOM      8  C   UNL     1      23.615   6.317  21.862  0.00  0.00    +0.020 C 
ATOM      9  C   UNL     1      20.680   5.793  21.871  0.00  0.00    +0.074 C 
ATOM     10  C   UNL     1      21.723   4.664  21.719  0.00  0.00    +0.024 C 
ATOM     11  C   UNL     1      22.514   7.396  21.762  0.00  0.00    +0.089 C 
ATOM     12  C   UNL     1      22.579   5.409  23.924  0.00  0.00    +0.019 C 
ATOM     13  C   UNL     1      21.671   6.652  23.884  0.00  0.00    +0.085 C 
ENDROOT
BRANCH   8  14
ATOM     14  C   UNL     1      24.282   6.065  20.512  0.00  0.00    +0.089 C 
BRANCH  14   4
ATOM      4  N   UNL     1      25.584   5.441  20.686  0.00  0.00    -0.301 NA
ATOM     17  C   UNL     1      26.659   6.387  20.375  0.00  0.00    +0.105 C 
BRANCH   4  16
ATOM     16  C   UNL     1      25.704   4.249  19.843  0.00  0.00    +0.119 C 
BRANCH  16  19
ATOM     19  C   UNL     1      25.536   2.981  20.639  0.00  0.00    -0.033 A 
ATOM     20  C   UNL     1      26.545   2.563  21.507  0.00  0.00    +0.005 A 
ATOM     21  C   UNL     1      24.370   2.225  20.509  0.00  0.00    +0.005 A 
ATOM     23  C   UNL     1      26.389   1.390  22.244  0.00  0.00    +0.000 A 
ATOM     24  C   UNL     1      24.214   1.052  21.246  0.00  0.00    +0.000 A 
ATOM     25  C   UNL     1      25.223   0.634  22.114  0.00  0.00    +0.000 A 
ENDBRANCH  16  19
ENDBRANCH   4  16
ENDBRANCH  14   4
ENDBRANCH   8  14
BRANCH   9  15
ATOM     15  C   UNL     1      19.985   6.108  20.545  0.00  0.00    +0.124 C 
BRANCH  15   5
ATOM      2  O   UNL     1      17.616   5.753  18.976  0.00  0.00    -0.253 OA
ATOM      5  N   UNL     1      18.689   6.724  20.776  0.00  0.00    -0.298 N 
ATOM      6  N   UNL     1      16.485   7.217  20.420  0.00  0.00    -0.269 N 
ATOM     18  C   UNL     1      17.586   6.493  19.956  0.00  0.00    +0.304 C 
ATOM     29  H   UNL     1      18.614   7.432  21.501  0.00  0.00    +0.150 HD
ATOM     30  H   UNL     1      16.617   7.788  21.252  0.00  0.00    +0.156 HD
BRANCH   6  22
ATOM      1  S   UNL     1      12.639   6.980  19.625  0.00  0.00    -0.103 S 
ATOM     22  C   UNL     1      15.181   7.259  19.876  0.00  0.00    +0.042 A 
ATOM     26  C   UNL     1      14.850   7.783  18.593  0.00  0.00    +0.031 A 
ATOM     27  C   UNL     1      14.071   6.789  20.544  0.00  0.00    +0.068 A 
ATOM     28  C   UNL     1      13.501   7.694  18.329  0.00  0.00    +0.047 A 
ENDBRANCH   6  22
ENDBRANCH  15   5
ENDBRANCH   9  15
TORSDOF 7
ENDMDL
MODEL 8
REMARK VINA RESULT:      -5.3      4.061      6.332
REMARK  Name = 25388796
REMARK  8 active torsions:
REMARK  status: ('A' for Active; 'I' for Inactive)
REMARK    1  A    between atoms: N_4  and  C_14
REMARK    2  A    between atoms: N_4  and  C_16
REMARK    3  A    between atoms: N_4  and  C_17
REMARK    4  A    between atoms: N_5  and  C_15
REMARK    5  A    between atoms: N_6  and  C_22
REMARK    6  A    between atoms: C_8  and  C_14
REMARK    7  A    between atoms: C_9  and  C_15
REMARK    8  A    between atoms: C_16  and  C_19
REMARK                            x       y       z     vdW  Elec       q    Type
REMARK                         _______ _______ _______ _____ _____    ______ ____
ROOT
ATOM      3  N   UNL     1      -5.436 -10.853  10.950  0.00  0.00    -0.298 NA
ATOM      7  C   UNL     1      -2.969 -11.454  11.515  0.00  0.00    -0.003 C 
ATOM      8  C   UNL     1      -3.814 -11.327  12.802  0.00  0.00    +0.020 C 
ATOM      9  C   UNL     1      -4.512  -9.896  10.281  0.00  0.00    +0.074 C 
ATOM     10  C   UNL     1      -3.051 -10.139  10.719  0.00  0.00    +0.024 C 
ATOM     11  C   UNL     1      -5.226 -10.830  12.417  0.00  0.00    +0.089 C 
ATOM     12  C   UNL     1      -3.625 -12.550  10.654  0.00  0.00    +0.019 C 
ATOM     13  C   UNL     1      -5.116 -12.215  10.458  0.00  0.00    +0.085 C 
ENDROOT
BRANCH   8  14
ATOM     14  C   UNL     1      -3.171 -10.433  13.860  0.00  0.00    +0.089 C 
BRANCH  14   4
ATOM      4  N   UNL     1      -2.823 -11.201  15.045  0.00  0.00    -0.301 NA
ATOM     17  C   UNL     1      -1.613 -11.994  14.812  0.00  0.00    +0.105 C 
BRANCH   4  16
ATOM     16  C   UNL     1      -3.929 -12.075  15.441  0.00  0.00    +0.119 C 
BRANCH  16  19
ATOM     19  C   UNL     1      -4.659 -11.544  16.647  0.00  0.00    -0.033 A 
ATOM     20  C   UNL     1      -4.372 -12.049  17.915  0.00  0.00    +0.005 A 
ATOM     21  C   UNL     1      -5.622 -10.545  16.495  0.00  0.00    +0.005 A 
ATOM     23  C   UNL     1      -5.047 -11.557  19.032  0.00  0.00    +0.000 A 
ATOM     24  C   UNL     1      -6.297 -10.053  17.612  0.00  0.00    +0.000 A 
ATOM     25  C   UNL     1      -6.010 -10.558  18.881  0.00  0.00    +0.000 A 
ENDBRANCH  16  19
ENDBRANCH   4  16
ENDBRANCH  14   4
ENDBRANCH   8  14
BRANCH   9  15
ATOM     15  C   UNL     1      -4.933  -8.440  10.485  0.00  0.00    +0.124 C 
BRANCH  15   5
ATOM      2  O   UNL     1      -7.724  -8.435   9.845  0.00  0.00    -0.253 OA
ATOM      5  N   UNL     1      -5.548  -7.907   9.281  0.00  0.00    -0.298 N 
ATOM      6  N   UNL     1      -7.220  -7.365   7.818  0.00  0.00    -0.269 N 
ATOM     18  C   UNL     1      -6.922  -7.948   9.052  0.00  0.00    +0.304 C 
ATOM     29  H   UNL     1      -4.942  -7.587   8.531  0.00  0.00    +0.150 HD
ATOM     30  H   UNL     1      -6.442  -7.002   7.272  0.00  0.00    +0.156 HD
BRANCH   6  22
ATOM      1  S   UNL     1     -10.431  -7.403   5.544  0.00  0.00    -0.103 S 
ATOM     22  C   UNL     1      -8.489  -7.207   7.216  0.00  0.00    +0.042 A 
ATOM     26  C   UNL     1      -9.565  -6.454   7.769  0.00  0.00    +0.031 A 
ATOM     27  C   UNL     1      -8.824  -7.777   6.007  0.00  0.00    +0.068 A 
ATOM     28  C   UNL     1     -10.681  -6.477   6.963  0.00  0.00    +0.047 A 
ENDBRANCH   6  22
ENDBRANCH  15   5
ENDBRANCH   9  15
TORSDOF 7
ENDMDL
MODEL 9
REMARK VINA RESULT:      -5.1     23.733     26.103
REMARK  Name = 25388796
REMARK  8 active torsions:
REMARK  status: ('A' for Active; 'I' for Inactive)
REMARK    1  A    between atoms: N_4  and  C_14
REMARK    2  A    between atoms: N_4  and  C_16
REMARK    3  A    between atoms: N_4  and  C_17
REMARK    4  A    between atoms: N_5  and  C_15
REMARK    5  A    between atoms: N_6  and  C_22
REMARK    6  A    between atoms: C_8  and  C_14
REMARK    7  A    between atoms: C_9  and  C_15
REMARK    8  A    between atoms: C_16  and  C_19
REMARK                            x       y       z     vdW  Elec       q    Type
REMARK                         _______ _______ _______ _____ _____    ______ ____
ROOT
ATOM      3  N   UNL     1      10.629   7.172   6.641  0.00  0.00    -0.298 NA
ATOM      7  C   UNL     1       9.412   5.023   5.827  0.00  0.00    -0.003 C 
ATOM      8  C   UNL     1      10.683   5.287   4.989  0.00  0.00    +0.020 C 
ATOM      9  C   UNL     1       9.195   7.469   6.374  0.00  0.00    +0.074 C 
ATOM     10  C   UNL     1       8.484   6.249   5.747  0.00  0.00    +0.024 C 
ATOM     11  C   UNL     1      11.282   6.645   5.419  0.00  0.00    +0.089 C 
ATOM     12  C   UNL     1       9.862   4.885   7.294  0.00  0.00    +0.019 C 
ATOM     13  C   UNL     1      10.690   6.123   7.687  0.00  0.00    +0.085 C 
ENDROOT
BRANCH   8  14
ATOM     14  C   UNL     1      10.435   5.232   3.483  0.00  0.00    +0.089 C 
BRANCH  14   4
ATOM      4  N   UNL     1      11.692   5.191   2.752  0.00  0.00    -0.301 NA
ATOM     17  C   UNL     1      11.813   6.348   1.862  0.00  0.00    +0.105 C 
BRANCH   4  16
ATOM     16  C   UNL     1      11.804   3.950   1.983  0.00  0.00    +0.119 C 
BRANCH  16  19
ATOM     19  C   UNL     1      13.041   3.932   1.124  0.00  0.00    -0.033 A 
ATOM     20  C   UNL     1      14.297   3.781   1.713  0.00  0.00    +0.005 A 
ATOM     21  C   UNL     1      12.931   4.065  -0.261  0.00  0.00    +0.005 A 
ATOM     23  C   UNL     1      15.443   3.764   0.918  0.00  0.00    +0.000 A 
ATOM     24  C   UNL     1      14.077   4.048  -1.055  0.00  0.00    +0.000 A 
ATOM     25  C   UNL     1      15.333   3.897  -0.466  0.00  0.00    +0.000 A 
ENDBRANCH  16  19
ENDBRANCH   4  16
ENDBRANCH  14   4
ENDBRANCH   8  14
BRANCH   9  15
ATOM     15  C   UNL     1       9.008   8.731   5.529  0.00  0.00    +0.124 C 
BRANCH  15   5
ATOM      2  O   UNL     1       7.955  10.412   3.464  0.00  0.00    -0.253 OA
ATOM      5  N   UNL     1       7.607   8.927   5.197  0.00  0.00    -0.298 N 
ATOM      6  N   UNL     1       5.789   9.757   4.086  0.00  0.00    -0.269 N 
ATOM     18  C   UNL     1       7.184   9.769   4.171  0.00  0.00    +0.304 C 
ATOM     29  H   UNL     1       6.905   8.516   5.806  0.00  0.00    +0.150 HD
ATOM     30  H   UNL     1       5.285   9.169   4.745  0.00  0.00    +0.156 HD
BRANCH   6  22
ATOM      1  S   UNL     1       3.559  12.347   2.137  0.00  0.00    -0.103 S 
ATOM     22  C   UNL     1       4.968  10.470   3.183  0.00  0.00    +0.042 A 
ATOM     26  C   UNL     1       4.492   9.961   1.940  0.00  0.00    +0.031 A 
ATOM     27  C   UNL     1       4.536  11.758   3.414  0.00  0.00    +0.068 A 
ATOM     28  C   UNL     1       3.714  10.878   1.269  0.00  0.00    +0.047 A 
ENDBRANCH   6  22
ENDBRANCH  15   5
ENDBRANCH   9  15
TORSDOF 7
ENDMDL
MODEL 10
REMARK VINA RESULT:      -5.0      2.478      4.560
REMARK  Name = 25388796
REMARK  8 active torsions:
REMARK  status: ('A' for Active; 'I' for Inactive)
REMARK    1  A    between atoms: N_4  and  C_14
REMARK    2  A    between atoms: N_4  and  C_16
REMARK    3  A    between atoms: N_4  and  C_17
REMARK    4  A    between atoms: N_5  and  C_15
REMARK    5  A    between atoms: N_6  and  C_22
REMARK    6  A    between atoms: C_8  and  C_14
REMARK    7  A    between atoms: C_9  and  C_15
REMARK    8  A    between atoms: C_16  and  C_19
REMARK                            x       y       z     vdW  Elec       q    Type
REMARK                         _______ _______ _______ _____ _____    ______ ____
ROOT
ATOM      3  N   UNL     1      -6.994 -11.403  15.497  0.00  0.00    -0.298 NA
ATOM      7  C   UNL     1      -4.828 -10.454  14.415  0.00  0.00    -0.003 C 
ATOM      8  C   UNL     1      -4.862 -11.996  14.318  0.00  0.00    +0.020 C 
ATOM      9  C   UNL     1      -6.305 -10.493  16.451  0.00  0.00    +0.074 C 
ATOM     10  C   UNL     1      -4.940 -10.033  15.891  0.00  0.00    +0.024 C 
ATOM     11  C   UNL     1      -6.092 -12.511  15.100  0.00  0.00    +0.089 C 
ATOM     12  C   UNL     1      -6.085  -9.932  13.694  0.00  0.00    +0.019 C 
ATOM     13  C   UNL     1      -7.330 -10.622  14.282  0.00  0.00    +0.085 C 
ENDROOT
BRANCH   8  14
ATOM     14  C   UNL     1      -3.573 -12.660  14.796  0.00  0.00    +0.089 C 
BRANCH  14   4
ATOM      4  N   UNL     1      -2.881 -13.304  13.691  0.00  0.00    -0.301 NA
ATOM     17  C   UNL     1      -2.206 -14.524  14.142  0.00  0.00    +0.105 C 
BRANCH   4  16
ATOM     16  C   UNL     1      -1.913 -12.389  13.081  0.00  0.00    +0.119 C 
BRANCH  16  19
ATOM     19  C   UNL     1      -2.518 -11.610  11.943  0.00  0.00    -0.033 A 
ATOM     20  C   UNL     1      -2.190 -10.266  11.765  0.00  0.00    +0.005 A 
ATOM     21  C   UNL     1      -3.406 -12.233  11.065  0.00  0.00    +0.005 A 
ATOM     23  C   UNL     1      -2.749  -9.544  10.711  0.00  0.00    +0.000 A 
ATOM     24  C   UNL     1      -3.965 -11.512  10.011  0.00  0.00    +0.000 A 
ATOM     25  C   UNL     1      -3.637 -10.167   9.834  0.00  0.00    +0.000 A 
ENDBRANCH  16  19
ENDBRANCH   4  16
ENDBRANCH  14   4
ENDBRANCH   8  14
BRANCH   9  15
ATOM     15  C   UNL     1      -6.169 -11.105  17.847  0.00  0.00    +0.124 C 
BRANCH  15   5
ATOM      2  O   UNL     1      -8.760 -12.289  18.142  0.00  0.00    -0.253 OA
ATOM      5  N   UNL     1      -7.241 -10.647  18.717  0.00  0.00    -0.298 N 
ATOM      6  N   UNL     1      -9.300 -10.628  19.709  0.00  0.00    -0.269 N 
ATOM     18  C   UNL     1      -8.475 -11.289  18.796  0.00  0.00    +0.304 C 
ATOM     29  H   UNL     1      -7.121  -9.765  19.206  0.00  0.00    +0.150 HD
ATOM     30  H   UNL     1      -8.919  -9.809  20.177  0.00  0.00    +0.156 HD
BRANCH   6  22
ATOM      1  S   UNL     1     -12.663 -12.291  20.895  0.00  0.00    -0.103 S 
ATOM     22  C   UNL     1     -10.624 -10.956  20.080  0.00  0.00    +0.042 A 
ATOM     26  C   UNL     1     -11.727 -10.055  20.045  0.00  0.00    +0.031 A 
ATOM     27  C   UNL     1     -10.993 -12.207  20.524  0.00  0.00    +0.068 A 
ATOM     28  C   UNL     1     -12.897 -10.650  20.462  0.00  0.00    +0.047 A 
ENDBRANCH   6  22
ENDBRANCH  15   5
ENDBRANCH   9  15
TORSDOF 7
ENDMDL
