MODEL 1
REMARK VINA RESULT:      -8.3      0.000      0.000
REMARK  Name = 7051670
REMARK  5 active torsions:
REMARK  status: ('A' for Active; 'I' for Inactive)
REMARK    1  A    between atoms: N_3  and  C_14
REMARK    2  A    between atoms: N_5  and  C_25
REMARK    3  A    between atoms: N_6  and  C_18
REMARK    4  A    between atoms: C_14  and  C_17
REMARK    5  A    between atoms: C_27  and  C_29
REMARK                            x       y       z     vdW  Elec       q    Type
REMARK                         _______ _______ _______ _____ _____    ______ ____
ROOT
ATOM      1  O   UNL     1      -6.860 -10.882  10.858  0.00  0.00    -0.266 OA
ATOM      3  N   UNL     1      -3.297 -11.014  14.382  0.00  0.00    -0.297 NA
ATOM      4  N   UNL     1      -4.620 -11.120  11.480  0.00  0.00    -0.310 N 
ATOM      7  C   UNL     1      -3.786 -13.028  12.972  0.00  0.00    +0.024 C 
ATOM      8  C   UNL     1      -2.206 -11.344  12.158  0.00  0.00    +0.050 C 
ATOM      9  C   UNL     1      -2.474 -12.845  12.220  0.00  0.00    +0.017 C 
ATOM     10  C   UNL     1      -3.669 -12.435  14.392  0.00  0.00    +0.090 C 
ATOM     11  C   UNL     1      -2.077 -10.783  13.593  0.00  0.00    +0.094 C 
ATOM     12  C   UNL     1      -4.918 -12.390  12.157  0.00  0.00    +0.130 C 
ATOM     13  C   UNL     1      -3.313 -10.629  11.405  0.00  0.00    +0.026 A 
ATOM     15  C   UNL     1      -3.046  -9.525  10.689  0.00  0.00    +0.024 A 
ATOM     16  C   UNL     1      -5.696 -10.479  10.834  0.00  0.00    +0.273 A 
ATOM     18  C   UNL     1      -5.360  -9.238  10.065  0.00  0.00    +0.099 A 
ATOM     19  C   UNL     1      -4.092  -8.816  10.008  0.00  0.00    +0.030 A 
ENDROOT
BRANCH  18   6
ATOM      2  O   UNL     1      -6.161  -9.588   7.348  0.00  0.00    -0.270 OA
ATOM      6  N   UNL     1      -6.375  -8.581   9.434  0.00  0.00    -0.277 N 
ATOM     27  C   UNL     1      -6.717  -8.796   8.106  0.00  0.00    +0.248 C 
ATOM     35  H   UNL     1      -6.777  -7.808   9.955  0.00  0.00    +0.155 HD
BRANCH  27  29
ATOM     29  C   UNL     1      -7.866  -8.002   7.600  0.00  0.00    +0.037 A 
ATOM     30  C   UNL     1      -8.603  -7.253   8.494  0.00  0.00    +0.013 A 
ATOM     31  C   UNL     1      -8.159  -8.037   6.254  0.00  0.00    +0.013 A 
ATOM     32  C   UNL     1      -9.682  -6.507   8.020  0.00  0.00    +0.001 A 
ATOM     33  C   UNL     1      -9.237  -7.291   5.778  0.00  0.00    +0.001 A 
ATOM     34  C   UNL     1      -9.999  -6.526   6.661  0.00  0.00    +0.000 A 
ENDBRANCH  27  29
ENDBRANCH  18   6
BRANCH   3  14
ATOM     14  C   UNL     1      -3.145 -10.502  15.742  0.00  0.00    +0.121 C 
BRANCH  14  17
ATOM      5  N   UNL     1      -6.576  -9.762  16.751  0.00  0.00    -0.349 N 
ATOM     17  C   UNL     1      -4.488 -10.340  16.397  0.00  0.00    -0.008 A 
ATOM     20  C   UNL     1      -4.845 -10.830  17.668  0.00  0.00    +0.004 A 
ATOM     21  C   UNL     1      -5.550  -9.691  15.847  0.00  0.00    +0.091 A 
ATOM     22  C   UNL     1      -6.173 -10.453  17.872  0.00  0.00    +0.049 A 
ATOM     23  C   UNL     1      -4.184 -11.558  18.677  0.00  0.00    +0.010 A 
ATOM     24  C   UNL     1      -6.877 -10.768  19.041  0.00  0.00    +0.026 A 
ATOM     25  C   UNL     1      -7.888  -9.191  16.542  0.00  0.00    +0.149 C 
ATOM     26  C   UNL     1      -4.874 -11.881  19.851  0.00  0.00    +0.001 A 
ATOM     28  C   UNL     1      -6.201 -11.491  20.028  0.00  0.00    +0.002 A 
ENDBRANCH  14  17
ENDBRANCH   3  14
TORSDOF 4
ENDMDL
MODEL 2
REMARK VINA RESULT:      -7.8     28.300     30.638
REMARK  Name = 7051670
REMARK  5 active torsions:
REMARK  status: ('A' for Active; 'I' for Inactive)
REMARK    1  A    between atoms: N_3  and  C_14
REMARK    2  A    between atoms: N_5  and  C_25
REMARK    3  A    between atoms: N_6  and  C_18
REMARK    4  A    between atoms: C_14  and  C_17
REMARK    5  A    between atoms: C_27  and  C_29
REMARK                            x       y       z     vdW  Elec       q    Type
REMARK                         _______ _______ _______ _____ _____    ______ ____
ROOT
ATOM      1  O   UNL     1      17.134   9.542  20.464  0.00  0.00    -0.266 OA
ATOM      3  N   UNL     1      12.210  10.325  20.986  0.00  0.00    -0.297 NA
ATOM      4  N   UNL     1      14.929   9.162  19.788  0.00  0.00    -0.310 N 
ATOM      7  C   UNL     1      13.407  11.021  18.897  0.00  0.00    +0.024 C 
ATOM      8  C   UNL     1      12.549   8.736  19.088  0.00  0.00    +0.050 C 
ATOM      9  C   UNL     1      12.740   9.896  18.116  0.00  0.00    +0.017 C 
ATOM     10  C   UNL     1      12.516  11.442  20.083  0.00  0.00    +0.090 C 
ATOM     11  C   UNL     1      11.639   9.184  20.255  0.00  0.00    +0.094 C 
ATOM     12  C   UNL     1      14.801  10.556  19.341  0.00  0.00    +0.130 C 
ATOM     13  C   UNL     1      13.886   8.247  19.614  0.00  0.00    +0.026 A 
ATOM     15  C   UNL     1      14.062   6.953  19.928  0.00  0.00    +0.024 A 
ATOM     16  C   UNL     1      16.181   8.776  20.307  0.00  0.00    +0.273 A 
ATOM     18  C   UNL     1      16.330   7.330  20.667  0.00  0.00    +0.099 A 
ATOM     19  C   UNL     1      15.309   6.489  20.467  0.00  0.00    +0.030 A 
ENDROOT
BRANCH  18   6
ATOM      2  O   UNL     1      18.348   5.863  19.282  0.00  0.00    -0.270 OA
ATOM      6  N   UNL     1      17.523   6.917  21.184  0.00  0.00    -0.277 N 
ATOM     27  C   UNL     1      18.466   6.204  20.457  0.00  0.00    +0.248 C 
ATOM     35  H   UNL     1      17.620   7.034  22.187  0.00  0.00    +0.155 HD
BRANCH  27  29
ATOM     29  C   UNL     1      19.715   5.861  21.184  0.00  0.00    +0.037 A 
ATOM     30  C   UNL     1      20.003   6.522  22.360  0.00  0.00    +0.013 A 
ATOM     31  C   UNL     1      20.547   4.895  20.660  0.00  0.00    +0.013 A 
ATOM     32  C   UNL     1      21.176   6.201  23.044  0.00  0.00    +0.001 A 
ATOM     33  C   UNL     1      21.720   4.573  21.343  0.00  0.00    +0.001 A 
ATOM     34  C   UNL     1      22.034   5.225  22.535  0.00  0.00    +0.000 A 
ENDBRANCH  27  29
ENDBRANCH  18   6
BRANCH   3  14
ATOM     14  C   UNL     1      11.323  10.751  22.066  0.00  0.00    +0.121 C 
BRANCH  14  17
ATOM      5  N   UNL     1      13.748  11.865  24.559  0.00  0.00    -0.349 N 
ATOM     17  C   UNL     1      12.111  11.387  23.176  0.00  0.00    -0.008 A 
ATOM     20  C   UNL     1      11.644  12.396  24.040  0.00  0.00    +0.004 A 
ATOM     21  C   UNL     1      13.394  11.071  23.501  0.00  0.00    +0.091 A 
ATOM     22  C   UNL     1      12.698  12.684  24.909  0.00  0.00    +0.049 A 
ATOM     23  C   UNL     1      10.434  13.103  24.183  0.00  0.00    +0.010 A 
ATOM     24  C   UNL     1      12.602  13.649  25.919  0.00  0.00    +0.026 A 
ATOM     25  C   UNL     1      15.043  11.836  25.203  0.00  0.00    +0.149 C 
ATOM     26  C   UNL     1      10.323  14.070  25.189  0.00  0.00    +0.001 A 
ATOM     28  C   UNL     1      11.392  14.338  26.042  0.00  0.00    +0.002 A 
ENDBRANCH  14  17
ENDBRANCH   3  14
TORSDOF 4
ENDMDL
MODEL 3
REMARK VINA RESULT:      -7.6      3.872      8.908
REMARK  Name = 7051670
REMARK  5 active torsions:
REMARK  status: ('A' for Active; 'I' for Inactive)
REMARK    1  A    between atoms: N_3  and  C_14
REMARK    2  A    between atoms: N_5  and  C_25
REMARK    3  A    between atoms: N_6  and  C_18
REMARK    4  A    between atoms: C_14  and  C_17
REMARK    5  A    between atoms: C_27  and  C_29
REMARK                            x       y       z     vdW  Elec       q    Type
REMARK                         _______ _______ _______ _____ _____    ______ ____
ROOT
ATOM      1  O   UNL     1      -8.460  -9.171  17.434  0.00  0.00    -0.266 OA
ATOM      3  N   UNL     1      -5.076 -12.009  15.061  0.00  0.00    -0.297 NA
ATOM      4  N   UNL     1      -6.775 -10.790  17.472  0.00  0.00    -0.310 N 
ATOM      7  C   UNL     1      -4.363 -10.305  16.756  0.00  0.00    +0.024 C 
ATOM      8  C   UNL     1      -4.981 -12.556  17.497  0.00  0.00    +0.050 C 
ATOM      9  C   UNL     1      -4.005 -11.408  17.744  0.00  0.00    +0.017 C 
ATOM     10  C   UNL     1      -4.238 -10.829  15.310  0.00  0.00    +0.090 C 
ATOM     11  C   UNL     1      -4.819 -13.069  16.048  0.00  0.00    +0.094 C 
ATOM     12  C   UNL     1      -5.772  -9.791  17.078  0.00  0.00    +0.130 C 
ATOM     13  C   UNL     1      -6.410 -12.112  17.748  0.00  0.00    +0.026 A 
ATOM     15  C   UNL     1      -7.321 -12.982  18.212  0.00  0.00    +0.024 A 
ATOM     16  C   UNL     1      -8.095 -10.328  17.649  0.00  0.00    +0.273 A 
ATOM     18  C   UNL     1      -9.086 -11.335  18.146  0.00  0.00    +0.099 A 
ATOM     19  C   UNL     1      -8.686 -12.583  18.412  0.00  0.00    +0.030 A 
ENDROOT
BRANCH  18   6
ATOM      2  O   UNL     1     -10.210 -10.275  20.546  0.00  0.00    -0.270 OA
ATOM      6  N   UNL     1     -10.377 -10.931  18.320  0.00  0.00    -0.277 N 
ATOM     27  C   UNL     1     -10.865 -10.423  19.516  0.00  0.00    +0.248 C 
ATOM     35  H   UNL     1     -11.007 -11.163  17.559  0.00  0.00    +0.155 HD
BRANCH  27  29
ATOM     29  C   UNL     1     -12.293 -10.015  19.507  0.00  0.00    +0.037 A 
ATOM     30  C   UNL     1     -12.943  -9.893  18.296  0.00  0.00    +0.013 A 
ATOM     31  C   UNL     1     -12.924  -9.771  20.708  0.00  0.00    +0.013 A 
ATOM     32  C   UNL     1     -14.285  -9.511  18.287  0.00  0.00    +0.001 A 
ATOM     33  C   UNL     1     -14.266  -9.389  20.700  0.00  0.00    +0.001 A 
ATOM     34  C   UNL     1     -14.946  -9.258  19.490  0.00  0.00    +0.000 A 
ENDBRANCH  27  29
ENDBRANCH  18   6
BRANCH   3  14
ATOM     14  C   UNL     1      -4.892 -12.506  13.700  0.00  0.00    +0.121 C 
BRANCH  14  17
ATOM      5  N   UNL     1      -6.577 -10.150  11.476  0.00  0.00    -0.349 N 
ATOM     17  C   UNL     1      -5.319 -11.470  12.698  0.00  0.00    -0.008 A 
ATOM     20  C   UNL     1      -4.457 -10.719  11.876  0.00  0.00    +0.004 A 
ATOM     21  C   UNL     1      -6.609 -11.115  12.446  0.00  0.00    +0.091 A 
ATOM     22  C   UNL     1      -5.275  -9.888  11.109  0.00  0.00    +0.049 A 
ATOM     23  C   UNL     1      -3.061 -10.651  11.696  0.00  0.00    +0.010 A 
ATOM     24  C   UNL     1      -4.766  -8.987  10.166  0.00  0.00    +0.026 A 
ATOM     25  C   UNL     1      -7.750  -9.506  10.928  0.00  0.00    +0.149 C 
ATOM     26  C   UNL     1      -2.537  -9.756  10.756  0.00  0.00    +0.001 A 
ATOM     28  C   UNL     1      -3.378  -8.938  10.004  0.00  0.00    +0.002 A 
ENDBRANCH  14  17
ENDBRANCH   3  14
TORSDOF 4
ENDMDL
MODEL 4
REMARK VINA RESULT:      -7.5      0.846      2.088
REMARK  Name = 7051670
REMARK  5 active torsions:
REMARK  status: ('A' for Active; 'I' for Inactive)
REMARK    1  A    between atoms: N_3  and  C_14
REMARK    2  A    between atoms: N_5  and  C_25
REMARK    3  A    between atoms: N_6  and  C_18
REMARK    4  A    between atoms: C_14  and  C_17
REMARK    5  A    between atoms: C_27  and  C_29
REMARK                            x       y       z     vdW  Elec       q    Type
REMARK                         _______ _______ _______ _____ _____    ______ ____
ROOT
ATOM      1  O   UNL     1      -6.527 -11.141  11.212  0.00  0.00    -0.266 OA
ATOM      3  N   UNL     1      -3.022 -11.306  14.792  0.00  0.00    -0.297 NA
ATOM      4  N   UNL     1      -4.307 -11.448  11.875  0.00  0.00    -0.310 N 
ATOM      7  C   UNL     1      -3.570 -13.341  13.436  0.00  0.00    +0.024 C 
ATOM      8  C   UNL     1      -1.914 -11.745  12.597  0.00  0.00    +0.050 C 
ATOM      9  C   UNL     1      -2.242 -13.232  12.698  0.00  0.00    +0.017 C 
ATOM     10  C   UNL     1      -3.450 -12.710  14.839  0.00  0.00    +0.090 C 
ATOM     11  C   UNL     1      -1.783 -11.146  14.016  0.00  0.00    +0.094 C 
ATOM     12  C   UNL     1      -4.665 -12.684  12.585  0.00  0.00    +0.130 C 
ATOM     13  C   UNL     1      -2.980 -11.010  11.806  0.00  0.00    +0.026 A 
ATOM     15  C   UNL     1      -2.659  -9.940  11.062  0.00  0.00    +0.024 A 
ATOM     16  C   UNL     1      -5.347 -10.785  11.193  0.00  0.00    +0.273 A 
ATOM     18  C   UNL     1      -4.952  -9.582  10.394  0.00  0.00    +0.099 A 
ATOM     19  C   UNL     1      -3.667  -9.212  10.344  0.00  0.00    +0.030 A 
ENDROOT
BRANCH  18   6
ATOM      2  O   UNL     1      -5.812 -10.066   7.716  0.00  0.00    -0.270 OA
ATOM      6  N   UNL     1      -5.931  -8.905   9.728  0.00  0.00    -0.277 N 
ATOM     27  C   UNL     1      -6.305  -9.188   8.421  0.00  0.00    +0.248 C 
ATOM     35  H   UNL     1      -6.275  -8.074  10.197  0.00  0.00    +0.155 HD
BRANCH  27  29
ATOM     29  C   UNL     1      -7.407  -8.358   7.872  0.00  0.00    +0.037 A 
ATOM     30  C   UNL     1      -7.631  -8.366   6.511  0.00  0.00    +0.013 A 
ATOM     31  C   UNL     1      -8.170  -7.606   8.739  0.00  0.00    +0.013 A 
ATOM     32  C   UNL     1      -8.666  -7.586   5.994  0.00  0.00    +0.001 A 
ATOM     33  C   UNL     1      -9.205  -6.825   8.223  0.00  0.00    +0.001 A 
ATOM     34  C   UNL     1      -9.453  -6.815   6.851  0.00  0.00    +0.000 A 
ENDBRANCH  27  29
ENDBRANCH  18   6
BRANCH   3  14
ATOM     14  C   UNL     1      -2.869 -10.759  16.139  0.00  0.00    +0.121 C 
BRANCH  14  17
ATOM      5  N   UNL     1      -5.651 -11.128  18.476  0.00  0.00    -0.349 N 
ATOM     17  C   UNL     1      -4.174 -10.816  16.882  0.00  0.00    -0.008 A 
ATOM     20  C   UNL     1      -5.433 -10.465  16.357  0.00  0.00    +0.004 A 
ATOM     21  C   UNL     1      -4.319 -11.218  18.174  0.00  0.00    +0.091 A 
ATOM     22  C   UNL     1      -6.355 -10.670  17.384  0.00  0.00    +0.049 A 
ATOM     23  C   UNL     1      -5.897  -9.992  15.113  0.00  0.00    +0.010 A 
ATOM     24  C   UNL     1      -7.725 -10.425  17.230  0.00  0.00    +0.026 A 
ATOM     25  C   UNL     1      -6.220 -11.466  19.762  0.00  0.00    +0.149 C 
ATOM     26  C   UNL     1      -7.264  -9.743  14.944  0.00  0.00    +0.001 A 
ATOM     28  C   UNL     1      -8.162  -9.957  15.988  0.00  0.00    +0.002 A 
ENDBRANCH  14  17
ENDBRANCH   3  14
TORSDOF 4
ENDMDL
MODEL 5
REMARK VINA RESULT:      -7.3     19.292     22.094
REMARK  Name = 7051670
REMARK  5 active torsions:
REMARK  status: ('A' for Active; 'I' for Inactive)
REMARK    1  A    between atoms: N_3  and  C_14
REMARK    2  A    between atoms: N_5  and  C_25
REMARK    3  A    between atoms: N_6  and  C_18
REMARK    4  A    between atoms: C_14  and  C_17
REMARK    5  A    between atoms: C_27  and  C_29
REMARK                            x       y       z     vdW  Elec       q    Type
REMARK                         _______ _______ _______ _____ _____    ______ ____
ROOT
ATOM      1  O   UNL     1     -14.761   8.644  21.864  0.00  0.00    -0.266 OA
ATOM      3  N   UNL     1     -12.721   9.395  17.347  0.00  0.00    -0.297 NA
ATOM      4  N   UNL     1     -12.884   8.880  20.492  0.00  0.00    -0.310 N 
ATOM      7  C   UNL     1     -12.361  11.035  19.209  0.00  0.00    +0.024 C 
ATOM      8  C   UNL     1     -10.870   9.104  18.999  0.00  0.00    +0.050 C 
ATOM      9  C   UNL     1     -10.911  10.589  19.347  0.00  0.00    +0.017 C 
ATOM     10  C   UNL     1     -12.852  10.797  17.766  0.00  0.00    +0.090 C 
ATOM     11  C   UNL     1     -11.350   8.901  17.544  0.00  0.00    +0.094 C 
ATOM     12  C   UNL     1     -13.209  10.292  20.250  0.00  0.00    +0.130 C 
ATOM     13  C   UNL     1     -11.728   8.301  19.959  0.00  0.00    +0.026 A 
ATOM     15  C   UNL     1     -11.392   7.041  20.281  0.00  0.00    +0.024 A 
ATOM     16  C   UNL     1     -13.741   8.172  21.359  0.00  0.00    +0.273 A 
ATOM     18  C   UNL     1     -13.345   6.763  21.674  0.00  0.00    +0.099 A 
ATOM     19  C   UNL     1     -12.220   6.258  21.154  0.00  0.00    +0.030 A 
ENDROOT
BRANCH  18   6
ATOM      2  O   UNL     1     -15.500   5.074  20.868  0.00  0.00    -0.270 OA
ATOM      6  N   UNL     1     -14.153   6.039  22.501  0.00  0.00    -0.277 N 
ATOM     27  C   UNL     1     -15.189   5.234  22.046  0.00  0.00    +0.248 C 
ATOM     35  H   UNL     1     -14.048   6.241  23.489  0.00  0.00    +0.155 HD
BRANCH  27  29
ATOM     29  C   UNL     1     -15.946   4.506  23.096  0.00  0.00    +0.037 A 
ATOM     30  C   UNL     1     -17.284   4.241  22.888  0.00  0.00    +0.013 A 
ATOM     31  C   UNL     1     -15.289   4.117  24.243  0.00  0.00    +0.013 A 
ATOM     32  C   UNL     1     -17.997   3.557  23.873  0.00  0.00    +0.001 A 
ATOM     33  C   UNL     1     -16.000   3.432  25.229  0.00  0.00    +0.001 A 
ATOM     34  C   UNL     1     -17.354   3.152  25.044  0.00  0.00    +0.000 A 
ENDBRANCH  27  29
ENDBRANCH  18   6
BRANCH   3  14
ATOM     14  C   UNL     1     -13.146   9.220  15.960  0.00  0.00    +0.121 C 
BRANCH  14  17
ATOM      5  N   UNL     1     -16.213   7.293  16.425  0.00  0.00    -0.349 N 
ATOM     17  C   UNL     1     -14.353   8.328  15.887  0.00  0.00    -0.008 A 
ATOM     20  C   UNL     1     -14.702   7.509  14.797  0.00  0.00    +0.004 A 
ATOM     21  C   UNL     1     -15.281   8.189  16.874  0.00  0.00    +0.091 A 
ATOM     22  C   UNL     1     -15.885   6.861  15.159  0.00  0.00    +0.049 A 
ATOM     23  C   UNL     1     -14.142   7.241  13.532  0.00  0.00    +0.010 A 
ATOM     24  C   UNL     1     -16.539   5.955  14.316  0.00  0.00    +0.026 A 
ATOM     25  C   UNL     1     -17.371   6.872  17.183  0.00  0.00    +0.149 C 
ATOM     26  C   UNL     1     -14.785   6.337  12.678  0.00  0.00    +0.001 A 
ATOM     28  C   UNL     1     -15.965   5.705  13.066  0.00  0.00    +0.002 A 
ENDBRANCH  14  17
ENDBRANCH   3  14
TORSDOF 4
ENDMDL
MODEL 6
REMARK VINA RESULT:      -7.2      3.648      7.517
REMARK  Name = 7051670
REMARK  5 active torsions:
REMARK  status: ('A' for Active; 'I' for Inactive)
REMARK    1  A    between atoms: N_3  and  C_14
REMARK    2  A    between atoms: N_5  and  C_25
REMARK    3  A    between atoms: N_6  and  C_18
REMARK    4  A    between atoms: C_14  and  C_17
REMARK    5  A    between atoms: C_27  and  C_29
REMARK                            x       y       z     vdW  Elec       q    Type
REMARK                         _______ _______ _______ _____ _____    ______ ____
ROOT
ATOM      1  O   UNL     1      -7.202 -11.983  14.503  0.00  0.00    -0.266 OA
ATOM      3  N   UNL     1      -9.775 -10.976  18.686  0.00  0.00    -0.297 NA
ATOM      4  N   UNL     1      -7.400 -12.025  16.832  0.00  0.00    -0.310 N 
ATOM      7  C   UNL     1      -9.231 -13.339  18.049  0.00  0.00    +0.024 C 
ATOM      8  C   UNL     1      -7.609 -12.037  19.340  0.00  0.00    +0.050 C 
ATOM      9  C   UNL     1      -8.210 -13.430  19.176  0.00  0.00    +0.017 C 
ATOM     10  C   UNL     1     -10.323 -12.310  18.406  0.00  0.00    +0.090 C 
ATOM     11  C   UNL     1      -8.724 -11.033  19.714  0.00  0.00    +0.094 C 
ATOM     12  C   UNL     1      -8.500 -12.995  16.745  0.00  0.00    +0.130 C 
ATOM     13  C   UNL     1      -6.905 -11.601  18.068  0.00  0.00    +0.026 A 
ATOM     15  C   UNL     1      -5.829 -10.799  18.127  0.00  0.00    +0.024 A 
ATOM     16  C   UNL     1      -6.811 -11.624  15.615  0.00  0.00    +0.273 A 
ATOM     18  C   UNL     1      -5.628 -10.712  15.722  0.00  0.00    +0.099 A 
ATOM     19  C   UNL     1      -5.181 -10.346  16.929  0.00  0.00    +0.030 A 
ENDROOT
BRANCH  18   6
ATOM      2  O   UNL     1      -3.502 -12.024  14.343  0.00  0.00    -0.270 OA
ATOM      6  N   UNL     1      -5.037 -10.291  14.568  0.00  0.00    -0.277 N 
ATOM     27  C   UNL     1      -4.003 -10.975  13.944  0.00  0.00    +0.248 C 
ATOM     35  H   UNL     1      -5.299  -9.358  14.266  0.00  0.00    +0.155 HD
BRANCH  27  29
ATOM     29  C   UNL     1      -3.502 -10.373  12.682  0.00  0.00    +0.037 A 
ATOM     30  C   UNL     1      -4.414  -9.913  11.755  0.00  0.00    +0.013 A 
ATOM     31  C   UNL     1      -2.141 -10.292  12.478  0.00  0.00    +0.013 A 
ATOM     32  C   UNL     1      -3.944  -9.347  10.570  0.00  0.00    +0.001 A 
ATOM     33  C   UNL     1      -1.669  -9.726  11.293  0.00  0.00    +0.001 A 
ATOM     34  C   UNL     1      -2.571  -9.254  10.339  0.00  0.00    +0.000 A 
ENDBRANCH  27  29
ENDBRANCH  18   6
BRANCH   3  14
ATOM     14  C   UNL     1     -10.832 -10.044  19.070  0.00  0.00    +0.121 C 
BRANCH  14  17
ATOM      5  N   UNL     1     -10.774  -7.517  16.435  0.00  0.00    -0.349 N 
ATOM     17  C   UNL     1     -11.090  -9.056  17.968  0.00  0.00    -0.008 A 
ATOM     20  C   UNL     1     -12.341  -8.797  17.376  0.00  0.00    +0.004 A 
ATOM     21  C   UNL     1     -10.143  -8.271  17.387  0.00  0.00    +0.091 A 
ATOM     22  C   UNL     1     -12.118  -7.818  16.406  0.00  0.00    +0.049 A 
ATOM     23  C   UNL     1     -13.650  -9.288  17.556  0.00  0.00    +0.010 A 
ATOM     24  C   UNL     1     -13.143  -7.302  15.604  0.00  0.00    +0.026 A 
ATOM     25  C   UNL     1     -10.111  -6.550  15.589  0.00  0.00    +0.149 C 
ATOM     26  C   UNL     1     -14.685  -8.781  16.761  0.00  0.00    +0.001 A 
ATOM     28  C   UNL     1     -14.432  -7.803  15.800  0.00  0.00    +0.002 A 
ENDBRANCH  14  17
ENDBRANCH   3  14
TORSDOF 4
ENDMDL
MODEL 7
REMARK VINA RESULT:      -7.2      3.547      7.287
REMARK  Name = 7051670
REMARK  5 active torsions:
REMARK  status: ('A' for Active; 'I' for Inactive)
REMARK    1  A    between atoms: N_3  and  C_14
REMARK    2  A    between atoms: N_5  and  C_25
REMARK    3  A    between atoms: N_6  and  C_18
REMARK    4  A    between atoms: C_14  and  C_17
REMARK    5  A    between atoms: C_27  and  C_29
REMARK                            x       y       z     vdW  Elec       q    Type
REMARK                         _______ _______ _______ _____ _____    ______ ____
ROOT
ATOM      1  O   UNL     1      -8.063 -11.987  14.570  0.00  0.00    -0.266 OA
ATOM      3  N   UNL     1     -10.603 -11.151  18.810  0.00  0.00    -0.297 NA
ATOM      4  N   UNL     1      -8.127 -11.775  16.896  0.00  0.00    -0.310 N 
ATOM      7  C   UNL     1      -9.474 -13.352  18.401  0.00  0.00    +0.024 C 
ATOM      8  C   UNL     1      -8.202 -11.514  19.399  0.00  0.00    +0.050 C 
ATOM      9  C   UNL     1      -8.413 -13.025  19.443  0.00  0.00    +0.017 C 
ATOM     10  C   UNL     1     -10.785 -12.606  18.728  0.00  0.00    +0.090 C 
ATOM     11  C   UNL     1      -9.527 -10.796  19.747  0.00  0.00    +0.094 C 
ATOM     12  C   UNL     1      -8.928 -13.002  17.010  0.00  0.00    +0.130 C 
ATOM     13  C   UNL     1      -7.705 -11.078  18.032  0.00  0.00    +0.026 A 
ATOM     15  C   UNL     1      -6.883 -10.023  17.912  0.00  0.00    +0.024 A 
ATOM     16  C   UNL     1      -7.730 -11.396  15.598  0.00  0.00    +0.273 A 
ATOM     18  C   UNL     1      -6.833 -10.200  15.504  0.00  0.00    +0.099 A 
ATOM     19  C   UNL     1      -6.442  -9.576  16.621  0.00  0.00    +0.030 A 
ENDROOT
BRANCH  18   6
ATOM      2  O   UNL     1      -4.512 -11.093  14.104  0.00  0.00    -0.270 OA
ATOM      6  N   UNL     1      -6.435  -9.793  14.265  0.00  0.00    -0.277 N 
ATOM     27  C   UNL     1      -5.291 -10.266  13.635  0.00  0.00    +0.248 C 
ATOM     35  H   UNL     1      -6.948  -9.005  13.885  0.00  0.00    +0.155 HD
BRANCH  27  29
ATOM     29  C   UNL     1      -5.033  -9.722  12.277  0.00  0.00    +0.037 A 
ATOM     30  C   UNL     1      -3.848 -10.041  11.647  0.00  0.00    +0.013 A 
ATOM     31  C   UNL     1      -5.985  -8.917  11.690  0.00  0.00    +0.013 A 
ATOM     32  C   UNL     1      -3.604  -9.531  10.372  0.00  0.00    +0.001 A 
ATOM     33  C   UNL     1      -5.742  -8.406  10.414  0.00  0.00    +0.001 A 
ATOM     34  C   UNL     1      -4.552  -8.713   9.755  0.00  0.00    +0.000 A 
ENDBRANCH  27  29
ENDBRANCH  18   6
BRANCH   3  14
ATOM     14  C   UNL     1     -11.852 -10.486  19.172  0.00  0.00    +0.121 C 
BRANCH  14  17
ATOM      5  N   UNL     1     -13.706  -8.805  16.513  0.00  0.00    -0.349 N 
ATOM     17  C   UNL     1     -12.365  -9.664  18.023  0.00  0.00    -0.008 A 
ATOM     20  C   UNL     1     -11.604  -8.759  17.259  0.00  0.00    +0.004 A 
ATOM     21  C   UNL     1     -13.644  -9.684  17.560  0.00  0.00    +0.091 A 
ATOM     22  C   UNL     1     -12.474  -8.224  16.307  0.00  0.00    +0.049 A 
ATOM     23  C   UNL     1     -10.262  -8.329  17.269  0.00  0.00    +0.010 A 
ATOM     24  C   UNL     1     -12.068  -7.277  15.360  0.00  0.00    +0.026 A 
ATOM     25  C   UNL     1     -14.901  -8.533  15.746  0.00  0.00    +0.149 C 
ATOM     26  C   UNL     1      -9.841  -7.382  16.327  0.00  0.00    +0.001 A 
ATOM     28  C   UNL     1     -10.732  -6.866  15.388  0.00  0.00    +0.002 A 
ENDBRANCH  14  17
ENDBRANCH   3  14
TORSDOF 4
ENDMDL
MODEL 8
REMARK VINA RESULT:      -7.1     28.315     30.675
REMARK  Name = 7051670
REMARK  5 active torsions:
REMARK  status: ('A' for Active; 'I' for Inactive)
REMARK    1  A    between atoms: N_3  and  C_14
REMARK    2  A    between atoms: N_5  and  C_25
REMARK    3  A    between atoms: N_6  and  C_18
REMARK    4  A    between atoms: C_14  and  C_17
REMARK    5  A    between atoms: C_27  and  C_29
REMARK                            x       y       z     vdW  Elec       q    Type
REMARK                         _______ _______ _______ _____ _____    ______ ____
ROOT
ATOM      1  O   UNL     1      16.838   9.602  20.983  0.00  0.00    -0.266 OA
ATOM      3  N   UNL     1      11.869   9.834  21.604  0.00  0.00    -0.297 NA
ATOM      4  N   UNL     1      14.674   9.016  20.322  0.00  0.00    -0.310 N 
ATOM      7  C   UNL     1      12.948  10.736  19.529  0.00  0.00    +0.024 C 
ATOM      8  C   UNL     1      12.341   8.366  19.637  0.00  0.00    +0.050 C 
ATOM      9  C   UNL     1      12.390   9.578  18.711  0.00  0.00    +0.017 C 
ATOM     10  C   UNL     1      12.038  11.012  20.744  0.00  0.00    +0.090 C 
ATOM     11  C   UNL     1      11.409   8.668  20.834  0.00  0.00    +0.094 C 
ATOM     12  C   UNL     1      14.391  10.405  19.935  0.00  0.00    +0.130 C 
ATOM     13  C   UNL     1      13.731   8.003  20.125  0.00  0.00    +0.026 A 
ATOM     15  C   UNL     1      14.049   6.724  20.383  0.00  0.00    +0.024 A 
ATOM     16  C   UNL     1      15.970   8.746  20.808  0.00  0.00    +0.273 A 
ATOM     18  C   UNL     1      16.277   7.311  21.106  0.00  0.00    +0.099 A 
ATOM     19  C   UNL     1      15.348   6.374  20.885  0.00  0.00    +0.030 A 
ENDROOT
BRANCH  18   6
ATOM      2  O   UNL     1      18.420   6.138  19.630  0.00  0.00    -0.270 OA
ATOM      6  N   UNL     1      17.516   7.008  21.589  0.00  0.00    -0.277 N 
ATOM     27  C   UNL     1      18.519   6.436  20.818  0.00  0.00    +0.248 C 
ATOM     35  H   UNL     1      17.617   7.089  22.595  0.00  0.00    +0.155 HD
BRANCH  27  29
ATOM     29  C   UNL     1      19.810   6.199  21.514  0.00  0.00    +0.037 A 
ATOM     30  C   UNL     1      20.754   5.394  20.910  0.00  0.00    +0.013 A 
ATOM     31  C   UNL     1      20.024   6.791  22.740  0.00  0.00    +0.013 A 
ATOM     32  C   UNL     1      21.966   5.171  21.562  0.00  0.00    +0.001 A 
ATOM     33  C   UNL     1      21.236   6.569  23.394  0.00  0.00    +0.001 A 
ATOM     34  C   UNL     1      22.208   5.759  22.805  0.00  0.00    +0.000 A 
ENDBRANCH  27  29
ENDBRANCH  18   6
BRANCH   3  14
ATOM     14  C   UNL     1      10.961  10.119  22.712  0.00  0.00    +0.121 C 
BRANCH  14  17
ATOM      5  N   UNL     1      11.310  13.316  24.443  0.00  0.00    -0.349 N 
ATOM     17  C   UNL     1      11.384  11.369  23.432  0.00  0.00    -0.008 A 
ATOM     20  C   UNL     1      12.704  11.698  23.797  0.00  0.00    +0.004 A 
ATOM     21  C   UNL     1      10.543  12.361  23.831  0.00  0.00    +0.091 A 
ATOM     22  C   UNL     1      12.634  12.937  24.437  0.00  0.00    +0.049 A 
ATOM     23  C   UNL     1      13.961  11.079  23.654  0.00  0.00    +0.010 A 
ATOM     24  C   UNL     1      13.763  13.590  24.945  0.00  0.00    +0.026 A 
ATOM     25  C   UNL     1      10.788  14.539  25.012  0.00  0.00    +0.149 C 
ATOM     26  C   UNL     1      15.100  11.720  24.157  0.00  0.00    +0.001 A 
ATOM     28  C   UNL     1      14.999  12.956  24.792  0.00  0.00    +0.002 A 
ENDBRANCH  14  17
ENDBRANCH   3  14
TORSDOF 4
ENDMDL
MODEL 9
REMARK VINA RESULT:      -7.1      4.932     11.250
REMARK  Name = 7051670
REMARK  5 active torsions:
REMARK  status: ('A' for Active; 'I' for Inactive)
REMARK    1  A    between atoms: N_3  and  C_14
REMARK    2  A    between atoms: N_5  and  C_25
REMARK    3  A    between atoms: N_6  and  C_18
REMARK    4  A    between atoms: C_14  and  C_17
REMARK    5  A    between atoms: C_27  and  C_29
REMARK                            x       y       z     vdW  Elec       q    Type
REMARK                         _______ _______ _______ _____ _____    ______ ____
ROOT
ATOM      1  O   UNL     1      -9.170  -9.405  13.863  0.00  0.00    -0.266 OA
ATOM      3  N   UNL     1     -12.607  -5.755  13.848  0.00  0.00    -0.297 NA
ATOM      4  N   UNL     1     -11.138  -8.458  14.696  0.00  0.00    -0.310 N 
ATOM      7  C   UNL     1     -13.231  -8.111  13.260  0.00  0.00    +0.024 C 
ATOM      8  C   UNL     1     -13.240  -7.414  15.606  0.00  0.00    +0.050 C 
ATOM      9  C   UNL     1     -13.980  -8.263  14.577  0.00  0.00    +0.017 C 
ATOM     10  C   UNL     1     -13.209  -6.628  12.832  0.00  0.00    +0.090 C 
ATOM     11  C   UNL     1     -13.249  -5.934  15.159  0.00  0.00    +0.094 C 
ATOM     12  C   UNL     1     -11.823  -8.700  13.419  0.00  0.00    +0.130 C 
ATOM     13  C   UNL     1     -11.815  -7.905  15.787  0.00  0.00    +0.026 A 
ATOM     15  C   UNL     1     -11.202  -7.793  16.977  0.00  0.00    +0.024 A 
ATOM     16  C   UNL     1      -9.802  -8.898  14.792  0.00  0.00    +0.273 A 
ATOM     18  C   UNL     1      -9.147  -8.735  16.128  0.00  0.00    +0.099 A 
ATOM     19  C   UNL     1      -9.841  -8.215  17.147  0.00  0.00    +0.030 A 
ENDROOT
BRANCH  18   6
ATOM      2  O   UNL     1      -8.229 -11.003  17.597  0.00  0.00    -0.270 OA
ATOM      6  N   UNL     1      -7.851  -9.137  16.260  0.00  0.00    -0.277 N 
ATOM     27  C   UNL     1      -7.467 -10.253  16.990  0.00  0.00    +0.248 C 
ATOM     35  H   UNL     1      -7.159  -8.482  15.911  0.00  0.00    +0.155 HD
BRANCH  27  29
ATOM     29  C   UNL     1      -6.010 -10.546  17.001  0.00  0.00    +0.037 A 
ATOM     30  C   UNL     1      -5.238 -10.117  15.942  0.00  0.00    +0.013 A 
ATOM     31  C   UNL     1      -5.478 -11.238  18.067  0.00  0.00    +0.013 A 
ATOM     32  C   UNL     1      -3.870 -10.392  15.950  0.00  0.00    +0.001 A 
ATOM     33  C   UNL     1      -4.110 -11.513  18.077  0.00  0.00    +0.001 A 
ATOM     34  C   UNL     1      -3.306 -11.090  17.019  0.00  0.00    +0.000 A 
ENDBRANCH  27  29
ENDBRANCH  18   6
BRANCH   3  14
ATOM     14  C   UNL     1     -12.651  -4.356  13.430  0.00  0.00    +0.121 C 
BRANCH  14  17
ATOM      5  N   UNL     1     -12.289  -4.471   9.798  0.00  0.00    -0.349 N 
ATOM     17  C   UNL     1     -12.748  -4.256  11.934  0.00  0.00    -0.008 A 
ATOM     20  C   UNL     1     -13.779  -3.614  11.220  0.00  0.00    +0.004 A 
ATOM     21  C   UNL     1     -11.846  -4.775  11.057  0.00  0.00    +0.091 A 
ATOM     22  C   UNL     1     -13.468  -3.763   9.867  0.00  0.00    +0.049 A 
ATOM     23  C   UNL     1     -14.951  -2.917  11.574  0.00  0.00    +0.010 A 
ATOM     24  C   UNL     1     -14.274  -3.247   8.846  0.00  0.00    +0.026 A 
ATOM     25  C   UNL     1     -11.606  -4.850   8.580  0.00  0.00    +0.149 C 
ATOM     26  C   UNL     1     -15.767  -2.395  10.563  0.00  0.00    +0.001 A 
ATOM     28  C   UNL     1     -15.431  -2.559   9.220  0.00  0.00    +0.002 A 
ENDBRANCH  14  17
ENDBRANCH   3  14
TORSDOF 4
ENDMDL
MODEL 10
REMARK VINA RESULT:      -7.1     21.243     24.962
REMARK  Name = 7051670
REMARK  5 active torsions:
REMARK  status: ('A' for Active; 'I' for Inactive)
REMARK    1  A    between atoms: N_3  and  C_14
REMARK    2  A    between atoms: N_5  and  C_25
REMARK    3  A    between atoms: N_6  and  C_18
REMARK    4  A    between atoms: C_14  and  C_17
REMARK    5  A    between atoms: C_27  and  C_29
REMARK                            x       y       z     vdW  Elec       q    Type
REMARK                         _______ _______ _______ _____ _____    ______ ____
ROOT
ATOM      1  O   UNL     1       9.515  -9.527  31.958  0.00  0.00    -0.266 OA
ATOM      3  N   UNL     1       8.196  -6.924  36.034  0.00  0.00    -0.297 NA
ATOM      4  N   UNL     1       8.658  -7.592  32.948  0.00  0.00    -0.310 N 
ATOM      7  C   UNL     1      10.029  -6.113  34.529  0.00  0.00    +0.024 C 
ATOM      8  C   UNL     1       7.707  -5.524  34.024  0.00  0.00    +0.050 C 
ATOM      9  C   UNL     1       9.136  -4.991  34.013  0.00  0.00    +0.017 C 
ATOM     10  C   UNL     1       9.604  -6.513  35.957  0.00  0.00    +0.090 C 
ATOM     11  C   UNL     1       7.305  -5.900  35.469  0.00  0.00    +0.094 C 
ATOM     12  C   UNL     1       9.967  -7.288  33.543  0.00  0.00    +0.130 C 
ATOM     13  C   UNL     1       7.572  -6.725  33.105  0.00  0.00    +0.026 A 
ATOM     15  C   UNL     1       6.417  -6.965  32.464  0.00  0.00    +0.024 A 
ATOM     16  C   UNL     1       8.582  -8.743  32.139  0.00  0.00    +0.273 A 
ATOM     18  C   UNL     1       7.270  -8.988  31.460  0.00  0.00    +0.099 A 
ATOM     19  C   UNL     1       6.265  -8.121  31.627  0.00  0.00    +0.030 A 
ENDROOT
BRANCH  18   6
ATOM      2  O   UNL     1       6.465 -11.585  32.328  0.00  0.00    -0.270 OA
ATOM      6  N   UNL     1       7.151 -10.098  30.676  0.00  0.00    -0.277 N 
ATOM     27  C   UNL     1       6.754 -11.337  31.159  0.00  0.00    +0.248 C 
ATOM     35  H   UNL     1       7.517 -10.001  29.735  0.00  0.00    +0.155 HD
BRANCH  27  29
ATOM     29  C   UNL     1       6.662 -12.423  30.150  0.00  0.00    +0.037 A 
ATOM     30  C   UNL     1       7.651 -12.528  29.193  0.00  0.00    +0.013 A 
ATOM     31  C   UNL     1       5.593 -13.292  30.202  0.00  0.00    +0.013 A 
ATOM     32  C   UNL     1       7.565 -13.547  28.245  0.00  0.00    +0.001 A 
ATOM     33  C   UNL     1       5.507 -14.312  29.254  0.00  0.00    +0.001 A 
ATOM     34  C   UNL     1       6.493 -14.440  28.276  0.00  0.00    +0.000 A 
ENDBRANCH  27  29
ENDBRANCH  18   6
BRANCH   3  14
ATOM     14  C   UNL     1       7.818  -7.245  37.409  0.00  0.00    +0.121 C 
BRANCH  14  17
ATOM      5  N   UNL     1       4.251  -7.555  38.125  0.00  0.00    -0.349 N 
ATOM     17  C   UNL     1       6.353  -7.566  37.491  0.00  0.00    -0.008 A 
ATOM     20  C   UNL     1       5.670  -8.497  36.685  0.00  0.00    +0.004 A 
ATOM     21  C   UNL     1       5.478  -6.998  38.365  0.00  0.00    +0.091 A 
ATOM     22  C   UNL     1       4.339  -8.473  37.103  0.00  0.00    +0.049 A 
ATOM     23  C   UNL     1       6.037  -9.364  35.636  0.00  0.00    +0.010 A 
ATOM     24  C   UNL     1       3.350  -9.278  36.523  0.00  0.00    +0.026 A 
ATOM     25  C   UNL     1       3.045  -7.214  38.848  0.00  0.00    +0.149 C 
ATOM     26  C   UNL     1       5.060 -10.175  35.047  0.00  0.00    +0.001 A 
ATOM     28  C   UNL     1       3.737 -10.130  35.485  0.00  0.00    +0.002 A 
ENDBRANCH  14  17
ENDBRANCH   3  14
TORSDOF 4
ENDMDL
