MODEL 1
REMARK VINA RESULT:      -6.7      0.000      0.000
REMARK  Name = 45784178
REMARK  3 active torsions:
REMARK  status: ('A' for Active; 'I' for Inactive)
REMARK    1  A    between atoms: N_3  and  C_11
REMARK    2  A    between atoms: C_6  and  C_10
REMARK    3  A    between atoms: C_11  and  C_12
REMARK                            x       y       z     vdW  Elec       q    Type
REMARK                         _______ _______ _______ _____ _____    ______ ____
ROOT
ATOM      3  N   UNL     1      11.445  10.195  22.054  0.00  0.00    -0.296 NA
ATOM      6  C   UNL     1      13.167   9.593  20.581  0.00  0.00    +0.090 C 
ATOM      7  C   UNL     1      11.879   8.844  20.200  0.00  0.00    +0.029 C 
ATOM      8  C   UNL     1      12.906  10.118  21.999  0.00  0.00    +0.097 C 
ATOM      9  C   UNL     1      10.979   8.961  21.423  0.00  0.00    +0.085 C 
ENDROOT
BRANCH   6  10
ATOM      1 CL   UNL     1      19.789   5.879  20.685  0.00  0.00    -0.083 Cl
ATOM      2  O   UNL     1      14.468   7.856  19.474  0.00  0.00    -0.439 OA
ATOM      4  N   UNL     1      15.506   8.831  21.236  0.00  0.00    -0.213 NA
ATOM     10  C   UNL     1      14.432   8.773  20.479  0.00  0.00    +0.201 A 
ATOM     13  C   UNL     1      16.327   7.873  20.692  0.00  0.00    +0.111 A 
ATOM     14  C   UNL     1      15.696   7.275  19.612  0.00  0.00    +0.155 A 
ATOM     16  C   UNL     1      17.617   7.447  21.045  0.00  0.00    +0.051 A 
ATOM     17  C   UNL     1      16.246   6.265  18.834  0.00  0.00    +0.050 A 
ATOM     18  C   UNL     1      18.206   6.428  20.282  0.00  0.00    +0.043 A 
ATOM     19  C   UNL     1      17.532   5.850  19.199  0.00  0.00    +0.024 A 
ENDBRANCH   6  10
BRANCH   3  11
ATOM     11  C   UNL     1      10.947  10.344  23.414  0.00  0.00    +0.139 C 
BRANCH  11  12
ATOM      5  N   UNL     1      10.620  12.056  25.111  0.00  0.00    -0.259 NA
ATOM     12  C   UNL     1      10.779  11.790  23.795  0.00  0.00    +0.055 A 
ATOM     15  C   UNL     1      10.798  12.760  22.804  0.00  0.00    +0.024 A 
ATOM     20  C   UNL     1      10.641  14.087  23.189  0.00  0.00    +0.003 A 
ATOM     21  C   UNL     1      10.471  13.357  25.446  0.00  0.00    +0.111 A 
ATOM     22  C   UNL     1      10.474  14.399  24.533  0.00  0.00    +0.020 A 
ENDBRANCH  11  12
ENDBRANCH   3  11
TORSDOF 3
ENDMDL
MODEL 2
REMARK VINA RESULT:      -6.6     27.134     29.076
REMARK  Name = 45784178
REMARK  3 active torsions:
REMARK  status: ('A' for Active; 'I' for Inactive)
REMARK    1  A    between atoms: N_3  and  C_11
REMARK    2  A    between atoms: C_6  and  C_10
REMARK    3  A    between atoms: C_11  and  C_12
REMARK                            x       y       z     vdW  Elec       q    Type
REMARK                         _______ _______ _______ _____ _____    ______ ____
ROOT
ATOM      3  N   UNL     1      -2.127 -11.032  13.665  0.00  0.00    -0.296 NA
ATOM      6  C   UNL     1      -3.212 -10.185  15.564  0.00  0.00    +0.090 C 
ATOM      7  C   UNL     1      -1.909 -10.886  15.985  0.00  0.00    +0.029 C 
ATOM      8  C   UNL     1      -3.468 -10.670  14.131  0.00  0.00    +0.097 C 
ATOM      9  C   UNL     1      -1.518 -11.744  14.789  0.00  0.00    +0.085 C 
ENDROOT
BRANCH   6  10
ATOM      1 CL   UNL     1      -9.500 -10.831  19.770  0.00  0.00    -0.083 Cl
ATOM      2  O   UNL     1      -4.193 -11.336  17.473  0.00  0.00    -0.439 OA
ATOM      4  N   UNL     1      -5.573  -9.854  16.456  0.00  0.00    -0.213 NA
ATOM     10  C   UNL     1      -4.386 -10.420  16.485  0.00  0.00    +0.201 A 
ATOM     13  C   UNL     1      -6.227 -10.440  17.513  0.00  0.00    +0.111 A 
ATOM     14  C   UNL     1      -5.386 -11.347  18.139  0.00  0.00    +0.155 A 
ATOM     16  C   UNL     1      -7.526 -10.263  18.013  0.00  0.00    +0.051 A 
ATOM     17  C   UNL     1      -5.730 -12.114  19.244  0.00  0.00    +0.050 A 
ATOM     18  C   UNL     1      -7.911 -11.021  19.128  0.00  0.00    +0.043 A 
ATOM     19  C   UNL     1      -7.030 -11.928  19.730  0.00  0.00    +0.024 A 
ENDBRANCH   6  10
BRANCH   3  11
ATOM     11  C   UNL     1      -2.158 -11.837  12.453  0.00  0.00    +0.139 C 
BRANCH  11  12
ATOM      5  N   UNL     1      -3.778 -11.828  10.639  0.00  0.00    -0.259 NA
ATOM     12  C   UNL     1      -2.851 -11.122  11.324  0.00  0.00    +0.055 A 
ATOM     15  C   UNL     1      -2.517  -9.806  11.046  0.00  0.00    +0.024 A 
ATOM     20  C   UNL     1      -3.176  -9.174   9.997  0.00  0.00    +0.003 A 
ATOM     21  C   UNL     1      -4.398 -11.180   9.626  0.00  0.00    +0.111 A 
ATOM     22  C   UNL     1      -4.135  -9.868   9.269  0.00  0.00    +0.020 A 
ENDBRANCH  11  12
ENDBRANCH   3  11
TORSDOF 3
ENDMDL
MODEL 3
REMARK VINA RESULT:      -6.3     27.914     29.895
REMARK  Name = 45784178
REMARK  3 active torsions:
REMARK  status: ('A' for Active; 'I' for Inactive)
REMARK    1  A    between atoms: N_3  and  C_11
REMARK    2  A    between atoms: C_6  and  C_10
REMARK    3  A    between atoms: C_11  and  C_12
REMARK                            x       y       z     vdW  Elec       q    Type
REMARK                         _______ _______ _______ _____ _____    ______ ____
ROOT
ATOM      3  N   UNL     1      -4.361 -10.532  14.643  0.00  0.00    -0.296 NA
ATOM      6  C   UNL     1      -5.693  -9.554  16.308  0.00  0.00    +0.090 C 
ATOM      7  C   UNL     1      -4.513 -10.295  16.961  0.00  0.00    +0.029 C 
ATOM      8  C   UNL     1      -5.739 -10.089  14.870  0.00  0.00    +0.097 C 
ATOM      9  C   UNL     1      -3.979 -11.221  15.876  0.00  0.00    +0.085 C 
ENDROOT
BRANCH   6  10
ATOM      1 CL   UNL     1     -12.585  -9.688  19.491  0.00  0.00    -0.083 Cl
ATOM      2  O   UNL     1      -7.054 -10.642  18.010  0.00  0.00    -0.439 OA
ATOM      4  N   UNL     1      -8.124  -9.022  16.841  0.00  0.00    -0.213 NA
ATOM     10  C   UNL     1      -7.011  -9.696  17.032  0.00  0.00    +0.201 A 
ATOM     13  C   UNL     1      -8.982  -9.562  17.769  0.00  0.00    +0.111 A 
ATOM     14  C   UNL     1      -8.331 -10.554  18.487  0.00  0.00    +0.155 A 
ATOM     16  C   UNL     1     -10.322  -9.275  18.071  0.00  0.00    +0.051 A 
ATOM     17  C   UNL     1      -8.908 -11.304  19.503  0.00  0.00    +0.050 A 
ATOM     18  C   UNL     1     -10.940 -10.013  19.092  0.00  0.00    +0.043 A 
ATOM     19  C   UNL     1     -10.245 -11.007  19.792  0.00  0.00    +0.024 A 
ENDBRANCH   6  10
BRANCH   3  11
ATOM     11  C   UNL     1      -4.239 -11.387  13.471  0.00  0.00    +0.139 C 
BRANCH  11  12
ATOM      5  N   UNL     1      -4.958 -10.245  11.447  0.00  0.00    -0.259 NA
ATOM     12  C   UNL     1      -3.914 -10.596  12.232  0.00  0.00    +0.055 A 
ATOM     15  C   UNL     1      -2.594 -10.270  11.961  0.00  0.00    +0.024 A 
ATOM     20  C   UNL     1      -2.329  -9.538  10.809  0.00  0.00    +0.003 A 
ATOM     21  C   UNL     1      -4.660  -9.534  10.337  0.00  0.00    +0.111 A 
ATOM     22  C   UNL     1      -3.376  -9.159   9.976  0.00  0.00    +0.020 A 
ENDBRANCH  11  12
ENDBRANCH   3  11
TORSDOF 3
ENDMDL
MODEL 4
REMARK VINA RESULT:      -6.3     18.012     21.084
REMARK  Name = 45784178
REMARK  3 active torsions:
REMARK  status: ('A' for Active; 'I' for Inactive)
REMARK    1  A    between atoms: N_3  and  C_11
REMARK    2  A    between atoms: C_6  and  C_10
REMARK    3  A    between atoms: C_11  and  C_12
REMARK                            x       y       z     vdW  Elec       q    Type
REMARK                         _______ _______ _______ _____ _____    ______ ____
ROOT
ATOM      3  N   UNL     1      11.508   4.857   0.930  0.00  0.00    -0.296 NA
ATOM      6  C   UNL     1      10.370   5.897   2.697  0.00  0.00    +0.090 C 
ATOM      7  C   UNL     1      11.598   6.739   2.308  0.00  0.00    +0.029 C 
ATOM      8  C   UNL     1      10.614   4.531   2.043  0.00  0.00    +0.097 C 
ATOM      9  C   UNL     1      12.475   5.803   1.488  0.00  0.00    +0.085 C 
ENDROOT
BRANCH   6  10
ATOM      1 CL   UNL     1       9.312   4.679  10.116  0.00  0.00    -0.083 Cl
ATOM      2  O   UNL     1       9.609   6.923   4.771  0.00  0.00    -0.439 OA
ATOM      4  N   UNL     1      10.301   4.775   4.981  0.00  0.00    -0.213 NA
ATOM     10  C   UNL     1      10.109   5.802   4.182  0.00  0.00    +0.201 A 
ATOM     13  C   UNL     1       9.896   5.249   6.206  0.00  0.00    +0.111 A 
ATOM     14  C   UNL     1       9.471   6.563   6.081  0.00  0.00    +0.155 A 
ATOM     16  C   UNL     1       9.853   4.638   7.468  0.00  0.00    +0.051 A 
ATOM     17  C   UNL     1       8.996   7.343   7.127  0.00  0.00    +0.050 A 
ATOM     18  C   UNL     1       9.379   5.395   8.550  0.00  0.00    +0.043 A 
ATOM     19  C   UNL     1       8.960   6.721   8.380  0.00  0.00    +0.024 A 
ENDBRANCH   6  10
BRANCH   3  11
ATOM     11  C   UNL     1      12.149   3.678   0.368  0.00  0.00    +0.139 C 
BRANCH  11  12
ATOM      5  N   UNL     1      10.612   3.906  -1.503  0.00  0.00    -0.259 NA
ATOM     12  C   UNL     1      11.840   3.515  -1.097  0.00  0.00    +0.055 A 
ATOM     15  C   UNL     1      12.806   2.989  -1.940  0.00  0.00    +0.024 A 
ATOM     20  C   UNL     1      12.490   2.853  -3.287  0.00  0.00    +0.003 A 
ATOM     21  C   UNL     1      10.341   3.759  -2.820  0.00  0.00    +0.111 A 
ATOM     22  C   UNL     1      11.236   3.243  -3.743  0.00  0.00    +0.020 A 
ENDBRANCH  11  12
ENDBRANCH   3  11
TORSDOF 3
ENDMDL
MODEL 5
REMARK VINA RESULT:      -6.2     27.756     30.199
REMARK  Name = 45784178
REMARK  3 active torsions:
REMARK  status: ('A' for Active; 'I' for Inactive)
REMARK    1  A    between atoms: N_3  and  C_11
REMARK    2  A    between atoms: C_6  and  C_10
REMARK    3  A    between atoms: C_11  and  C_12
REMARK                            x       y       z     vdW  Elec       q    Type
REMARK                         _______ _______ _______ _____ _____    ______ ____
ROOT
ATOM      3  N   UNL     1      -4.670 -11.620  17.509  0.00  0.00    -0.296 NA
ATOM      6  C   UNL     1      -6.363 -10.615  18.784  0.00  0.00    +0.090 C 
ATOM      7  C   UNL     1      -5.740 -11.777  19.578  0.00  0.00    +0.029 C 
ATOM      8  C   UNL     1      -5.899 -10.841  17.339  0.00  0.00    +0.097 C 
ATOM      9  C   UNL     1      -4.989 -12.604  18.544  0.00  0.00    +0.085 C 
ENDROOT
BRANCH   6  10
ATOM      1 CL   UNL     1     -13.849 -10.456  20.045  0.00  0.00    -0.083 Cl
ATOM      2  O   UNL     1      -8.481  -9.741  17.956  0.00  0.00    -0.439 OA
ATOM      4  N   UNL     1      -8.653 -11.019  19.820  0.00  0.00    -0.213 NA
ATOM     10  C   UNL     1      -7.864 -10.493  18.909  0.00  0.00    +0.201 A 
ATOM     13  C   UNL     1      -9.901 -10.583  19.445  0.00  0.00    +0.111 A 
ATOM     14  C   UNL     1      -9.800  -9.802  18.303  0.00  0.00    +0.155 A 
ATOM     16  C   UNL     1     -11.168 -10.801  20.007  0.00  0.00    +0.051 A 
ATOM     17  C   UNL     1     -10.873  -9.202  17.657  0.00  0.00    +0.050 A 
ATOM     18  C   UNL     1     -12.276 -10.211  19.382  0.00  0.00    +0.043 A 
ATOM     19  C   UNL     1     -12.129  -9.427  18.231  0.00  0.00    +0.024 A 
ENDBRANCH   6  10
BRANCH   3  11
ATOM     11  C   UNL     1      -4.232 -12.243  16.269  0.00  0.00    +0.139 C 
BRANCH  11  12
ATOM      5  N   UNL     1      -3.371 -11.240  14.227  0.00  0.00    -0.259 NA
ATOM     12  C   UNL     1      -3.200 -11.411  15.557  0.00  0.00    +0.055 A 
ATOM     15  C   UNL     1      -2.148 -10.869  16.280  0.00  0.00    +0.024 A 
ATOM     20  C   UNL     1      -1.212 -10.104  15.593  0.00  0.00    +0.003 A 
ATOM     21  C   UNL     1      -2.441 -10.489  13.594  0.00  0.00    +0.111 A 
ATOM     22  C   UNL     1      -1.355  -9.906  14.225  0.00  0.00    +0.020 A 
ENDBRANCH  11  12
ENDBRANCH   3  11
TORSDOF 3
ENDMDL
MODEL 6
REMARK VINA RESULT:      -6.2      4.328      5.675
REMARK  Name = 45784178
REMARK  3 active torsions:
REMARK  status: ('A' for Active; 'I' for Inactive)
REMARK    1  A    between atoms: N_3  and  C_11
REMARK    2  A    between atoms: C_6  and  C_10
REMARK    3  A    between atoms: C_11  and  C_12
REMARK                            x       y       z     vdW  Elec       q    Type
REMARK                         _______ _______ _______ _____ _____    ______ ____
ROOT
ATOM      3  N   UNL     1      13.915   7.899  19.466  0.00  0.00    -0.296 NA
ATOM      6  C   UNL     1      15.801   6.576  19.904  0.00  0.00    +0.090 C 
ATOM      7  C   UNL     1      14.788   6.426  21.053  0.00  0.00    +0.029 C 
ATOM      8  C   UNL     1      15.341   7.827  19.142  0.00  0.00    +0.097 C 
ATOM      9  C   UNL     1      13.837   7.605  20.897  0.00  0.00    +0.085 C 
ENDROOT
BRANCH   6  10
ATOM      1 CL   UNL     1      23.205   6.351  21.573  0.00  0.00    -0.083 Cl
ATOM      2  O   UNL     1      17.539   7.578  21.286  0.00  0.00    -0.439 OA
ATOM      4  N   UNL     1      18.262   5.925  19.915  0.00  0.00    -0.213 NA
ATOM     10  C   UNL     1      17.247   6.647  20.336  0.00  0.00    +0.201 A 
ATOM     13  C   UNL     1      19.320   6.413  20.643  0.00  0.00    +0.111 A 
ATOM     14  C   UNL     1      18.881   7.425  21.484  0.00  0.00    +0.155 A 
ATOM     16  C   UNL     1      20.678   6.061  20.657  0.00  0.00    +0.051 A 
ATOM     17  C   UNL     1      19.693   8.135  22.359  0.00  0.00    +0.050 A 
ATOM     18  C   UNL     1      21.530   6.756  21.528  0.00  0.00    +0.043 A 
ATOM     19  C   UNL     1      21.045   7.772  22.361  0.00  0.00    +0.024 A 
ENDBRANCH   6  10
BRANCH   3  11
ATOM     11  C   UNL     1      13.335   9.192  19.135  0.00  0.00    +0.139 C 
BRANCH  11  12
ATOM      5  N   UNL     1      11.294   8.510  18.001  0.00  0.00    -0.259 NA
ATOM     12  C   UNL     1      12.491   9.126  17.890  0.00  0.00    +0.055 A 
ATOM     15  C   UNL     1      12.969   9.689  16.716  0.00  0.00    +0.024 A 
ATOM     20  C   UNL     1      12.165   9.612  15.584  0.00  0.00    +0.003 A 
ATOM     21  C   UNL     1      10.540   8.456  16.879  0.00  0.00    +0.111 A 
ATOM     22  C   UNL     1      10.927   8.985  15.659  0.00  0.00    +0.020 A 
ENDBRANCH  11  12
ENDBRANCH   3  11
TORSDOF 3
ENDMDL
MODEL 7
REMARK VINA RESULT:      -6.1      3.935      5.924
REMARK  Name = 45784178
REMARK  3 active torsions:
REMARK  status: ('A' for Active; 'I' for Inactive)
REMARK    1  A    between atoms: N_3  and  C_11
REMARK    2  A    between atoms: C_6  and  C_10
REMARK    3  A    between atoms: C_11  and  C_12
REMARK                            x       y       z     vdW  Elec       q    Type
REMARK                         _______ _______ _______ _____ _____    ______ ____
ROOT
ATOM      3  N   UNL     1      15.649   7.462  20.808  0.00  0.00    -0.296 NA
ATOM      6  C   UNL     1      17.753   7.228  21.818  0.00  0.00    +0.090 C 
ATOM      7  C   UNL     1      17.601   8.658  21.270  0.00  0.00    +0.029 C 
ATOM      8  C   UNL     1      16.635   6.429  21.134  0.00  0.00    +0.097 C 
ATOM      9  C   UNL     1      16.435   8.583  20.293  0.00  0.00    +0.085 C 
ENDROOT
BRANCH   6  10
ATOM      1 CL   UNL     1      24.495   4.204  20.071  0.00  0.00    -0.083 Cl
ATOM      2  O   UNL     1      19.798   6.300  22.762  0.00  0.00    -0.439 OA
ATOM      4  N   UNL     1      19.741   6.344  20.497  0.00  0.00    -0.213 NA
ATOM     10  C   UNL     1      19.120   6.615  21.624  0.00  0.00    +0.201 A 
ATOM     13  C   UNL     1      20.933   5.804  20.915  0.00  0.00    +0.111 A 
ATOM     14  C   UNL     1      20.971   5.775  22.302  0.00  0.00    +0.155 A 
ATOM     16  C   UNL     1      22.033   5.313  20.196  0.00  0.00    +0.051 A 
ATOM     17  C   UNL     1      22.033   5.290  23.054  0.00  0.00    +0.050 A 
ATOM     18  C   UNL     1      23.125   4.815  20.921  0.00  0.00    +0.043 A 
ATOM     19  C   UNL     1      23.123   4.805  22.321  0.00  0.00    +0.024 A 
ENDBRANCH   6  10
BRANCH   3  11
ATOM     11  C   UNL     1      14.655   6.998  19.851  0.00  0.00    +0.139 C 
BRANCH  11  12
ATOM      5  N   UNL     1      12.867   7.269  21.478  0.00  0.00    -0.259 NA
ATOM     12  C   UNL     1      13.272   7.475  20.205  0.00  0.00    +0.055 A 
ATOM     15  C   UNL     1      12.497   8.091  19.234  0.00  0.00    +0.024 A 
ATOM     20  C   UNL     1      11.224   8.521  19.593  0.00  0.00    +0.003 A 
ATOM     21  C   UNL     1      11.624   7.701  21.789  0.00  0.00    +0.111 A 
ATOM     22  C   UNL     1      10.773   8.326  20.893  0.00  0.00    +0.020 A 
ENDBRANCH  11  12
ENDBRANCH   3  11
TORSDOF 3
ENDMDL
MODEL 8
REMARK VINA RESULT:      -6.0     26.369     28.849
REMARK  Name = 45784178
REMARK  3 active torsions:
REMARK  status: ('A' for Active; 'I' for Inactive)
REMARK    1  A    between atoms: N_3  and  C_11
REMARK    2  A    between atoms: C_6  and  C_10
REMARK    3  A    between atoms: C_11  and  C_12
REMARK                            x       y       z     vdW  Elec       q    Type
REMARK                         _______ _______ _______ _____ _____    ______ ____
ROOT
ATOM      3  N   UNL     1     -13.079   7.154  20.817  0.00  0.00    -0.296 NA
ATOM      6  C   UNL     1     -14.884   5.805  21.467  0.00  0.00    +0.090 C 
ATOM      7  C   UNL     1     -15.259   7.287  21.642  0.00  0.00    +0.029 C 
ATOM      8  C   UNL     1     -13.357   5.806  21.319  0.00  0.00    +0.097 C 
ATOM      9  C   UNL     1     -13.934   8.036  21.612  0.00  0.00    +0.085 C 
ENDROOT
BRANCH   6  10
ATOM      1 CL   UNL     1     -16.821   1.594  27.482  0.00  0.00    -0.083 Cl
ATOM      2  O   UNL     1     -16.311   3.977  22.213  0.00  0.00    -0.439 OA
ATOM      4  N   UNL     1     -14.997   4.867  23.831  0.00  0.00    -0.213 NA
ATOM     10  C   UNL     1     -15.369   4.893  22.570  0.00  0.00    +0.201 A 
ATOM     13  C   UNL     1     -15.754   3.850  24.362  0.00  0.00    +0.111 A 
ATOM     14  C   UNL     1     -16.559   3.302  23.374  0.00  0.00    +0.155 A 
ATOM     16  C   UNL     1     -15.822   3.325  25.661  0.00  0.00    +0.051 A 
ATOM     17  C   UNL     1     -17.449   2.254  23.570  0.00  0.00    +0.050 A 
ATOM     18  C   UNL     1     -16.710   2.265  25.897  0.00  0.00    +0.043 A 
ATOM     19  C   UNL     1     -17.506   1.742  24.871  0.00  0.00    +0.024 A 
ENDBRANCH   6  10
BRANCH   3  11
ATOM     11  C   UNL     1     -11.671   7.507  20.921  0.00  0.00    +0.139 C 
BRANCH  11  12
ATOM      5  N   UNL     1     -11.269   7.374  18.526  0.00  0.00    -0.259 NA
ATOM     12  C   UNL     1     -11.151   8.118  19.648  0.00  0.00    +0.055 A 
ATOM     15  C   UNL     1     -10.591   9.386  19.682  0.00  0.00    +0.024 A 
ATOM     20  C   UNL     1     -10.121   9.923  18.489  0.00  0.00    +0.003 A 
ATOM     21  C   UNL     1     -10.801   7.929  17.385  0.00  0.00    +0.111 A 
ATOM     22  C   UNL     1     -10.224   9.187  17.314  0.00  0.00    +0.020 A 
ENDBRANCH  11  12
ENDBRANCH   3  11
TORSDOF 3
ENDMDL
MODEL 9
REMARK VINA RESULT:      -6.0     26.740     29.011
REMARK  Name = 45784178
REMARK  3 active torsions:
REMARK  status: ('A' for Active; 'I' for Inactive)
REMARK    1  A    between atoms: N_3  and  C_11
REMARK    2  A    between atoms: C_6  and  C_10
REMARK    3  A    between atoms: C_11  and  C_12
REMARK                            x       y       z     vdW  Elec       q    Type
REMARK                         _______ _______ _______ _____ _____    ______ ____
ROOT
ATOM      3  N   UNL     1     -15.791   4.696  23.526  0.00  0.00    -0.296 NA
ATOM      6  C   UNL     1     -14.566   6.468  22.599  0.00  0.00    +0.090 C 
ATOM      7  C   UNL     1     -16.055   6.850  22.663  0.00  0.00    +0.029 C 
ATOM      8  C   UNL     1     -14.546   4.947  22.795  0.00  0.00    +0.097 C 
ATOM      9  C   UNL     1     -16.792   5.532  22.862  0.00  0.00    +0.085 C 
ENDROOT
BRANCH   6  10
ATOM      1 CL   UNL     1     -10.302   8.514  16.658  0.00  0.00    -0.083 Cl
ATOM      2  O   UNL     1     -14.645   7.348  20.328  0.00  0.00    -0.439 OA
ATOM      4  N   UNL     1     -12.558   6.928  21.103  0.00  0.00    -0.213 NA
ATOM     10  C   UNL     1     -13.851   6.910  21.343  0.00  0.00    +0.201 A 
ATOM     13  C   UNL     1     -12.482   7.418  19.822  0.00  0.00    +0.111 A 
ATOM     14  C   UNL     1     -13.758   7.677  19.344  0.00  0.00    +0.155 A 
ATOM     16  C   UNL     1     -11.381   7.675  18.991  0.00  0.00    +0.051 A 
ATOM     17  C   UNL     1     -14.043   8.181  18.082  0.00  0.00    +0.050 A 
ATOM     18  C   UNL     1     -11.629   8.185  17.708  0.00  0.00    +0.043 A 
ATOM     19  C   UNL     1     -12.935   8.432  17.265  0.00  0.00    +0.024 A 
ENDBRANCH   6  10
BRANCH   3  11
ATOM     11  C   UNL     1     -16.160   3.288  23.529  0.00  0.00    +0.139 C 
BRANCH  11  12
ATOM      5  N   UNL     1     -16.644   1.447  25.042  0.00  0.00    -0.259 NA
ATOM     12  C   UNL     1     -16.296   2.748  24.927  0.00  0.00    +0.055 A 
ATOM     15  C   UNL     1     -16.063   3.587  26.006  0.00  0.00    +0.024 A 
ATOM     20  C   UNL     1     -16.196   3.057  27.284  0.00  0.00    +0.003 A 
ATOM     21  C   UNL     1     -16.763   0.967  26.301  0.00  0.00    +0.111 A 
ATOM     22  C   UNL     1     -16.553   1.723  27.442  0.00  0.00    +0.020 A 
ENDBRANCH  11  12
ENDBRANCH   3  11
TORSDOF 3
ENDMDL
MODEL 10
REMARK VINA RESULT:      -6.0     23.051     25.504
REMARK  Name = 45784178
REMARK  3 active torsions:
REMARK  status: ('A' for Active; 'I' for Inactive)
REMARK    1  A    between atoms: N_3  and  C_11
REMARK    2  A    between atoms: C_6  and  C_10
REMARK    3  A    between atoms: C_11  and  C_12
REMARK                            x       y       z     vdW  Elec       q    Type
REMARK                         _______ _______ _______ _____ _____    ______ ____
ROOT
ATOM      3  N   UNL     1      -9.828  11.200  17.179  0.00  0.00    -0.296 NA
ATOM      6  C   UNL     1     -10.135   9.332  18.564  0.00  0.00    +0.090 C 
ATOM      7  C   UNL     1     -10.239   8.903  17.090  0.00  0.00    +0.029 C 
ATOM      8  C   UNL     1     -10.270  10.861  18.533  0.00  0.00    +0.097 C 
ATOM      9  C   UNL     1     -10.454  10.197  16.316  0.00  0.00    +0.085 C 
ENDROOT
BRANCH   6  10
ATOM      1 CL   UNL     1     -14.800   5.327  23.019  0.00  0.00    -0.083 Cl
ATOM      2  O   UNL     1     -12.003   9.505  20.119  0.00  0.00    -0.439 OA
ATOM      4  N   UNL     1     -11.262   7.392  19.767  0.00  0.00    -0.213 NA
ATOM     10  C   UNL     1     -11.129   8.671  19.490  0.00  0.00    +0.201 A 
ATOM     13  C   UNL     1     -12.310   7.369  20.655  0.00  0.00    +0.111 A 
ATOM     14  C   UNL     1     -12.767   8.661  20.872  0.00  0.00    +0.155 A 
ATOM     16  C   UNL     1     -12.938   6.306  21.322  0.00  0.00    +0.051 A 
ATOM     17  C   UNL     1     -13.818   8.997  21.715  0.00  0.00    +0.050 A 
ATOM     18  C   UNL     1     -14.004   6.607  22.182  0.00  0.00    +0.043 A 
ATOM     19  C   UNL     1     -14.433   7.926  22.374  0.00  0.00    +0.024 A 
ENDBRANCH   6  10
BRANCH   3  11
ATOM     11  C   UNL     1     -10.190  12.558  16.800  0.00  0.00    +0.139 C 
BRANCH  11  12
ATOM      5  N   UNL     1      -9.280  14.690  17.535  0.00  0.00    -0.259 NA
ATOM     12  C   UNL     1      -9.028  13.505  16.935  0.00  0.00    +0.055 A 
ATOM     15  C   UNL     1      -7.784  13.128  16.453  0.00  0.00    +0.024 A 
ATOM     20  C   UNL     1      -6.732  14.026  16.595  0.00  0.00    +0.003 A 
ATOM     21  C   UNL     1      -8.232  15.537  17.655  0.00  0.00    +0.111 A 
ATOM     22  C   UNL     1      -6.953  15.255  17.206  0.00  0.00    +0.020 A 
ENDBRANCH  11  12
ENDBRANCH   3  11
TORSDOF 3
ENDMDL
