MODEL 1
REMARK VINA RESULT:      -7.0      0.000      0.000
REMARK  Name = 45361613
REMARK  12 active torsions:
REMARK  status: ('A' for Active; 'I' for Inactive)
REMARK    1  A    between atoms: O_1  and  C_11
REMARK    2  A    between atoms: N_4  and  C_15
REMARK    3  A    between atoms: N_5  and  C_25
REMARK    4  A    between atoms: N_5  and  C_26
REMARK    5  A    between atoms: C_8  and  C_18
REMARK    6  A    between atoms: C_10  and  C_20
REMARK    7  A    between atoms: C_13  and  C_19
REMARK    8  A    between atoms: C_19  and  C_21
REMARK    9  A    between atoms: C_19  and  C_22
REMARK   10  A    between atoms: C_23  and  C_24
REMARK   11  A    between atoms: C_25  and  C_27
REMARK   12  A    between atoms: C_27  and  C_31
REMARK                            x       y       z     vdW  Elec       q    Type
REMARK                         _______ _______ _______ _____ _____    ______ ____
ROOT
ATOM      8  C   UNL     1      -4.747 -11.548  17.680  0.00  0.00    -0.027 C 
ATOM      9  C   UNL     1      -5.569 -10.483  16.880  0.00  0.00    +0.028 C 
ATOM     10  C   UNL     1      -7.063 -10.450  17.365  0.00  0.00    +0.012 C 
ATOM     11  C   UNL     1      -5.368 -10.652  15.346  0.00  0.00    +0.122 C 
ATOM     12  C   UNL     1      -3.260 -11.475  17.257  0.00  0.00    +0.007 C 
ATOM     13  C   UNL     1      -3.876 -10.683  14.942  0.00  0.00    +0.029 C 
ATOM     14  C   UNL     1      -4.824 -11.216  19.188  0.00  0.00    +0.009 C 
ATOM     15  C   UNL     1      -7.125 -10.190  18.897  0.00  0.00    +0.076 C 
ATOM     16  C   UNL     1      -3.057 -11.680  15.763  0.00  0.00    +0.007 C 
ATOM     17  C   UNL     1      -6.252 -11.143  19.712  0.00  0.00    +0.023 C 
ATOM     18  C   UNL     1      -5.260 -12.991  17.448  0.00  0.00    +0.011 C 
ATOM     20  C   UNL     1      -7.924  -9.403  16.639  0.00  0.00    +0.010 C 
ENDROOT
BRANCH  15   4
ATOM      3  O   UNL     1      -8.694 -12.571  19.231  0.00  0.00    -0.269 OA
ATOM      4  N   UNL     1      -8.481 -10.268  19.399  0.00  0.00    -0.307 N 
ATOM     23  C   UNL     1      -9.155 -11.471  19.523  0.00  0.00    +0.263 C 
ATOM     33  H   UNL     1      -8.968  -9.402  19.613  0.00  0.00    +0.149 HD
BRANCH  23  24
ATOM      6  N   UNL     1     -11.091 -12.539  20.467  0.00  0.00    -0.250 NA
ATOM     24  C   UNL     1     -10.549 -11.380  20.030  0.00  0.00    +0.125 A 
ATOM     28  C   UNL     1     -11.212 -10.163  20.034  0.00  0.00    +0.033 A 
ATOM     29  C   UNL     1     -12.514 -10.134  20.521  0.00  0.00    +0.004 A 
ATOM     30  C   UNL     1     -12.359 -12.471  20.931  0.00  0.00    +0.111 A 
ATOM     32  C   UNL     1     -13.106 -11.305  20.980  0.00  0.00    +0.020 A 
ENDBRANCH  23  24
ENDBRANCH  15   4
BRANCH  11   1
ATOM      1  O   UNL     1      -5.953  -9.542  14.664  0.00  0.00    -0.391 OA
ATOM     34  H   UNL     1      -6.205  -8.878  15.328  0.00  0.00    +0.210 HD
ENDBRANCH  11   1
BRANCH  13  19
ATOM     19  C   UNL     1      -3.698 -10.980  13.448  0.00  0.00    +0.078 C 
ATOM     21  C   UNL     1      -3.619 -12.493  13.235  0.00  0.00    +0.017 C 
BRANCH  19  22
ATOM      2  O   UNL     1      -1.502 -10.059  13.706  0.00  0.00    -0.275 OA
ATOM      5  N   UNL     1      -2.404  -9.915  11.580  0.00  0.00    -0.303 N 
ATOM     22  C   UNL     1      -2.436 -10.286  12.929  0.00  0.00    +0.219 C 
ATOM     26  C   UNL     1      -1.226  -9.232  11.058  0.00  0.00    +0.132 C 
BRANCH   5  25
ATOM     25  C   UNL     1      -3.447 -10.176  10.590  0.00  0.00    +0.122 C 
BRANCH  25  27
ATOM     27  C   UNL     1      -4.277  -8.936  10.279  0.00  0.00    +0.137 C 
BRANCH  27  31
ATOM      7  N   UNL     1      -6.355  -8.725  11.878  0.00  0.00    -0.197 NA
ATOM     31  C   UNL     1      -5.439  -8.817  11.172  0.00  0.00    +0.064 C 
ENDBRANCH  27  31
ENDBRANCH  25  27
ENDBRANCH   5  25
ENDBRANCH  19  22
ENDBRANCH  13  19
TORSDOF 8
ENDMDL
MODEL 2
REMARK VINA RESULT:      -6.8      1.952      2.231
REMARK  Name = 45361613
REMARK  12 active torsions:
REMARK  status: ('A' for Active; 'I' for Inactive)
REMARK    1  A    between atoms: O_1  and  C_11
REMARK    2  A    between atoms: N_4  and  C_15
REMARK    3  A    between atoms: N_5  and  C_25
REMARK    4  A    between atoms: N_5  and  C_26
REMARK    5  A    between atoms: C_8  and  C_18
REMARK    6  A    between atoms: C_10  and  C_20
REMARK    7  A    between atoms: C_13  and  C_19
REMARK    8  A    between atoms: C_19  and  C_21
REMARK    9  A    between atoms: C_19  and  C_22
REMARK   10  A    between atoms: C_23  and  C_24
REMARK   11  A    between atoms: C_25  and  C_27
REMARK   12  A    between atoms: C_27  and  C_31
REMARK                            x       y       z     vdW  Elec       q    Type
REMARK                         _______ _______ _______ _____ _____    ______ ____
ROOT
ATOM      8  C   UNL     1      -5.501 -11.176  17.653  0.00  0.00    -0.027 C 
ATOM      9  C   UNL     1      -6.067 -10.381  16.430  0.00  0.00    +0.028 C 
ATOM     10  C   UNL     1      -7.639 -10.396  16.434  0.00  0.00    +0.012 C 
ATOM     11  C   UNL     1      -5.399 -10.839  15.101  0.00  0.00    +0.122 C 
ATOM     12  C   UNL     1      -3.959 -11.048  17.681  0.00  0.00    +0.007 C 
ATOM     13  C   UNL     1      -3.854 -10.807  15.172  0.00  0.00    +0.029 C 
ATOM     14  C   UNL     1      -6.049 -10.553  18.957  0.00  0.00    +0.009 C 
ATOM     15  C   UNL     1      -8.178  -9.835  17.781  0.00  0.00    +0.076 C 
ATOM     16  C   UNL     1      -3.299 -11.532  16.398  0.00  0.00    +0.007 C 
ATOM     17  C   UNL     1      -7.570 -10.514  19.008  0.00  0.00    +0.023 C 
ATOM     18  C   UNL     1      -5.874 -12.680  17.609  0.00  0.00    +0.011 C 
ATOM     20  C   UNL     1      -8.265  -9.606  15.272  0.00  0.00    +0.010 C 
ENDROOT
BRANCH  15   4
ATOM      3  O   UNL     1     -10.070  -7.687  17.563  0.00  0.00    -0.269 OA
ATOM      4  N   UNL     1      -9.620  -9.941  17.866  0.00  0.00    -0.307 N 
ATOM     23  C   UNL     1     -10.450  -8.840  17.748  0.00  0.00    +0.263 C 
ATOM     33  H   UNL     1     -10.026 -10.849  18.076  0.00  0.00    +0.149 HD
BRANCH  23  24
ATOM      6  N   UNL     1     -12.688  -8.626  16.896  0.00  0.00    -0.250 NA
ATOM     24  C   UNL     1     -11.905  -9.112  17.885  0.00  0.00    +0.125 A 
ATOM     28  C   UNL     1     -12.383  -9.823  18.975  0.00  0.00    +0.033 A 
ATOM     29  C   UNL     1     -13.752 -10.051  19.052  0.00  0.00    +0.004 A 
ATOM     30  C   UNL     1     -14.014  -8.866  17.007  0.00  0.00    +0.111 A 
ATOM     32  C   UNL     1     -14.590  -9.567  18.054  0.00  0.00    +0.020 A 
ENDBRANCH  23  24
ENDBRANCH  15   4
BRANCH  11   1
ATOM      1  O   UNL     1      -5.778  -9.953  14.047  0.00  0.00    -0.391 OA
ATOM     34  H   UNL     1      -6.426 -10.411  13.485  0.00  0.00    +0.210 HD
ENDBRANCH  11   1
BRANCH  13  19
ATOM     19  C   UNL     1      -3.216 -11.384  13.902  0.00  0.00    +0.078 C 
ATOM     21  C   UNL     1      -2.618 -12.758  14.211  0.00  0.00    +0.017 C 
BRANCH  19  22
ATOM      2  O   UNL     1      -1.386  -9.864  14.179  0.00  0.00    -0.275 OA
ATOM      5  N   UNL     1      -2.084 -10.203  11.999  0.00  0.00    -0.303 N 
ATOM     22  C   UNL     1      -2.145 -10.424  13.379  0.00  0.00    +0.219 C 
ATOM     26  C   UNL     1      -1.090  -9.277  11.470  0.00  0.00    +0.132 C 
BRANCH   5  25
ATOM     25  C   UNL     1      -2.917 -10.848  10.986  0.00  0.00    +0.122 C 
BRANCH  25  27
ATOM     27  C   UNL     1      -3.605  -9.842  10.071  0.00  0.00    +0.137 C 
BRANCH  27  31
ATOM      7  N   UNL     1      -5.602  -8.626  11.276  0.00  0.00    -0.197 NA
ATOM     31  C   UNL     1      -4.720  -9.162  10.745  0.00  0.00    +0.064 C 
ENDBRANCH  27  31
ENDBRANCH  25  27
ENDBRANCH   5  25
ENDBRANCH  19  22
ENDBRANCH  13  19
TORSDOF 8
ENDMDL
MODEL 3
REMARK VINA RESULT:      -6.6     28.204     31.555
REMARK  Name = 45361613
REMARK  12 active torsions:
REMARK  status: ('A' for Active; 'I' for Inactive)
REMARK    1  A    between atoms: O_1  and  C_11
REMARK    2  A    between atoms: N_4  and  C_15
REMARK    3  A    between atoms: N_5  and  C_25
REMARK    4  A    between atoms: N_5  and  C_26
REMARK    5  A    between atoms: C_8  and  C_18
REMARK    6  A    between atoms: C_10  and  C_20
REMARK    7  A    between atoms: C_13  and  C_19
REMARK    8  A    between atoms: C_19  and  C_21
REMARK    9  A    between atoms: C_19  and  C_22
REMARK   10  A    between atoms: C_23  and  C_24
REMARK   11  A    between atoms: C_25  and  C_27
REMARK   12  A    between atoms: C_27  and  C_31
REMARK                            x       y       z     vdW  Elec       q    Type
REMARK                         _______ _______ _______ _____ _____    ______ ____
ROOT
ATOM      8  C   UNL     1      20.063   8.251  21.755  0.00  0.00    -0.027 C 
ATOM      9  C   UNL     1      19.580   7.080  20.835  0.00  0.00    +0.028 C 
ATOM     10  C   UNL     1      18.028   6.870  20.969  0.00  0.00    +0.012 C 
ATOM     11  C   UNL     1      20.447   5.805  21.043  0.00  0.00    +0.122 C 
ATOM     12  C   UNL     1      21.571   8.504  21.516  0.00  0.00    +0.007 C 
ATOM     13  C   UNL     1      21.961   6.087  20.906  0.00  0.00    +0.029 C 
ATOM     14  C   UNL     1      19.303   9.541  21.371  0.00  0.00    +0.009 C 
ATOM     15  C   UNL     1      17.277   8.195  20.652  0.00  0.00    +0.076 C 
ATOM     16  C   UNL     1      22.427   7.269  21.757  0.00  0.00    +0.007 C 
ATOM     17  C   UNL     1      17.790   9.390  21.454  0.00  0.00    +0.023 C 
ATOM     18  C   UNL     1      19.841   7.956  23.260  0.00  0.00    +0.011 C 
ATOM     20  C   UNL     1      17.479   5.751  20.068  0.00  0.00    +0.010 C 
ENDROOT
BRANCH  15   4
ATOM      3  O   UNL     1      15.196   8.550  18.707  0.00  0.00    -0.269 OA
ATOM      4  N   UNL     1      15.852   8.070  20.878  0.00  0.00    -0.307 N 
ATOM     23  C   UNL     1      14.924   8.262  19.869  0.00  0.00    +0.263 C 
ATOM     33  H   UNL     1      15.527   7.890  21.824  0.00  0.00    +0.149 HD
BRANCH  23  24
ATOM      6  N   UNL     1      12.707   9.182  19.993  0.00  0.00    -0.250 NA
ATOM     24  C   UNL     1      13.499   8.123  20.268  0.00  0.00    +0.125 A 
ATOM     28  C   UNL     1      13.056   6.961  20.882  0.00  0.00    +0.033 A 
ATOM     29  C   UNL     1      11.714   6.883  21.233  0.00  0.00    +0.004 A 
ATOM     30  C   UNL     1      11.408   9.070  20.350  0.00  0.00    +0.111 A 
ATOM     32  C   UNL     1      10.867   7.953  20.965  0.00  0.00    +0.020 A 
ENDBRANCH  23  24
ENDBRANCH  15   4
BRANCH  11   1
ATOM      1  O   UNL     1      20.119   4.838  20.045  0.00  0.00    -0.391 OA
ATOM     34  H   UNL     1      20.749   4.937  19.310  0.00  0.00    +0.210 HD
ENDBRANCH  11   1
BRANCH  13  19
ATOM     19  C   UNL     1      22.802   4.850  21.242  0.00  0.00    +0.078 C 
ATOM     21  C   UNL     1      23.126   4.844  22.737  0.00  0.00    +0.017 C 
BRANCH  19  22
ATOM      2  O   UNL     1      24.596   5.927  20.076  0.00  0.00    -0.275 OA
ATOM      5  N   UNL     1      24.612   3.613  20.020  0.00  0.00    -0.303 N 
ATOM     22  C   UNL     1      24.083   4.850  20.403  0.00  0.00    +0.219 C 
ATOM     26  C   UNL     1      25.819   3.579  19.201  0.00  0.00    +0.132 C 
BRANCH   5  25
ATOM     25  C   UNL     1      24.089   2.300  20.391  0.00  0.00    +0.122 C 
BRANCH  25  27
ATOM     27  C   UNL     1      25.031   1.539  21.317  0.00  0.00    +0.137 C 
BRANCH  27  31
ATOM      7  N   UNL     1      23.877   0.935  23.603  0.00  0.00    -0.197 NA
ATOM     31  C   UNL     1      24.387   1.200  22.595  0.00  0.00    +0.064 C 
ENDBRANCH  27  31
ENDBRANCH  25  27
ENDBRANCH   5  25
ENDBRANCH  19  22
ENDBRANCH  13  19
TORSDOF 8
ENDMDL
MODEL 4
REMARK VINA RESULT:      -6.6     25.570     27.895
REMARK  Name = 45361613
REMARK  12 active torsions:
REMARK  status: ('A' for Active; 'I' for Inactive)
REMARK    1  A    between atoms: O_1  and  C_11
REMARK    2  A    between atoms: N_4  and  C_15
REMARK    3  A    between atoms: N_5  and  C_25
REMARK    4  A    between atoms: N_5  and  C_26
REMARK    5  A    between atoms: C_8  and  C_18
REMARK    6  A    between atoms: C_10  and  C_20
REMARK    7  A    between atoms: C_13  and  C_19
REMARK    8  A    between atoms: C_19  and  C_21
REMARK    9  A    between atoms: C_19  and  C_22
REMARK   10  A    between atoms: C_23  and  C_24
REMARK   11  A    between atoms: C_25  and  C_27
REMARK   12  A    between atoms: C_27  and  C_31
REMARK                            x       y       z     vdW  Elec       q    Type
REMARK                         _______ _______ _______ _____ _____    ______ ____
ROOT
ATOM      8  C   UNL     1       9.465   5.967   5.969  0.00  0.00    -0.027 C 
ATOM      9  C   UNL     1      10.451   7.092   5.508  0.00  0.00    +0.028 C 
ATOM     10  C   UNL     1       9.943   8.504   5.971  0.00  0.00    +0.012 C 
ATOM     11  C   UNL     1      10.783   6.965   3.993  0.00  0.00    +0.122 C 
ATOM     12  C   UNL     1      10.050   4.584   5.597  0.00  0.00    +0.007 C 
ATOM     13  C   UNL     1      11.269   5.548   3.608  0.00  0.00    +0.029 C 
ATOM     14  C   UNL     1       9.324   6.020   7.508  0.00  0.00    +0.009 C 
ATOM     15  C   UNL     1       9.733   8.523   7.512  0.00  0.00    +0.076 C 
ATOM     16  C   UNL     1      10.339   4.442   4.109  0.00  0.00    +0.007 C 
ATOM     17  C   UNL     1       8.860   7.376   8.019  0.00  0.00    +0.023 C 
ATOM     18  C   UNL     1       8.063   6.105   5.323  0.00  0.00    +0.011 C 
ATOM     20  C   UNL     1      10.882   9.657   5.576  0.00  0.00    +0.010 C 
ENDROOT
BRANCH  15   4
ATOM      3  O   UNL     1      11.011  10.522   9.129  0.00  0.00    -0.269 OA
ATOM      4  N   UNL     1       9.155   9.772   7.960  0.00  0.00    -0.307 N 
ATOM     23  C   UNL     1       9.857  10.674   8.741  0.00  0.00    +0.263 C 
ATOM     33  H   UNL     1       8.181   9.962   7.736  0.00  0.00    +0.149 HD
BRANCH  23  24
ATOM      6  N   UNL     1       9.059  12.879   8.211  0.00  0.00    -0.250 NA
ATOM     24  C   UNL     1       9.113  11.898   9.139  0.00  0.00    +0.125 A 
ATOM     28  C   UNL     1       8.528  11.983  10.393  0.00  0.00    +0.033 A 
ATOM     29  C   UNL     1       7.843  13.149  10.713  0.00  0.00    +0.004 A 
ATOM     30  C   UNL     1       8.385  13.999   8.558  0.00  0.00    +0.111 A 
ATOM     32  C   UNL     1       7.765  14.181   9.784  0.00  0.00    +0.020 A 
ENDBRANCH  23  24
ENDBRANCH  15   4
BRANCH  11   1
ATOM      1  O   UNL     1      11.841   7.864   3.660  0.00  0.00    -0.391 OA
ATOM     34  H   UNL     1      11.842   7.986   2.695  0.00  0.00    +0.210 HD
ENDBRANCH  11   1
BRANCH  13  19
ATOM     19  C   UNL     1      11.465   5.406   2.094  0.00  0.00    +0.078 C 
ATOM     21  C   UNL     1      10.173   4.890   1.458  0.00  0.00    +0.017 C 
BRANCH  19  22
ATOM      2  O   UNL     1      12.462   3.238   1.894  0.00  0.00    -0.275 OA
ATOM      5  N   UNL     1      13.869   5.028   1.480  0.00  0.00    -0.303 N 
ATOM     22  C   UNL     1      12.634   4.459   1.809  0.00  0.00    +0.219 C 
ATOM     26  C   UNL     1      15.009   4.154   1.225  0.00  0.00    +0.132 C 
BRANCH   5  25
ATOM     25  C   UNL     1      14.147   6.454   1.326  0.00  0.00    +0.122 C 
BRANCH  25  27
ATOM     27  C   UNL     1      15.369   6.899   2.121  0.00  0.00    +0.137 C 
BRANCH  27  31
ATOM      7  N   UNL     1      14.787   7.346   4.647  0.00  0.00    -0.197 NA
ATOM     31  C   UNL     1      15.042   7.149   3.532  0.00  0.00    +0.064 C 
ENDBRANCH  27  31
ENDBRANCH  25  27
ENDBRANCH   5  25
ENDBRANCH  19  22
ENDBRANCH  13  19
TORSDOF 8
ENDMDL
MODEL 5
REMARK VINA RESULT:      -6.5     27.622     31.590
REMARK  Name = 45361613
REMARK  12 active torsions:
REMARK  status: ('A' for Active; 'I' for Inactive)
REMARK    1  A    between atoms: O_1  and  C_11
REMARK    2  A    between atoms: N_4  and  C_15
REMARK    3  A    between atoms: N_5  and  C_25
REMARK    4  A    between atoms: N_5  and  C_26
REMARK    5  A    between atoms: C_8  and  C_18
REMARK    6  A    between atoms: C_10  and  C_20
REMARK    7  A    between atoms: C_13  and  C_19
REMARK    8  A    between atoms: C_19  and  C_21
REMARK    9  A    between atoms: C_19  and  C_22
REMARK   10  A    between atoms: C_23  and  C_24
REMARK   11  A    between atoms: C_25  and  C_27
REMARK   12  A    between atoms: C_27  and  C_31
REMARK                            x       y       z     vdW  Elec       q    Type
REMARK                         _______ _______ _______ _____ _____    ______ ____
ROOT
ATOM      8  C   UNL     1      18.495   9.324  21.636  0.00  0.00    -0.027 C 
ATOM      9  C   UNL     1      17.830   8.016  21.092  0.00  0.00    +0.028 C 
ATOM     10  C   UNL     1      18.915   7.033  20.521  0.00  0.00    +0.012 C 
ATOM     11  C   UNL     1      16.651   8.340  20.129  0.00  0.00    +0.122 C 
ATOM     12  C   UNL     1      17.414  10.217  22.290  0.00  0.00    +0.007 C 
ATOM     13  C   UNL     1      15.627   9.317  20.753  0.00  0.00    +0.029 C 
ATOM     14  C   UNL     1      19.522   8.950  22.729  0.00  0.00    +0.009 C 
ATOM     15  C   UNL     1      19.985   6.724  21.607  0.00  0.00    +0.076 C 
ATOM     16  C   UNL     1      16.279  10.570  21.340  0.00  0.00    +0.007 C 
ATOM     17  C   UNL     1      20.586   7.977  22.242  0.00  0.00    +0.023 C 
ATOM     18  C   UNL     1      19.205  10.136  20.524  0.00  0.00    +0.011 C 
ATOM     20  C   UNL     1      18.333   5.711  19.995  0.00  0.00    +0.010 C 
ENDROOT
BRANCH  15   4
ATOM      3  O   UNL     1      21.441   4.687  23.012  0.00  0.00    -0.269 OA
ATOM      4  N   UNL     1      21.064   5.914  21.081  0.00  0.00    -0.307 N 
ATOM     23  C   UNL     1      21.706   4.953  21.843  0.00  0.00    +0.263 C 
ATOM     33  H   UNL     1      21.393   6.101  20.138  0.00  0.00    +0.149 HD
BRANCH  23  24
ATOM      6  N   UNL     1      23.623   4.979  20.392  0.00  0.00    -0.250 NA
ATOM     24  C   UNL     1      22.810   4.225  21.165  0.00  0.00    +0.125 A 
ATOM     28  C   UNL     1      22.958   2.858  21.344  0.00  0.00    +0.033 A 
ATOM     29  C   UNL     1      24.009   2.227  20.688  0.00  0.00    +0.004 A 
ATOM     30  C   UNL     1      24.633   4.331  19.770  0.00  0.00    +0.111 A 
ATOM     32  C   UNL     1      24.867   2.970  19.884  0.00  0.00    +0.020 A 
ENDBRANCH  23  24
ENDBRANCH  15   4
BRANCH  11   1
ATOM      1  O   UNL     1      15.939   7.140  19.827  0.00  0.00    -0.391 OA
ATOM     34  H   UNL     1      16.092   6.925  18.891  0.00  0.00    +0.210 HD
ENDBRANCH  11   1
BRANCH  13  19
ATOM     19  C   UNL     1      14.546   9.726  19.745  0.00  0.00    +0.078 C 
ATOM     21  C   UNL     1      14.761  11.181  19.328  0.00  0.00    +0.017 C 
BRANCH  19  22
ATOM      2  O   UNL     1      12.874  10.123  21.414  0.00  0.00    -0.275 OA
ATOM      5  N   UNL     1      12.271   8.665  19.721  0.00  0.00    -0.303 N 
ATOM     22  C   UNL     1      13.160   9.532  20.366  0.00  0.00    +0.219 C 
ATOM     26  C   UNL     1      10.951   8.441  20.298  0.00  0.00    +0.132 C 
BRANCH   5  25
ATOM     25  C   UNL     1      12.517   7.958  18.466  0.00  0.00    +0.122 C 
BRANCH  25  27
ATOM     27  C   UNL     1      11.752   8.565  17.296  0.00  0.00    +0.137 C 
BRANCH  27  31
ATOM      7  N   UNL     1      13.312  10.024  15.760  0.00  0.00    -0.197 NA
ATOM     31  C   UNL     1      12.622   9.380  16.437  0.00  0.00    +0.064 C 
ENDBRANCH  27  31
ENDBRANCH  25  27
ENDBRANCH   5  25
ENDBRANCH  19  22
ENDBRANCH  13  19
TORSDOF 8
ENDMDL
MODEL 6
REMARK VINA RESULT:      -6.3     18.619     20.028
REMARK  Name = 45361613
REMARK  12 active torsions:
REMARK  status: ('A' for Active; 'I' for Inactive)
REMARK    1  A    between atoms: O_1  and  C_11
REMARK    2  A    between atoms: N_4  and  C_15
REMARK    3  A    between atoms: N_5  and  C_25
REMARK    4  A    between atoms: N_5  and  C_26
REMARK    5  A    between atoms: C_8  and  C_18
REMARK    6  A    between atoms: C_10  and  C_20
REMARK    7  A    between atoms: C_13  and  C_19
REMARK    8  A    between atoms: C_19  and  C_21
REMARK    9  A    between atoms: C_19  and  C_22
REMARK   10  A    between atoms: C_23  and  C_24
REMARK   11  A    between atoms: C_25  and  C_27
REMARK   12  A    between atoms: C_27  and  C_31
REMARK                            x       y       z     vdW  Elec       q    Type
REMARK                         _______ _______ _______ _____ _____    ______ ____
ROOT
ATOM      8  C   UNL     1     -16.872   5.990  20.987  0.00  0.00    -0.027 C 
ATOM      9  C   UNL     1     -15.376   5.752  21.380  0.00  0.00    +0.028 C 
ATOM     10  C   UNL     1     -15.255   5.335  22.890  0.00  0.00    +0.012 C 
ATOM     11  C   UNL     1     -14.480   6.948  20.944  0.00  0.00    +0.122 C 
ATOM     12  C   UNL     1     -16.965   6.288  19.472  0.00  0.00    +0.007 C 
ATOM     13  C   UNL     1     -14.657   7.307  19.450  0.00  0.00    +0.029 C 
ATOM     14  C   UNL     1     -17.678   4.700  21.264  0.00  0.00    +0.009 C 
ATOM     15  C   UNL     1     -16.129   4.080  23.174  0.00  0.00    +0.076 C 
ATOM     16  C   UNL     1     -16.121   7.482  19.048  0.00  0.00    +0.007 C 
ATOM     17  C   UNL     1     -17.577   4.230  22.708  0.00  0.00    +0.023 C 
ATOM     18  C   UNL     1     -17.511   7.168  21.766  0.00  0.00    +0.011 C 
ATOM     20  C   UNL     1     -13.811   5.056  23.339  0.00  0.00    +0.010 C 
ENDROOT
BRANCH  15   4
ATOM      3  O   UNL     1     -16.723   1.510  24.309  0.00  0.00    -0.269 OA
ATOM      4  N   UNL     1     -16.133   3.736  24.580  0.00  0.00    -0.307 N 
ATOM     23  C   UNL     1     -16.435   2.462  25.029  0.00  0.00    +0.263 C 
ATOM     33  H   UNL     1     -15.963   4.474  25.258  0.00  0.00    +0.149 HD
BRANCH  23  24
ATOM      6  N   UNL     1     -15.986   3.336  27.223  0.00  0.00    -0.250 NA
ATOM     24  C   UNL     1     -16.422   2.278  26.504  0.00  0.00    +0.125 A 
ATOM     28  C   UNL     1     -16.839   1.079  27.061  0.00  0.00    +0.033 A 
ATOM     29  C   UNL     1     -16.808   0.961  28.446  0.00  0.00    +0.004 A 
ATOM     30  C   UNL     1     -15.969   3.183  28.567  0.00  0.00    +0.111 A 
ATOM     32  C   UNL     1     -16.366   2.028  29.220  0.00  0.00    +0.020 A 
ENDBRANCH  23  24
ENDBRANCH  15   4
BRANCH  11   1
ATOM      1  O   UNL     1     -13.106   6.603  21.122  0.00  0.00    -0.391 OA
ATOM     34  H   UNL     1     -12.635   6.803  20.295  0.00  0.00    +0.210 HD
ENDBRANCH  11   1
BRANCH  13  19
ATOM     19  C   UNL     1     -13.867   8.566  19.072  0.00  0.00    +0.078 C 
ATOM     21  C   UNL     1     -14.840   9.708  18.773  0.00  0.00    +0.017 C 
BRANCH  19  22
ATOM      2  O   UNL     1     -13.494   8.009  16.773  0.00  0.00    -0.275 OA
ATOM      5  N   UNL     1     -11.589   8.301  18.054  0.00  0.00    -0.303 N 
ATOM     22  C   UNL     1     -12.974   8.274  17.863  0.00  0.00    +0.219 C 
ATOM     26  C   UNL     1     -10.710   8.006  16.927  0.00  0.00    +0.132 C 
BRANCH   5  25
ATOM     25  C   UNL     1     -10.897   8.639  19.295  0.00  0.00    +0.122 C 
BRANCH  25  27
ATOM     27  C   UNL     1     -10.181   9.983  19.217  0.00  0.00    +0.137 C 
BRANCH  27  31
ATOM      7  N   UNL     1     -11.876  11.993  19.141  0.00  0.00    -0.197 NA
ATOM     31  C   UNL     1     -11.129  11.106  19.175  0.00  0.00    +0.064 C 
ENDBRANCH  27  31
ENDBRANCH  25  27
ENDBRANCH   5  25
ENDBRANCH  19  22
ENDBRANCH  13  19
TORSDOF 8
ENDMDL
MODEL 7
REMARK VINA RESULT:      -6.3     17.906     19.810
REMARK  Name = 45361613
REMARK  12 active torsions:
REMARK  status: ('A' for Active; 'I' for Inactive)
REMARK    1  A    between atoms: O_1  and  C_11
REMARK    2  A    between atoms: N_4  and  C_15
REMARK    3  A    between atoms: N_5  and  C_25
REMARK    4  A    between atoms: N_5  and  C_26
REMARK    5  A    between atoms: C_8  and  C_18
REMARK    6  A    between atoms: C_10  and  C_20
REMARK    7  A    between atoms: C_13  and  C_19
REMARK    8  A    between atoms: C_19  and  C_21
REMARK    9  A    between atoms: C_19  and  C_22
REMARK   10  A    between atoms: C_23  and  C_24
REMARK   11  A    between atoms: C_25  and  C_27
REMARK   12  A    between atoms: C_27  and  C_31
REMARK                            x       y       z     vdW  Elec       q    Type
REMARK                         _______ _______ _______ _____ _____    ______ ____
ROOT
ATOM      8  C   UNL     1     -15.394   7.592  20.481  0.00  0.00    -0.027 C 
ATOM      9  C   UNL     1     -14.106   6.737  20.724  0.00  0.00    +0.028 C 
ATOM     10  C   UNL     1     -14.191   5.975  22.096  0.00  0.00    +0.012 C 
ATOM     11  C   UNL     1     -12.818   7.583  20.508  0.00  0.00    +0.122 C 
ATOM     12  C   UNL     1     -15.328   8.236  19.077  0.00  0.00    +0.007 C 
ATOM     13  C   UNL     1     -12.806   8.309  19.143  0.00  0.00    +0.029 C 
ATOM     14  C   UNL     1     -16.630   6.663  20.515  0.00  0.00    +0.009 C 
ATOM     15  C   UNL     1     -15.477   5.102  22.148  0.00  0.00    +0.076 C 
ATOM     16  C   UNL     1     -14.089   9.098  18.876  0.00  0.00    +0.007 C 
ATOM     17  C   UNL     1     -16.751   5.876  21.813  0.00  0.00    +0.023 C 
ATOM     18  C   UNL     1     -15.570   8.714  21.536  0.00  0.00    +0.011 C 
ATOM     20  C   UNL     1     -12.967   5.090  22.386  0.00  0.00    +0.010 C 
ENDROOT
BRANCH  15   4
ATOM      3  O   UNL     1     -16.505   2.470  22.658  0.00  0.00    -0.269 OA
ATOM      4  N   UNL     1     -15.648   4.476  23.443  0.00  0.00    -0.307 N 
ATOM     23  C   UNL     1     -16.155   3.196  23.584  0.00  0.00    +0.263 C 
ATOM     33  H   UNL     1     -15.439   5.023  24.274  0.00  0.00    +0.149 HD
BRANCH  23  24
ATOM      6  N   UNL     1     -16.572   1.393  25.118  0.00  0.00    -0.250 NA
ATOM     24  C   UNL     1     -16.293   2.708  24.981  0.00  0.00    +0.125 A 
ATOM     28  C   UNL     1     -16.137   3.583  26.045  0.00  0.00    +0.033 A 
ATOM     29  C   UNL     1     -16.275   3.073  27.331  0.00  0.00    +0.004 A 
ATOM     30  C   UNL     1     -16.700   0.934  26.383  0.00  0.00    +0.111 A 
ATOM     32  C   UNL     1     -16.561   1.725  27.512  0.00  0.00    +0.020 A 
ENDBRANCH  23  24
ENDBRANCH  15   4
BRANCH  11   1
ATOM      1  O   UNL     1     -11.676   6.726  20.525  0.00  0.00    -0.391 OA
ATOM     34  H   UNL     1     -11.541   6.385  19.624  0.00  0.00    +0.210 HD
ENDBRANCH  11   1
BRANCH  13  19
ATOM     19  C   UNL     1     -11.594   9.238  19.004  0.00  0.00    +0.078 C 
ATOM     21  C   UNL     1     -11.299   9.896  20.354  0.00  0.00    +0.017 C 
BRANCH  19  22
ATOM      2  O   UNL     1     -12.360  11.380  18.254  0.00  0.00    -0.275 OA
ATOM      5  N   UNL     1     -11.570   9.965  16.602  0.00  0.00    -0.303 N 
ATOM     22  C   UNL     1     -11.870  10.292  17.929  0.00  0.00    +0.219 C 
ATOM     26  C   UNL     1     -11.841  10.938  15.550  0.00  0.00    +0.132 C 
BRANCH   5  25
ATOM     25  C   UNL     1     -10.960   8.720  16.139  0.00  0.00    +0.122 C 
BRANCH  25  27
ATOM     27  C   UNL     1     -11.655   8.155  14.906  0.00  0.00    +0.137 C 
BRANCH  27  31
ATOM      7  N   UNL     1      -9.935   7.489  13.030  0.00  0.00    -0.197 NA
ATOM     31  C   UNL     1     -10.694   7.784  13.858  0.00  0.00    +0.064 C 
ENDBRANCH  27  31
ENDBRANCH  25  27
ENDBRANCH   5  25
ENDBRANCH  19  22
ENDBRANCH  13  19
TORSDOF 8
ENDMDL
MODEL 8
REMARK VINA RESULT:      -6.2     18.667     22.041
REMARK  Name = 45361613
REMARK  12 active torsions:
REMARK  status: ('A' for Active; 'I' for Inactive)
REMARK    1  A    between atoms: O_1  and  C_11
REMARK    2  A    between atoms: N_4  and  C_15
REMARK    3  A    between atoms: N_5  and  C_25
REMARK    4  A    between atoms: N_5  and  C_26
REMARK    5  A    between atoms: C_8  and  C_18
REMARK    6  A    between atoms: C_10  and  C_20
REMARK    7  A    between atoms: C_13  and  C_19
REMARK    8  A    between atoms: C_19  and  C_21
REMARK    9  A    between atoms: C_19  and  C_22
REMARK   10  A    between atoms: C_23  and  C_24
REMARK   11  A    between atoms: C_25  and  C_27
REMARK   12  A    between atoms: C_27  and  C_31
REMARK                            x       y       z     vdW  Elec       q    Type
REMARK                         _______ _______ _______ _____ _____    ______ ____
ROOT
ATOM      8  C   UNL     1     -16.675   6.541  22.931  0.00  0.00    -0.027 C 
ATOM      9  C   UNL     1     -15.318   5.840  23.273  0.00  0.00    +0.028 C 
ATOM     10  C   UNL     1     -14.283   6.028  22.106  0.00  0.00    +0.012 C 
ATOM     11  C   UNL     1     -15.543   4.371  23.736  0.00  0.00    +0.122 C 
ATOM     12  C   UNL     1     -17.631   6.433  24.143  0.00  0.00    +0.007 C 
ATOM     13  C   UNL     1     -16.579   4.261  24.879  0.00  0.00    +0.029 C 
ATOM     14  C   UNL     1     -16.414   8.042  22.669  0.00  0.00    +0.009 C 
ATOM     15  C   UNL     1     -14.085   7.540  21.802  0.00  0.00    +0.076 C 
ATOM     16  C   UNL     1     -17.885   4.996  24.573  0.00  0.00    +0.007 C 
ATOM     17  C   UNL     1     -15.396   8.288  21.564  0.00  0.00    +0.023 C 
ATOM     18  C   UNL     1     -17.369   5.920  21.693  0.00  0.00    +0.011 C 
ATOM     20  C   UNL     1     -12.913   5.387  22.389  0.00  0.00    +0.010 C 
ENDROOT
BRANCH  15   4
ATOM      3  O   UNL     1     -12.235   9.702  21.414  0.00  0.00    -0.269 OA
ATOM      4  N   UNL     1     -13.225   7.748  20.655  0.00  0.00    -0.307 N 
ATOM     23  C   UNL     1     -12.364   8.827  20.562  0.00  0.00    +0.263 C 
ATOM     33  H   UNL     1     -13.303   7.106  19.870  0.00  0.00    +0.149 HD
BRANCH  23  24
ATOM      6  N   UNL     1     -10.910  10.075  19.110  0.00  0.00    -0.250 NA
ATOM     24  C   UNL     1     -11.568   8.912  19.310  0.00  0.00    +0.125 A 
ATOM     28  C   UNL     1     -11.531   7.839  18.432  0.00  0.00    +0.033 A 
ATOM     29  C   UNL     1     -10.770   7.971  17.277  0.00  0.00    +0.004 A 
ATOM     30  C   UNL     1     -10.181  10.167  17.975  0.00  0.00    +0.111 A 
ATOM     32  C   UNL     1     -10.079   9.153  17.036  0.00  0.00    +0.020 A 
ENDBRANCH  23  24
ENDBRANCH  15   4
BRANCH  11   1
ATOM      1  O   UNL     1     -14.319   3.838  24.241  0.00  0.00    -0.391 OA
ATOM     34  H   UNL     1     -13.591   4.398  23.922  0.00  0.00    +0.210 HD
ENDBRANCH  11   1
BRANCH  13  19
ATOM     19  C   UNL     1     -16.883   2.800  25.230  0.00  0.00    +0.078 C 
ATOM     21  C   UNL     1     -17.538   2.112  24.031  0.00  0.00    +0.017 C 
BRANCH  19  22
ATOM      2  O   UNL     1     -19.003   2.537  26.314  0.00  0.00    -0.275 OA
ATOM      5  N   UNL     1     -17.207   2.945  27.715  0.00  0.00    -0.303 N 
ATOM     22  C   UNL     1     -17.792   2.741  26.461  0.00  0.00    +0.219 C 
ATOM     26  C   UNL     1     -18.049   2.918  28.906  0.00  0.00    +0.132 C 
BRANCH   5  25
ATOM     25  C   UNL     1     -15.785   3.157  27.977  0.00  0.00    +0.122 C 
BRANCH  25  27
ATOM     27  C   UNL     1     -15.447   3.066  29.461  0.00  0.00    +0.137 C 
BRANCH  27  31
ATOM      7  N   UNL     1     -13.820   1.062  29.971  0.00  0.00    -0.197 NA
ATOM     31  C   UNL     1     -14.537   1.947  29.746  0.00  0.00    +0.064 C 
ENDBRANCH  27  31
ENDBRANCH  25  27
ENDBRANCH   5  25
ENDBRANCH  19  22
ENDBRANCH  13  19
TORSDOF 8
ENDMDL
MODEL 9
REMARK VINA RESULT:      -6.2     24.796     29.206
REMARK  Name = 45361613
REMARK  12 active torsions:
REMARK  status: ('A' for Active; 'I' for Inactive)
REMARK    1  A    between atoms: O_1  and  C_11
REMARK    2  A    between atoms: N_4  and  C_15
REMARK    3  A    between atoms: N_5  and  C_25
REMARK    4  A    between atoms: N_5  and  C_26
REMARK    5  A    between atoms: C_8  and  C_18
REMARK    6  A    between atoms: C_10  and  C_20
REMARK    7  A    between atoms: C_13  and  C_19
REMARK    8  A    between atoms: C_19  and  C_21
REMARK    9  A    between atoms: C_19  and  C_22
REMARK   10  A    between atoms: C_23  and  C_24
REMARK   11  A    between atoms: C_25  and  C_27
REMARK   12  A    between atoms: C_27  and  C_31
REMARK                            x       y       z     vdW  Elec       q    Type
REMARK                         _______ _______ _______ _____ _____    ______ ____
ROOT
ATOM      8  C   UNL     1      13.658   7.023   2.422  0.00  0.00    -0.027 C 
ATOM      9  C   UNL     1      12.495   6.034   2.765  0.00  0.00    +0.028 C 
ATOM     10  C   UNL     1      11.710   5.622   1.467  0.00  0.00    +0.012 C 
ATOM     11  C   UNL     1      11.618   6.575   3.931  0.00  0.00    +0.122 C 
ATOM     12  C   UNL     1      14.477   7.318   3.700  0.00  0.00    +0.007 C 
ATOM     13  C   UNL     1      12.457   6.967   5.171  0.00  0.00    +0.029 C 
ATOM     14  C   UNL     1      14.605   6.352   1.400  0.00  0.00    +0.009 C 
ATOM     15  C   UNL     1      12.686   5.018   0.417  0.00  0.00    +0.076 C 
ATOM     16  C   UNL     1      13.631   7.886   4.831  0.00  0.00    +0.007 C 
ATOM     17  C   UNL     1      13.895   5.906   0.129  0.00  0.00    +0.023 C 
ATOM     18  C   UNL     1      13.145   8.364   1.838  0.00  0.00    +0.011 C 
ATOM     20  C   UNL     1      10.568   4.626   1.727  0.00  0.00    +0.010 C 
ENDROOT
BRANCH  15   4
ATOM      3  O   UNL     1      12.722   2.534  -1.023  0.00  0.00    -0.269 OA
ATOM      4  N   UNL     1      12.017   4.734  -0.836  0.00  0.00    -0.307 N 
ATOM     23  C   UNL     1      12.096   3.498  -1.453  0.00  0.00    +0.263 C 
ATOM     33  H   UNL     1      11.520   5.490  -1.300  0.00  0.00    +0.149 HD
BRANCH  23  24
ATOM      6  N   UNL     1      10.034   3.234  -2.659  0.00  0.00    -0.250 NA
ATOM     24  C   UNL     1      11.375   3.376  -2.747  0.00  0.00    +0.125 A 
ATOM     28  C   UNL     1      12.075   3.411  -3.943  0.00  0.00    +0.033 A 
ATOM     29  C   UNL     1      11.351   3.295  -5.123  0.00  0.00    +0.004 A 
ATOM     30  C   UNL     1       9.363   3.123  -3.828  0.00  0.00    +0.111 A 
ATOM     32  C   UNL     1       9.969   3.147  -5.074  0.00  0.00    +0.020 A 
ENDBRANCH  23  24
ENDBRANCH  15   4
BRANCH  11   1
ATOM      1  O   UNL     1      10.710   5.560   4.356  0.00  0.00    -0.391 OA
ATOM     34  H   UNL     1      11.151   4.699   4.256  0.00  0.00    +0.210 HD
ENDBRANCH  11   1
BRANCH  13  19
ATOM     19  C   UNL     1      11.593   7.619   6.257  0.00  0.00    +0.078 C 
ATOM     21  C   UNL     1      12.329   8.828   6.837  0.00  0.00    +0.017 C 
BRANCH  19  22
ATOM      2  O   UNL     1      12.184   5.903   7.820  0.00  0.00    -0.275 OA
ATOM      5  N   UNL     1       9.942   6.471   7.758  0.00  0.00    -0.303 N 
ATOM     22  C   UNL     1      11.274   6.595   7.349  0.00  0.00    +0.219 C 
ATOM     26  C   UNL     1       9.600   5.488   8.780  0.00  0.00    +0.132 C 
BRANCH   5  25
ATOM     25  C   UNL     1       8.816   7.270   7.279  0.00  0.00    +0.122 C 
BRANCH  25  27
ATOM     27  C   UNL     1       8.123   6.639   6.077  0.00  0.00    +0.137 C 
BRANCH  27  31
ATOM      7  N   UNL     1       8.037   8.281   4.024  0.00  0.00    -0.197 NA
ATOM     31  C   UNL     1       8.074   7.556   4.930  0.00  0.00    +0.064 C 
ENDBRANCH  27  31
ENDBRANCH  25  27
ENDBRANCH   5  25
ENDBRANCH  19  22
ENDBRANCH  13  19
TORSDOF 8
ENDMDL
MODEL 10
REMARK VINA RESULT:      -6.0     24.593     31.379
REMARK  Name = 45361613
REMARK  12 active torsions:
REMARK  status: ('A' for Active; 'I' for Inactive)
REMARK    1  A    between atoms: O_1  and  C_11
REMARK    2  A    between atoms: N_4  and  C_15
REMARK    3  A    between atoms: N_5  and  C_25
REMARK    4  A    between atoms: N_5  and  C_26
REMARK    5  A    between atoms: C_8  and  C_18
REMARK    6  A    between atoms: C_10  and  C_20
REMARK    7  A    between atoms: C_13  and  C_19
REMARK    8  A    between atoms: C_19  and  C_21
REMARK    9  A    between atoms: C_19  and  C_22
REMARK   10  A    between atoms: C_23  and  C_24
REMARK   11  A    between atoms: C_25  and  C_27
REMARK   12  A    between atoms: C_27  and  C_31
REMARK                            x       y       z     vdW  Elec       q    Type
REMARK                         _______ _______ _______ _____ _____    ______ ____
ROOT
ATOM      8  C   UNL     1      14.165   7.128   2.091  0.00  0.00    -0.027 C 
ATOM      9  C   UNL     1      14.250   7.447   3.621  0.00  0.00    +0.028 C 
ATOM     10  C   UNL     1      15.724   7.291   4.143  0.00  0.00    +0.012 C 
ATOM     11  C   UNL     1      13.171   6.662   4.422  0.00  0.00    +0.122 C 
ATOM     12  C   UNL     1      12.728   7.399   1.587  0.00  0.00    +0.007 C 
ATOM     13  C   UNL     1      11.748   6.855   3.848  0.00  0.00    +0.029 C 
ATOM     14  C   UNL     1      15.119   8.074   1.326  0.00  0.00    +0.009 C 
ATOM     15  C   UNL     1      16.685   8.192   3.316  0.00  0.00    +0.076 C 
ATOM     16  C   UNL     1      11.673   6.602   2.342  0.00  0.00    +0.007 C 
ATOM     17  C   UNL     1      16.560   7.988   1.807  0.00  0.00    +0.023 C 
ATOM     18  C   UNL     1      14.536   5.659   1.769  0.00  0.00    +0.011 C 
ATOM     20  C   UNL     1      15.886   7.619   5.637  0.00  0.00    +0.010 C 
ENDROOT
BRANCH  15   4
ATOM      3  O   UNL     1      18.574  10.217   4.074  0.00  0.00    -0.269 OA
ATOM      4  N   UNL     1      18.068   7.986   3.693  0.00  0.00    -0.307 N 
ATOM     23  C   UNL     1      18.903   9.034   4.044  0.00  0.00    +0.263 C 
ATOM     33  H   UNL     1      18.448   7.045   3.642  0.00  0.00    +0.149 HD
BRANCH  23  24
ATOM      6  N   UNL     1      21.076   9.658   4.858  0.00  0.00    -0.250 NA
ATOM     24  C   UNL     1      20.301   8.660   4.380  0.00  0.00    +0.125 A 
ATOM     28  C   UNL     1      20.738   7.357   4.198  0.00  0.00    +0.033 A 
ATOM     29  C   UNL     1      22.055   7.061   4.530  0.00  0.00    +0.004 A 
ATOM     30  C   UNL     1      22.351   9.333   5.169  0.00  0.00    +0.111 A 
ATOM     32  C   UNL     1      22.884   8.062   5.025  0.00  0.00    +0.020 A 
ENDBRANCH  23  24
ENDBRANCH  15   4
BRANCH  11   1
ATOM      1  O   UNL     1      13.137   7.137   5.768  0.00  0.00    -0.391 OA
ATOM     34  H   UNL     1      12.802   6.419   6.333  0.00  0.00    +0.210 HD
ENDBRANCH  11   1
BRANCH  13  19
ATOM     19  C   UNL     1      10.721   5.972   4.568  0.00  0.00    +0.078 C 
ATOM     21  C   UNL     1      10.200   4.906   3.603  0.00  0.00    +0.017 C 
BRANCH  19  22
ATOM      2  O   UNL     1       8.833   7.421   4.302  0.00  0.00    -0.275 OA
ATOM      5  N   UNL     1       9.432   6.949   6.487  0.00  0.00    -0.303 N 
ATOM     22  C   UNL     1       9.576   6.838   5.100  0.00  0.00    +0.219 C 
ATOM     26  C   UNL     1       8.365   7.785   7.026  0.00  0.00    +0.132 C 
BRANCH   5  25
ATOM     25  C   UNL     1      10.243   6.269   7.494  0.00  0.00    +0.122 C 
BRANCH  25  27
ATOM     27  C   UNL     1       9.602   4.973   7.979  0.00  0.00    +0.137 C 
BRANCH  27  31
ATOM      7  N   UNL     1       9.979   4.596  10.555  0.00  0.00    -0.197 NA
ATOM     31  C   UNL     1       9.814   4.763   9.418  0.00  0.00    +0.064 C 
ENDBRANCH  27  31
ENDBRANCH  25  27
ENDBRANCH   5  25
ENDBRANCH  19  22
ENDBRANCH  13  19
TORSDOF 8
ENDMDL
