MODEL 1
REMARK VINA RESULT:      -5.9      0.000      0.000
REMARK  Name = 7664036
REMARK  9 active torsions:
REMARK  status: ('A' for Active; 'I' for Inactive)
REMARK    1  A    between atoms: S_1  and  N_9
REMARK    2  A    between atoms: S_1  and  C_23
REMARK    3  A    between atoms: O_6  and  C_28
REMARK    4  A    between atoms: O_6  and  C_32
REMARK    5  A    between atoms: N_11  and  C_24
REMARK    6  A    between atoms: C_12  and  C_22
REMARK    7  A    between atoms: C_13  and  C_17
REMARK    8  A    between atoms: C_24  and  C_27
REMARK    9  A    between atoms: C_24  and  C_28
REMARK                            x       y       z     vdW  Elec       q    Type
REMARK                         _______ _______ _______ _____ _____    ______ ____
ROOT
ATOM      2  O   UNL     1      -7.107 -12.642  16.977  0.00  0.00    -0.275 OA
ATOM      8  N   UNL     1      -5.750 -11.601  15.398  0.00  0.00    -0.287 N 
ATOM      9  N   UNL     1      -4.123 -11.766  13.053  0.00  0.00    -0.173 NA
ATOM     12  C   UNL     1      -6.068 -12.586  14.358  0.00  0.00    +0.177 C 
ATOM     14  C   UNL     1      -4.863 -12.979  13.509  0.00  0.00    +0.141 C 
ATOM     15  C   UNL     1      -4.898 -10.474  14.991  0.00  0.00    +0.125 C 
ATOM     16  C   UNL     1      -3.677 -10.939  14.210  0.00  0.00    +0.128 C 
ATOM     17  C   UNL     1      -6.393 -11.695  16.638  0.00  0.00    +0.219 C 
ENDROOT
BRANCH  17  13
ATOM     10  N   UNL     1      -8.090 -10.711  19.814  0.00  0.00    -0.316 NA
ATOM     13  C   UNL     1      -6.177 -10.558  17.597  0.00  0.00    +0.078 C 
ATOM     18  C   UNL     1      -7.418  -9.668  17.674  0.00  0.00    +0.028 C 
ATOM     19  C   UNL     1      -5.790 -11.079  18.983  0.00  0.00    +0.028 C 
ATOM     20  C   UNL     1      -8.545 -10.313  18.482  0.00  0.00    +0.081 C 
ATOM     21  C   UNL     1      -6.985 -11.666  19.736  0.00  0.00    +0.081 C 
ATOM     33  H   UNL     1      -8.866 -11.134  20.323  0.00  0.00    +0.122 HD
ENDBRANCH  17  13
BRANCH  12  22
ATOM      5  O   UNL     1      -8.206 -11.569  14.030  0.00  0.00    -0.274 OA
ATOM     11  N   UNL     1      -6.875 -12.017  12.173  0.00  0.00    -0.301 N 
ATOM     22  C   UNL     1      -7.170 -11.993  13.526  0.00  0.00    +0.236 C 
ATOM     34  H   UNL     1      -5.994 -12.417  11.863  0.00  0.00    +0.150 HD
BRANCH  11  24
ATOM     24  C   UNL     1      -7.780 -11.526  11.159  0.00  0.00    +0.179 C 
ATOM     27  C   UNL     1      -7.706 -12.403   9.918  0.00  0.00    +0.040 C 
BRANCH  24  28
ATOM      7  O   UNL     1      -6.893  -9.315  11.550  0.00  0.00    -0.249 OA
ATOM     28  C   UNL     1      -7.496 -10.076  10.799  0.00  0.00    +0.327 C 
BRANCH  28   6
ATOM      6  O   UNL     1      -7.977  -9.745   9.568  0.00  0.00    -0.467 OA
ATOM     32  C   UNL     1      -8.096  -8.344   9.302  0.00  0.00    +0.280 C 
ENDBRANCH  28   6
ENDBRANCH  24  28
ENDBRANCH  11  24
ENDBRANCH  12  22
BRANCH   9   1
ATOM      1  S   UNL     1      -2.944 -12.035  11.841  0.00  0.00    +0.061 S 
ATOM      3  O   UNL     1      -3.020 -13.414  11.405  0.00  0.00    -0.153 OA
ATOM      4  O   UNL     1      -1.688 -11.457  12.270  0.00  0.00    -0.153 OA
BRANCH   1  23
ATOM     23  C   UNL     1      -3.594 -11.024  10.548  0.00  0.00    +0.105 A 
ATOM     25  C   UNL     1      -4.198 -11.616   9.438  0.00  0.00    +0.028 A 
ATOM     26  C   UNL     1      -3.504  -9.636  10.636  0.00  0.00    +0.028 A 
ATOM     29  C   UNL     1      -4.712 -10.817   8.416  0.00  0.00    +0.002 A 
ATOM     30  C   UNL     1      -4.018  -8.837   9.613  0.00  0.00    +0.002 A 
ATOM     31  C   UNL     1      -4.622  -9.429   8.504  0.00  0.00    +0.000 A 
ENDBRANCH   1  23
ENDBRANCH   9   1
TORSDOF 7
ENDMDL
MODEL 2
REMARK VINA RESULT:      -5.6     24.372     27.794
REMARK  Name = 7664036
REMARK  9 active torsions:
REMARK  status: ('A' for Active; 'I' for Inactive)
REMARK    1  A    between atoms: S_1  and  N_9
REMARK    2  A    between atoms: S_1  and  C_23
REMARK    3  A    between atoms: O_6  and  C_28
REMARK    4  A    between atoms: O_6  and  C_32
REMARK    5  A    between atoms: N_11  and  C_24
REMARK    6  A    between atoms: C_12  and  C_22
REMARK    7  A    between atoms: C_13  and  C_17
REMARK    8  A    between atoms: C_24  and  C_27
REMARK    9  A    between atoms: C_24  and  C_28
REMARK                            x       y       z     vdW  Elec       q    Type
REMARK                         _______ _______ _______ _____ _____    ______ ____
ROOT
ATOM      2  O   UNL     1      14.879  10.000   3.846  0.00  0.00    -0.275 OA
ATOM      8  N   UNL     1      13.400   8.629   5.008  0.00  0.00    -0.287 N 
ATOM      9  N   UNL     1      10.735   7.696   5.454  0.00  0.00    -0.173 NA
ATOM     12  C   UNL     1      12.453   8.566   3.889  0.00  0.00    +0.177 C 
ATOM     14  C   UNL     1      10.993   8.640   4.327  0.00  0.00    +0.141 C 
ATOM     15  C   UNL     1      13.075   7.808   6.185  0.00  0.00    +0.125 C 
ATOM     16  C   UNL     1      11.625   7.982   6.613  0.00  0.00    +0.128 C 
ATOM     17  C   UNL     1      14.609   9.313   4.835  0.00  0.00    +0.219 C 
ENDROOT
BRANCH  17  13
ATOM     10  N   UNL     1      18.298   9.877   4.961  0.00  0.00    -0.316 NA
ATOM     13  C   UNL     1      15.620   9.186   5.939  0.00  0.00    +0.078 C 
ATOM     18  C   UNL     1      16.669   8.126   5.598  0.00  0.00    +0.028 C 
ATOM     19  C   UNL     1      16.280  10.535   6.232  0.00  0.00    +0.028 C 
ATOM     20  C   UNL     1      17.672   8.619   4.554  0.00  0.00    +0.081 C 
ATOM     21  C   UNL     1      17.299  10.926   5.161  0.00  0.00    +0.081 C 
ATOM     33  H   UNL     1      18.960  10.172   4.245  0.00  0.00    +0.122 HD
ENDBRANCH  17  13
BRANCH  12  22
ATOM      5  O   UNL     1      13.890   6.845   3.061  0.00  0.00    -0.274 OA
ATOM     11  N   UNL     1      11.616   6.748   2.570  0.00  0.00    -0.301 N 
ATOM     22  C   UNL     1      12.750   7.296   3.144  0.00  0.00    +0.236 C 
ATOM     34  H   UNL     1      10.724   7.221   2.681  0.00  0.00    +0.150 HD
BRANCH  11  24
ATOM     24  C   UNL     1      11.636   5.538   1.780  0.00  0.00    +0.179 C 
ATOM     27  C   UNL     1      10.551   5.585   0.715  0.00  0.00    +0.040 C 
BRANCH  24  28
ATOM      7  O   UNL     1      10.816   4.289   3.678  0.00  0.00    -0.249 OA
ATOM     28  C   UNL     1      11.476   4.295   2.643  0.00  0.00    +0.327 C 
BRANCH  28   6
ATOM      6  O   UNL     1      12.133   3.220   2.127  0.00  0.00    -0.467 OA
ATOM     32  C   UNL     1      13.450   3.475   1.627  0.00  0.00    +0.280 C 
ENDBRANCH  28   6
ENDBRANCH  24  28
ENDBRANCH  11  24
ENDBRANCH  12  22
BRANCH   9   1
ATOM      1  S   UNL     1       9.085   7.440   5.835  0.00  0.00    +0.061 S 
ATOM      3  O   UNL     1       8.430   6.816   4.706  0.00  0.00    -0.153 OA
ATOM      4  O   UNL     1       8.550   8.643   6.437  0.00  0.00    -0.153 OA
BRANCH   1  23
ATOM     23  C   UNL     1       9.247   6.223   7.104  0.00  0.00    +0.105 A 
ATOM     25  C   UNL     1       9.680   4.936   6.784  0.00  0.00    +0.028 A 
ATOM     26  C   UNL     1       8.942   6.548   8.425  0.00  0.00    +0.028 A 
ATOM     29  C   UNL     1       9.808   3.975   7.786  0.00  0.00    +0.002 A 
ATOM     30  C   UNL     1       9.070   5.586   9.428  0.00  0.00    +0.002 A 
ATOM     31  C   UNL     1       9.503   4.299   9.108  0.00  0.00    +0.000 A 
ENDBRANCH   1  23
ENDBRANCH   9   1
TORSDOF 7
ENDMDL
MODEL 3
REMARK VINA RESULT:      -5.4      2.734      6.981
REMARK  Name = 7664036
REMARK  9 active torsions:
REMARK  status: ('A' for Active; 'I' for Inactive)
REMARK    1  A    between atoms: S_1  and  N_9
REMARK    2  A    between atoms: S_1  and  C_23
REMARK    3  A    between atoms: O_6  and  C_28
REMARK    4  A    between atoms: O_6  and  C_32
REMARK    5  A    between atoms: N_11  and  C_24
REMARK    6  A    between atoms: C_12  and  C_22
REMARK    7  A    between atoms: C_13  and  C_17
REMARK    8  A    between atoms: C_24  and  C_27
REMARK    9  A    between atoms: C_24  and  C_28
REMARK                            x       y       z     vdW  Elec       q    Type
REMARK                         _______ _______ _______ _____ _____    ______ ____
ROOT
ATOM      2  O   UNL     1      -2.379 -12.592  14.725  0.00  0.00    -0.275 OA
ATOM      8  N   UNL     1      -4.462 -12.647  15.763  0.00  0.00    -0.287 N 
ATOM      9  N   UNL     1      -6.201 -11.758  17.850  0.00  0.00    -0.173 NA
ATOM     12  C   UNL     1      -4.319 -11.291  16.302  0.00  0.00    +0.177 C 
ATOM     14  C   UNL     1      -4.845 -11.148  17.727  0.00  0.00    +0.141 C 
ATOM     15  C   UNL     1      -5.750 -13.314  16.006  0.00  0.00    +0.125 C 
ATOM     16  C   UNL     1      -6.184 -13.196  17.460  0.00  0.00    +0.128 C 
ATOM     17  C   UNL     1      -3.459 -13.154  14.927  0.00  0.00    +0.219 C 
ENDROOT
BRANCH  17  13
ATOM     10  N   UNL     1      -1.880 -14.895  12.026  0.00  0.00    -0.316 NA
ATOM     13  C   UNL     1      -3.742 -14.465  14.252  0.00  0.00    +0.078 C 
ATOM     18  C   UNL     1      -4.143 -14.250  12.791  0.00  0.00    +0.028 C 
ATOM     19  C   UNL     1      -2.538 -15.404  14.356  0.00  0.00    +0.028 C 
ATOM     20  C   UNL     1      -2.946 -13.899  11.907  0.00  0.00    +0.081 C 
ATOM     21  C   UNL     1      -1.408 -15.004  13.406  0.00  0.00    +0.081 C 
ATOM     33  H   UNL     1      -1.102 -14.630  11.423  0.00  0.00    +0.122 HD
ENDBRANCH  17  13
BRANCH  12  22
ATOM      5  O   UNL     1      -5.745  -9.455  15.744  0.00  0.00    -0.274 OA
ATOM     11  N   UNL     1      -4.788 -10.702  14.026  0.00  0.00    -0.301 N 
ATOM     22  C   UNL     1      -5.027 -10.371  15.349  0.00  0.00    +0.236 C 
ATOM     34  H   UNL     1      -4.196 -11.499  13.812  0.00  0.00    +0.150 HD
BRANCH  11  24
ATOM     24  C   UNL     1      -5.371  -9.986  12.914  0.00  0.00    +0.179 C 
ATOM     27  C   UNL     1      -6.663 -10.658  12.473  0.00  0.00    +0.040 C 
BRANCH  24  28
ATOM      7  O   UNL     1      -3.254 -10.293  11.795  0.00  0.00    -0.249 OA
ATOM     28  C   UNL     1      -4.406  -9.874  11.744  0.00  0.00    +0.327 C 
BRANCH  28   6
ATOM      6  O   UNL     1      -4.975  -9.275  10.661  0.00  0.00    -0.467 OA
ATOM     32  C   UNL     1      -4.090  -8.977   9.576  0.00  0.00    +0.280 C 
ENDBRANCH  28   6
ENDBRANCH  24  28
ENDBRANCH  11  24
ENDBRANCH  12  22
BRANCH   9   1
ATOM      1  S   UNL     1      -7.043 -11.396  19.296  0.00  0.00    +0.061 S 
ATOM      3  O   UNL     1      -6.236 -10.505  20.102  0.00  0.00    -0.153 OA
ATOM      4  O   UNL     1      -7.577 -12.623  19.849  0.00  0.00    -0.153 OA
BRANCH   1  23
ATOM     23  C   UNL     1      -8.391 -10.461  18.643  0.00  0.00    +0.105 A 
ATOM     25  C   UNL     1      -8.157  -9.487  17.672  0.00  0.00    +0.028 A 
ATOM     26  C   UNL     1      -9.688 -10.696  19.098  0.00  0.00    +0.028 A 
ATOM     29  C   UNL     1      -9.222  -8.749  17.156  0.00  0.00    +0.002 A 
ATOM     30  C   UNL     1     -10.753  -9.957  18.582  0.00  0.00    +0.002 A 
ATOM     31  C   UNL     1     -10.519  -8.983  17.611  0.00  0.00    +0.000 A 
ENDBRANCH   1  23
ENDBRANCH   9   1
TORSDOF 7
ENDMDL
MODEL 4
REMARK VINA RESULT:      -5.3      1.257      1.751
REMARK  Name = 7664036
REMARK  9 active torsions:
REMARK  status: ('A' for Active; 'I' for Inactive)
REMARK    1  A    between atoms: S_1  and  N_9
REMARK    2  A    between atoms: S_1  and  C_23
REMARK    3  A    between atoms: O_6  and  C_28
REMARK    4  A    between atoms: O_6  and  C_32
REMARK    5  A    between atoms: N_11  and  C_24
REMARK    6  A    between atoms: C_12  and  C_22
REMARK    7  A    between atoms: C_13  and  C_17
REMARK    8  A    between atoms: C_24  and  C_27
REMARK    9  A    between atoms: C_24  and  C_28
REMARK                            x       y       z     vdW  Elec       q    Type
REMARK                         _______ _______ _______ _____ _____    ______ ____
ROOT
ATOM      2  O   UNL     1      -6.829 -12.815  17.185  0.00  0.00    -0.275 OA
ATOM      8  N   UNL     1      -5.608 -11.729  15.527  0.00  0.00    -0.287 N 
ATOM      9  N   UNL     1      -4.027 -11.852  13.148  0.00  0.00    -0.173 NA
ATOM     12  C   UNL     1      -5.859 -12.784  14.539  0.00  0.00    +0.177 C 
ATOM     14  C   UNL     1      -4.643 -13.106  13.675  0.00  0.00    +0.141 C 
ATOM     15  C   UNL     1      -4.871 -10.549  15.049  0.00  0.00    +0.125 C 
ATOM     16  C   UNL     1      -3.632 -10.938  14.256  0.00  0.00    +0.128 C 
ATOM     17  C   UNL     1      -6.211 -11.824  16.787  0.00  0.00    +0.219 C 
ENDROOT
BRANCH  17  13
ATOM     10  N   UNL     1      -8.134 -10.693  19.781  0.00  0.00    -0.316 NA
ATOM     13  C   UNL     1      -6.077 -10.631  17.689  0.00  0.00    +0.078 C 
ATOM     18  C   UNL     1      -7.335  -9.761  17.633  0.00  0.00    +0.028 C 
ATOM     19  C   UNL     1      -5.777 -11.064  19.126  0.00  0.00    +0.028 C 
ATOM     20  C   UNL     1      -8.503 -10.381  18.400  0.00  0.00    +0.081 C 
ATOM     21  C   UNL     1      -7.011 -11.629  19.831  0.00  0.00    +0.081 C 
ATOM     33  H   UNL     1      -8.935 -11.101  20.261  0.00  0.00    +0.122 HD
ENDBRANCH  17  13
BRANCH  12  22
ATOM      5  O   UNL     1      -8.026 -13.032  13.560  0.00  0.00    -0.274 OA
ATOM     11  N   UNL     1      -6.821 -11.082  13.151  0.00  0.00    -0.301 N 
ATOM     22  C   UNL     1      -7.029 -12.331  13.712  0.00  0.00    +0.236 C 
ATOM     34  H   UNL     1      -5.944 -10.600  13.322  0.00  0.00    +0.150 HD
BRANCH  11  24
ATOM     24  C   UNL     1      -7.785 -10.431  12.294  0.00  0.00    +0.179 C 
ATOM     27  C   UNL     1      -7.135  -9.273  11.553  0.00  0.00    +0.040 C 
BRANCH  24  28
ATOM      7  O   UNL     1     -10.147 -10.090  12.663  0.00  0.00    -0.249 OA
ATOM     28  C   UNL     1      -8.999  -9.946  13.072  0.00  0.00    +0.327 C 
BRANCH  28   6
ATOM      6  O   UNL     1      -8.655  -9.356  14.251  0.00  0.00    -0.467 OA
ATOM     32  C   UNL     1      -9.721  -8.721  14.964  0.00  0.00    +0.280 C 
ENDBRANCH  28   6
ENDBRANCH  24  28
ENDBRANCH  11  24
ENDBRANCH  12  22
BRANCH   9   1
ATOM      1  S   UNL     1      -2.856 -12.069  11.918  0.00  0.00    +0.061 S 
ATOM      3  O   UNL     1      -2.889 -13.445  11.471  0.00  0.00    -0.153 OA
ATOM      4  O   UNL     1      -1.616 -11.450  12.334  0.00  0.00    -0.153 OA
BRANCH   1  23
ATOM     23  C   UNL     1      -3.561 -11.071  10.643  0.00  0.00    +0.105 A 
ATOM     25  C   UNL     1      -4.442 -11.638   9.721  0.00  0.00    +0.028 A 
ATOM     26  C   UNL     1      -3.236  -9.718  10.557  0.00  0.00    +0.028 A 
ATOM     29  C   UNL     1      -4.998 -10.849   8.714  0.00  0.00    +0.002 A 
ATOM     30  C   UNL     1      -3.793  -8.929   9.549  0.00  0.00    +0.002 A 
ATOM     31  C   UNL     1      -4.674  -9.496   8.628  0.00  0.00    +0.000 A 
ENDBRANCH   1  23
ENDBRANCH   9   1
TORSDOF 7
ENDMDL
MODEL 5
REMARK VINA RESULT:      -4.9      2.277      4.972
REMARK  Name = 7664036
REMARK  9 active torsions:
REMARK  status: ('A' for Active; 'I' for Inactive)
REMARK    1  A    between atoms: S_1  and  N_9
REMARK    2  A    between atoms: S_1  and  C_23
REMARK    3  A    between atoms: O_6  and  C_28
REMARK    4  A    between atoms: O_6  and  C_32
REMARK    5  A    between atoms: N_11  and  C_24
REMARK    6  A    between atoms: C_12  and  C_22
REMARK    7  A    between atoms: C_13  and  C_17
REMARK    8  A    between atoms: C_24  and  C_27
REMARK    9  A    between atoms: C_24  and  C_28
REMARK                            x       y       z     vdW  Elec       q    Type
REMARK                         _______ _______ _______ _____ _____    ______ ____
ROOT
ATOM      2  O   UNL     1      -7.958  -9.021  16.784  0.00  0.00    -0.275 OA
ATOM      8  N   UNL     1      -7.510 -10.507  15.050  0.00  0.00    -0.287 N 
ATOM      9  N   UNL     1      -6.264 -11.062  12.538  0.00  0.00    -0.173 NA
ATOM     12  C   UNL     1      -6.249  -9.844  14.700  0.00  0.00    +0.177 C 
ATOM     14  C   UNL     1      -6.015  -9.745  13.195  0.00  0.00    +0.141 C 
ATOM     15  C   UNL     1      -7.833 -11.732  14.302  0.00  0.00    +0.125 C 
ATOM     16  C   UNL     1      -7.648 -11.545  12.803  0.00  0.00    +0.128 C 
ATOM     17  C   UNL     1      -8.232 -10.048  16.158  0.00  0.00    +0.219 C 
ENDROOT
BRANCH  17  13
ATOM     10  N   UNL     1     -10.388  -9.991  19.206  0.00  0.00    -0.316 NA
ATOM     13  C   UNL     1      -9.409 -10.877  16.586  0.00  0.00    +0.078 C 
ATOM     18  C   UNL     1      -9.101 -11.636  17.879  0.00  0.00    +0.028 C 
ATOM     19  C   UNL     1     -10.659 -10.008  16.747  0.00  0.00    +0.028 C 
ATOM     20  C   UNL     1      -9.125 -10.723  19.106  0.00  0.00    +0.081 C 
ATOM     21  C   UNL     1     -10.617  -9.164  18.022  0.00  0.00    +0.081 C 
ATOM     33  H   UNL     1     -10.369  -9.397  20.034  0.00  0.00    +0.122 HD
ENDBRANCH  17  13
BRANCH  12  22
ATOM      5  O   UNL     1      -3.981 -10.519  15.035  0.00  0.00    -0.274 OA
ATOM     11  N   UNL     1      -5.636 -11.410  16.408  0.00  0.00    -0.301 N 
ATOM     22  C   UNL     1      -5.154 -10.609  15.387  0.00  0.00    +0.236 C 
ATOM     34  H   UNL     1      -6.633 -11.428  16.598  0.00  0.00    +0.150 HD
BRANCH  11  24
ATOM     24  C   UNL     1      -4.789 -12.263  17.210  0.00  0.00    +0.179 C 
ATOM     27  C   UNL     1      -5.443 -13.622  17.407  0.00  0.00    +0.040 C 
BRANCH  24  28
ATOM      7  O   UNL     1      -3.524 -12.011  19.252  0.00  0.00    -0.249 OA
ATOM     28  C   UNL     1      -4.462 -11.634  18.556  0.00  0.00    +0.327 C 
BRANCH  28   6
ATOM      6  O   UNL     1      -5.315 -10.621  18.874  0.00  0.00    -0.467 OA
ATOM     32  C   UNL     1      -5.976 -10.737  20.138  0.00  0.00    +0.280 C 
ENDBRANCH  28   6
ENDBRANCH  24  28
ENDBRANCH  11  24
ENDBRANCH  12  22
BRANCH   9   1
ATOM      1  S   UNL     1      -5.739 -11.183  10.912  0.00  0.00    +0.061 S 
ATOM      3  O   UNL     1      -6.439 -10.199  10.115  0.00  0.00    -0.153 OA
ATOM      4  O   UNL     1      -5.719 -12.578  10.527  0.00  0.00    -0.153 OA
BRANCH   1  23
ATOM     23  C   UNL     1      -4.067 -10.643  11.088  0.00  0.00    +0.105 A 
ATOM     25  C   UNL     1      -3.188 -11.354  11.907  0.00  0.00    +0.028 A 
ATOM     26  C   UNL     1      -3.625  -9.509  10.408  0.00  0.00    +0.028 A 
ATOM     29  C   UNL     1      -1.867 -10.927  12.045  0.00  0.00    +0.002 A 
ATOM     30  C   UNL     1      -2.303  -9.083  10.547  0.00  0.00    +0.002 A 
ATOM     31  C   UNL     1      -1.425  -9.793  11.366  0.00  0.00    +0.000 A 
ENDBRANCH   1  23
ENDBRANCH   9   1
TORSDOF 7
ENDMDL
MODEL 6
REMARK VINA RESULT:      -4.9     20.267     22.943
REMARK  Name = 7664036
REMARK  9 active torsions:
REMARK  status: ('A' for Active; 'I' for Inactive)
REMARK    1  A    between atoms: S_1  and  N_9
REMARK    2  A    between atoms: S_1  and  C_23
REMARK    3  A    between atoms: O_6  and  C_28
REMARK    4  A    between atoms: O_6  and  C_32
REMARK    5  A    between atoms: N_11  and  C_24
REMARK    6  A    between atoms: C_12  and  C_22
REMARK    7  A    between atoms: C_13  and  C_17
REMARK    8  A    between atoms: C_24  and  C_27
REMARK    9  A    between atoms: C_24  and  C_28
REMARK                            x       y       z     vdW  Elec       q    Type
REMARK                         _______ _______ _______ _____ _____    ______ ____
ROOT
ATOM      2  O   UNL     1     -12.654   7.410  13.640  0.00  0.00    -0.275 OA
ATOM      8  N   UNL     1     -13.000   8.675  15.563  0.00  0.00    -0.287 N 
ATOM      9  N   UNL     1     -12.051   9.648  18.078  0.00  0.00    -0.173 NA
ATOM     12  C   UNL     1     -11.567   8.922  15.755  0.00  0.00    +0.177 C 
ATOM     14  C   UNL     1     -11.131   8.850  17.216  0.00  0.00    +0.141 C 
ATOM     15  C   UNL     1     -13.910   9.346  16.504  0.00  0.00    +0.125 C 
ATOM     16  C   UNL     1     -13.458   9.176  17.948  0.00  0.00    +0.128 C 
ATOM     17  C   UNL     1     -13.420   7.971  14.428  0.00  0.00    +0.219 C 
ENDROOT
BRANCH  17  13
ATOM     10  N   UNL     1     -15.446   7.206  11.387  0.00  0.00    -0.316 NA
ATOM     13  C   UNL     1     -14.901   7.911  14.182  0.00  0.00    +0.078 C 
ATOM     18  C   UNL     1     -15.322   8.948  13.139  0.00  0.00    +0.028 C 
ATOM     19  C   UNL     1     -15.326   6.503  13.756  0.00  0.00    +0.028 C 
ATOM     20  C   UNL     1     -14.932   8.535  11.720  0.00  0.00    +0.081 C 
ATOM     21  C   UNL     1     -14.936   6.193  12.310  0.00  0.00    +0.081 C 
ATOM     33  H   UNL     1     -15.170   6.966  10.435  0.00  0.00    +0.122 HD
ENDBRANCH  17  13
BRANCH  12  22
ATOM      5  O   UNL     1     -11.635  10.555  14.011  0.00  0.00    -0.274 OA
ATOM     11  N   UNL     1     -10.560  11.083  16.007  0.00  0.00    -0.301 N 
ATOM     22  C   UNL     1     -11.277  10.266  15.150  0.00  0.00    +0.236 C 
ATOM     34  H   UNL     1     -10.292  10.731  16.922  0.00  0.00    +0.150 HD
BRANCH  11  24
ATOM     24  C   UNL     1     -10.135  12.419  15.656  0.00  0.00    +0.179 C 
ATOM     27  C   UNL     1      -8.804  12.741  16.317  0.00  0.00    +0.040 C 
BRANCH  24  28
ATOM      7  O   UNL     1     -11.423  14.434  15.321  0.00  0.00    -0.249 OA
ATOM     28  C   UNL     1     -11.177  13.462  16.029  0.00  0.00    +0.327 C 
BRANCH  28   6
ATOM      6  O   UNL     1     -11.790  13.179  17.213  0.00  0.00    -0.467 OA
ATOM     32  C   UNL     1     -13.220  13.153  17.184  0.00  0.00    +0.280 C 
ENDBRANCH  28   6
ENDBRANCH  24  28
ENDBRANCH  11  24
ENDBRANCH  12  22
BRANCH   9   1
ATOM      1  S   UNL     1     -11.510   9.917  19.680  0.00  0.00    +0.061 S 
ATOM      3  O   UNL     1     -12.132  11.118  20.194  0.00  0.00    -0.153 OA
ATOM      4  O   UNL     1     -10.073   9.744  19.726  0.00  0.00    -0.153 OA
BRANCH   1  23
ATOM     23  C   UNL     1     -12.251   8.536  20.492  0.00  0.00    +0.105 A 
ATOM     25  C   UNL     1     -13.466   8.690  21.161  0.00  0.00    +0.028 A 
ATOM     26  C   UNL     1     -11.622   7.292  20.466  0.00  0.00    +0.028 A 
ATOM     29  C   UNL     1     -14.050   7.599  21.803  0.00  0.00    +0.002 A 
ATOM     30  C   UNL     1     -12.208   6.200  21.108  0.00  0.00    +0.002 A 
ATOM     31  C   UNL     1     -13.422   6.354  21.777  0.00  0.00    +0.000 A 
ENDBRANCH   1  23
ENDBRANCH   9   1
TORSDOF 7
ENDMDL
MODEL 7
REMARK VINA RESULT:      -4.9      3.602      7.510
REMARK  Name = 7664036
REMARK  9 active torsions:
REMARK  status: ('A' for Active; 'I' for Inactive)
REMARK    1  A    between atoms: S_1  and  N_9
REMARK    2  A    between atoms: S_1  and  C_23
REMARK    3  A    between atoms: O_6  and  C_28
REMARK    4  A    between atoms: O_6  and  C_32
REMARK    5  A    between atoms: N_11  and  C_24
REMARK    6  A    between atoms: C_12  and  C_22
REMARK    7  A    between atoms: C_13  and  C_17
REMARK    8  A    between atoms: C_24  and  C_27
REMARK    9  A    between atoms: C_24  and  C_28
REMARK                            x       y       z     vdW  Elec       q    Type
REMARK                         _______ _______ _______ _____ _____    ______ ____
ROOT
ATOM      2  O   UNL     1      -3.768 -14.826  15.184  0.00  0.00    -0.275 OA
ATOM      8  N   UNL     1      -5.647 -13.660  15.908  0.00  0.00    -0.287 N 
ATOM      9  N   UNL     1      -7.007 -12.205  17.959  0.00  0.00    -0.173 NA
ATOM     12  C   UNL     1      -4.878 -12.853  16.862  0.00  0.00    +0.177 C 
ATOM     14  C   UNL     1      -5.597 -12.637  18.190  0.00  0.00    +0.141 C 
ATOM     15  C   UNL     1      -7.076 -13.334  15.781  0.00  0.00    +0.125 C 
ATOM     16  C   UNL     1      -7.750 -13.202  17.139  0.00  0.00    +0.128 C 
ATOM     17  C   UNL     1      -4.966 -14.555  15.074  0.00  0.00    +0.219 C 
ENDROOT
BRANCH  17  13
ATOM     10  N   UNL     1      -4.054 -15.920  11.721  0.00  0.00    -0.316 NA
ATOM     13  C   UNL     1      -5.773 -15.214  13.992  0.00  0.00    +0.078 C 
ATOM     18  C   UNL     1      -5.731 -14.389  12.704  0.00  0.00    +0.028 C 
ATOM     19  C   UNL     1      -5.286 -16.643  13.742  0.00  0.00    +0.028 C 
ATOM     20  C   UNL     1      -4.394 -14.519  11.974  0.00  0.00    +0.081 C 
ATOM     21  C   UNL     1      -3.966 -16.679  12.968  0.00  0.00    +0.081 C 
ATOM     33  H   UNL     1      -3.161 -15.968  11.233  0.00  0.00    +0.122 HD
ENDBRANCH  17  13
BRANCH  12  22
ATOM      5  O   UNL     1      -4.794 -10.469  16.706  0.00  0.00    -0.274 OA
ATOM     11  N   UNL     1      -4.042 -11.743  14.908  0.00  0.00    -0.301 N 
ATOM     22  C   UNL     1      -4.568 -11.553  16.175  0.00  0.00    +0.236 C 
ATOM     34  H   UNL     1      -3.921 -12.688  14.556  0.00  0.00    +0.150 HD
BRANCH  11  24
ATOM     24  C   UNL     1      -3.680 -10.652  14.032  0.00  0.00    +0.179 C 
ATOM     27  C   UNL     1      -4.500 -10.710  12.752  0.00  0.00    +0.040 C 
BRANCH  24  28
ATOM      7  O   UNL     1      -1.751 -10.262  12.633  0.00  0.00    -0.249 OA
ATOM     28  C   UNL     1      -2.194 -10.654  13.708  0.00  0.00    +0.327 C 
BRANCH  28   6
ATOM      6  O   UNL     1      -1.441 -11.126  14.741  0.00  0.00    -0.467 OA
ATOM     32  C   UNL     1      -0.994 -10.147  15.684  0.00  0.00    +0.280 C 
ENDBRANCH  28   6
ENDBRANCH  24  28
ENDBRANCH  11  24
ENDBRANCH  12  22
BRANCH   9   1
ATOM      1  S   UNL     1      -7.834 -11.623  19.341  0.00  0.00    +0.061 S 
ATOM      3  O   UNL     1      -6.897 -10.923  20.193  0.00  0.00    -0.153 OA
ATOM      4  O   UNL     1      -8.673 -12.680  19.866  0.00  0.00    -0.153 OA
BRANCH   1  23
ATOM     23  C   UNL     1      -8.883 -10.419  18.588  0.00  0.00    +0.105 A 
ATOM     25  C   UNL     1      -8.358  -9.521  17.658  0.00  0.00    +0.028 A 
ATOM     26  C   UNL     1     -10.236 -10.364  18.923  0.00  0.00    +0.028 A 
ATOM     29  C   UNL     1      -9.187  -8.569  17.064  0.00  0.00    +0.002 A 
ATOM     30  C   UNL     1     -11.064  -9.412  18.329  0.00  0.00    +0.002 A 
ATOM     31  C   UNL     1     -10.539  -8.515  17.399  0.00  0.00    +0.000 A 
ENDBRANCH   1  23
ENDBRANCH   9   1
TORSDOF 7
ENDMDL
MODEL 8
REMARK VINA RESULT:      -4.8      2.415      7.705
REMARK  Name = 7664036
REMARK  9 active torsions:
REMARK  status: ('A' for Active; 'I' for Inactive)
REMARK    1  A    between atoms: S_1  and  N_9
REMARK    2  A    between atoms: S_1  and  C_23
REMARK    3  A    between atoms: O_6  and  C_28
REMARK    4  A    between atoms: O_6  and  C_32
REMARK    5  A    between atoms: N_11  and  C_24
REMARK    6  A    between atoms: C_12  and  C_22
REMARK    7  A    between atoms: C_13  and  C_17
REMARK    8  A    between atoms: C_24  and  C_27
REMARK    9  A    between atoms: C_24  and  C_28
REMARK                            x       y       z     vdW  Elec       q    Type
REMARK                         _______ _______ _______ _____ _____    ______ ____
ROOT
ATOM      2  O   UNL     1      -6.511 -11.577   9.907  0.00  0.00    -0.275 OA
ATOM      8  N   UNL     1      -6.837 -10.669  12.025  0.00  0.00    -0.287 N 
ATOM      9  N   UNL     1      -7.510 -11.019  14.782  0.00  0.00    -0.173 NA
ATOM     12  C   UNL     1      -6.499 -11.925  12.704  0.00  0.00    +0.177 C 
ATOM     14  C   UNL     1      -7.391 -12.222  13.906  0.00  0.00    +0.141 C 
ATOM     15  C   UNL     1      -7.099  -9.509  12.891  0.00  0.00    +0.125 C 
ATOM     16  C   UNL     1      -8.050  -9.853  14.028  0.00  0.00    +0.128 C 
ATOM     17  C   UNL     1      -6.731 -10.602  10.631  0.00  0.00    +0.219 C 
ENDROOT
BRANCH  17  13
ATOM     10  N   UNL     1      -5.637  -9.171   7.361  0.00  0.00    -0.316 NA
ATOM     13  C   UNL     1      -6.903  -9.247  10.006  0.00  0.00    +0.078 C 
ATOM     18  C   UNL     1      -5.546  -8.583   9.762  0.00  0.00    +0.028 C 
ATOM     19  C   UNL     1      -7.706  -9.344   8.706  0.00  0.00    +0.028 C 
ATOM     20  C   UNL     1      -4.810  -9.191   8.567  0.00  0.00    +0.081 C 
ATOM     21  C   UNL     1      -6.878  -9.919   7.555  0.00  0.00    +0.081 C 
ATOM     33  H   UNL     1      -5.114  -9.580   6.587  0.00  0.00    +0.122 HD
ENDBRANCH  17  13
BRANCH  12  22
ATOM      5  O   UNL     1      -4.207 -11.356  12.334  0.00  0.00    -0.274 OA
ATOM     11  N   UNL     1      -4.811 -12.349  14.352  0.00  0.00    -0.301 N 
ATOM     22  C   UNL     1      -5.051 -11.829  13.091  0.00  0.00    +0.236 C 
ATOM     34  H   UNL     1      -5.582 -12.741  14.884  0.00  0.00    +0.150 HD
BRANCH  11  24
ATOM     24  C   UNL     1      -3.496 -12.397  14.949  0.00  0.00    +0.179 C 
ATOM     27  C   UNL     1      -2.998 -10.990  15.243  0.00  0.00    +0.040 C 
BRANCH  24  28
ATOM      7  O   UNL     1      -1.456 -12.627  13.679  0.00  0.00    -0.249 OA
ATOM     28  C   UNL     1      -2.500 -13.138  14.070  0.00  0.00    +0.327 C 
BRANCH  28   6
ATOM      6  O   UNL     1      -2.903 -14.409  13.791  0.00  0.00    -0.467 OA
ATOM     32  C   UNL     1      -2.190 -15.452  14.464  0.00  0.00    +0.280 C 
ENDBRANCH  28   6
ENDBRANCH  24  28
ENDBRANCH  11  24
ENDBRANCH  12  22
BRANCH   9   1
ATOM      1  S   UNL     1      -8.214 -11.295  16.318  0.00  0.00    +0.061 S 
ATOM      3  O   UNL     1      -8.950 -12.541  16.284  0.00  0.00    -0.153 OA
ATOM      4  O   UNL     1      -8.838 -10.072  16.776  0.00  0.00    -0.153 OA
BRANCH   1  23
ATOM     23  C   UNL     1      -6.757 -11.555  17.282  0.00  0.00    +0.105 A 
ATOM     25  C   UNL     1      -6.078 -10.465  17.827  0.00  0.00    +0.028 A 
ATOM     26  C   UNL     1      -6.286 -12.850  17.498  0.00  0.00    +0.028 A 
ATOM     29  C   UNL     1      -4.928 -10.671  18.588  0.00  0.00    +0.002 A 
ATOM     30  C   UNL     1      -5.135 -13.055  18.259  0.00  0.00    +0.002 A 
ATOM     31  C   UNL     1      -4.456 -11.965  18.804  0.00  0.00    +0.000 A 
ENDBRANCH   1  23
ENDBRANCH   9   1
TORSDOF 7
ENDMDL
MODEL 9
REMARK VINA RESULT:      -4.8      2.221      4.466
REMARK  Name = 7664036
REMARK  9 active torsions:
REMARK  status: ('A' for Active; 'I' for Inactive)
REMARK    1  A    between atoms: S_1  and  N_9
REMARK    2  A    between atoms: S_1  and  C_23
REMARK    3  A    between atoms: O_6  and  C_28
REMARK    4  A    between atoms: O_6  and  C_32
REMARK    5  A    between atoms: N_11  and  C_24
REMARK    6  A    between atoms: C_12  and  C_22
REMARK    7  A    between atoms: C_13  and  C_17
REMARK    8  A    between atoms: C_24  and  C_27
REMARK    9  A    between atoms: C_24  and  C_28
REMARK                            x       y       z     vdW  Elec       q    Type
REMARK                         _______ _______ _______ _____ _____    ______ ____
ROOT
ATOM      2  O   UNL     1      -8.282  -8.913  16.462  0.00  0.00    -0.275 OA
ATOM      8  N   UNL     1      -7.727 -10.687  15.062  0.00  0.00    -0.287 N 
ATOM      9  N   UNL     1      -6.431 -11.657  12.705  0.00  0.00    -0.173 NA
ATOM     12  C   UNL     1      -6.510 -10.029  14.576  0.00  0.00    +0.177 C 
ATOM     14  C   UNL     1      -6.272 -10.222  13.082  0.00  0.00    +0.141 C 
ATOM     15  C   UNL     1      -7.966 -12.056  14.578  0.00  0.00    +0.125 C 
ATOM     16  C   UNL     1      -7.783 -12.165  13.071  0.00  0.00    +0.128 C 
ATOM     17  C   UNL     1      -8.485 -10.061  16.058  0.00  0.00    +0.219 C 
ENDROOT
BRANCH  17  13
ATOM     10  N   UNL     1     -10.216  -9.918  19.363  0.00  0.00    -0.316 NA
ATOM     13  C   UNL     1      -9.610 -10.860  16.652  0.00  0.00    +0.078 C 
ATOM     18  C   UNL     1      -9.147 -11.606  17.904  0.00  0.00    +0.028 C 
ATOM     19  C   UNL     1     -10.811  -9.963  16.962  0.00  0.00    +0.028 C 
ATOM     20  C   UNL     1      -8.991 -10.676  19.109  0.00  0.00    +0.081 C 
ATOM     21  C   UNL     1     -10.586  -9.103  18.207  0.00  0.00    +0.081 C 
ATOM     33  H   UNL     1     -10.076  -9.313  20.172  0.00  0.00    +0.122 HD
ENDBRANCH  17  13
BRANCH  12  22
ATOM      5  O   UNL     1      -5.497 -10.813  16.595  0.00  0.00    -0.274 OA
ATOM     11  N   UNL     1      -4.213 -10.713  14.655  0.00  0.00    -0.301 N 
ATOM     22  C   UNL     1      -5.373 -10.567  15.398  0.00  0.00    +0.236 C 
ATOM     34  H   UNL     1      -4.215 -10.453  13.673  0.00  0.00    +0.150 HD
BRANCH  11  24
ATOM     24  C   UNL     1      -2.971 -11.191  15.216  0.00  0.00    +0.179 C 
ATOM     27  C   UNL     1      -1.821 -10.286  14.802  0.00  0.00    +0.040 C 
BRANCH  24  28
ATOM      7  O   UNL     1      -3.537 -13.509  14.845  0.00  0.00    -0.249 OA
ATOM     28  C   UNL     1      -2.682 -12.629  14.812  0.00  0.00    +0.327 C 
BRANCH  28   6
ATOM      6  O   UNL     1      -1.392 -12.805  14.412  0.00  0.00    -0.467 OA
ATOM     32  C   UNL     1      -1.193 -13.730  13.339  0.00  0.00    +0.280 C 
ENDBRANCH  28   6
ENDBRANCH  24  28
ENDBRANCH  11  24
ENDBRANCH  12  22
BRANCH   9   1
ATOM      1  S   UNL     1      -5.888 -12.071  11.135  0.00  0.00    +0.061 S 
ATOM      3  O   UNL     1      -6.898 -11.690  10.170  0.00  0.00    -0.153 OA
ATOM      4  O   UNL     1      -5.351 -13.415  11.162  0.00  0.00    -0.153 OA
BRANCH   1  23
ATOM     23  C   UNL     1      -4.535 -10.948  10.971  0.00  0.00    +0.105 A 
ATOM     25  C   UNL     1      -4.716  -9.732  10.311  0.00  0.00    +0.028 A 
ATOM     26  C   UNL     1      -3.288 -11.276  11.501  0.00  0.00    +0.028 A 
ATOM     29  C   UNL     1      -3.647  -8.845  10.181  0.00  0.00    +0.002 A 
ATOM     30  C   UNL     1      -2.219 -10.388  11.371  0.00  0.00    +0.002 A 
ATOM     31  C   UNL     1      -2.399  -9.173  10.711  0.00  0.00    +0.000 A 
ENDBRANCH   1  23
ENDBRANCH   9   1
TORSDOF 7
ENDMDL
MODEL 10
REMARK VINA RESULT:      -4.8      2.685      7.267
REMARK  Name = 7664036
REMARK  9 active torsions:
REMARK  status: ('A' for Active; 'I' for Inactive)
REMARK    1  A    between atoms: S_1  and  N_9
REMARK    2  A    between atoms: S_1  and  C_23
REMARK    3  A    between atoms: O_6  and  C_28
REMARK    4  A    between atoms: O_6  and  C_32
REMARK    5  A    between atoms: N_11  and  C_24
REMARK    6  A    between atoms: C_12  and  C_22
REMARK    7  A    between atoms: C_13  and  C_17
REMARK    8  A    between atoms: C_24  and  C_27
REMARK    9  A    between atoms: C_24  and  C_28
REMARK                            x       y       z     vdW  Elec       q    Type
REMARK                         _______ _______ _______ _____ _____    ______ ____
ROOT
ATOM      2  O   UNL     1      -5.409  -8.696  11.760  0.00  0.00    -0.275 OA
ATOM      8  N   UNL     1      -5.542 -10.635  13.041  0.00  0.00    -0.287 N 
ATOM      9  N   UNL     1      -5.427 -11.916  15.594  0.00  0.00    -0.173 NA
ATOM     12  C   UNL     1      -5.972  -9.909  14.241  0.00  0.00    +0.177 C 
ATOM     14  C   UNL     1      -5.332 -10.428  15.525  0.00  0.00    +0.141 C 
ATOM     15  C   UNL     1      -5.494 -12.102  13.148  0.00  0.00    +0.125 C 
ATOM     16  C   UNL     1      -4.780 -12.554  14.414  0.00  0.00    +0.128 C 
ATOM     17  C   UNL     1      -5.368  -9.927  11.846  0.00  0.00    +0.219 C 
ENDROOT
BRANCH  17  13
ATOM     10  N   UNL     1      -5.093  -9.020   8.235  0.00  0.00    -0.316 NA
ATOM     13  C   UNL     1      -5.114 -10.742  10.610  0.00  0.00    +0.078 C 
ATOM     18  C   UNL     1      -6.299 -10.655   9.647  0.00  0.00    +0.028 C 
ATOM     19  C   UNL     1      -3.818 -10.302   9.924  0.00  0.00    +0.028 C 
ATOM     20  C   UNL     1      -6.355  -9.313   8.915  0.00  0.00    +0.081 C 
ATOM     21  C   UNL     1      -3.978  -8.975   9.180  0.00  0.00    +0.081 C 
ATOM     33  H   UNL     1      -5.168  -8.123   7.757  0.00  0.00    +0.122 HD
ENDBRANCH  17  13
BRANCH  12  22
ATOM      5  O   UNL     1      -8.149 -10.049  13.263  0.00  0.00    -0.274 OA
ATOM     11  N   UNL     1      -7.957  -9.997  15.582  0.00  0.00    -0.301 N 
ATOM     22  C   UNL     1      -7.471 -10.001  14.286  0.00  0.00    +0.236 C 
ATOM     34  H   UNL     1      -7.305  -9.927  16.358  0.00  0.00    +0.150 HD
BRANCH  11  24
ATOM     24  C   UNL     1      -9.366 -10.054  15.898  0.00  0.00    +0.179 C 
ATOM     27  C   UNL     1      -9.974 -11.345  15.370  0.00  0.00    +0.040 C 
BRANCH  24  28
ATOM      7  O   UNL     1     -10.940  -8.944  14.442  0.00  0.00    -0.249 OA
ATOM     28  C   UNL     1     -10.119  -8.852  15.350  0.00  0.00    +0.327 C 
BRANCH  28   6
ATOM      6  O   UNL     1      -9.780  -7.695  15.985  0.00  0.00    -0.467 OA
ATOM     32  C   UNL     1     -10.868  -6.830  16.327  0.00  0.00    +0.280 C 
ENDBRANCH  28   6
ENDBRANCH  24  28
ENDBRANCH  11  24
ENDBRANCH  12  22
BRANCH   9   1
ATOM      1  S   UNL     1      -5.038 -12.608  17.112  0.00  0.00    +0.061 S 
ATOM      3  O   UNL     1      -4.072 -11.765  17.782  0.00  0.00    -0.153 OA
ATOM      4  O   UNL     1      -4.797 -14.024  16.935  0.00  0.00    -0.153 OA
BRANCH   1  23
ATOM     23  C   UNL     1      -6.585 -12.419  17.942  0.00  0.00    +0.105 A 
ATOM     25  C   UNL     1      -6.812 -11.303  18.748  0.00  0.00    +0.028 A 
ATOM     26  C   UNL     1      -7.580 -13.385  17.792  0.00  0.00    +0.028 A 
ATOM     29  C   UNL     1      -8.034 -11.154  19.404  0.00  0.00    +0.002 A 
ATOM     30  C   UNL     1      -8.802 -13.235  18.448  0.00  0.00    +0.002 A 
ATOM     31  C   UNL     1      -9.028 -12.120  19.254  0.00  0.00    +0.000 A 
ENDBRANCH   1  23
ENDBRANCH   9   1
TORSDOF 7
ENDMDL
