MODEL 1
REMARK VINA RESULT:      -7.9      0.000      0.000
REMARK  Name = 75536259
REMARK  8 active torsions:
REMARK  status: ('A' for Active; 'I' for Inactive)
REMARK    1  A    between atoms: O_3  and  C_10
REMARK    2  A    between atoms: N_5  and  C_9
REMARK    3  A    between atoms: N_5  and  C_11
REMARK    4  A    between atoms: N_6  and  C_20
REMARK    5  A    between atoms: C_8  and  C_11
REMARK    6  A    between atoms: C_12  and  C_19
REMARK    7  A    between atoms: C_19  and  C_21
REMARK    8  A    between atoms: C_23  and  C_24
REMARK                            x       y       z     vdW  Elec       q    Type
REMARK                         _______ _______ _______ _____ _____    ______ ____
ROOT
ATOM      2  O   UNL     1      10.686   8.281  19.737  0.00  0.00    -0.369 OA
ATOM      8  C   UNL     1      10.890   8.132  21.148  0.00  0.00    +0.161 C 
ATOM     10  C   UNL     1      11.696   6.865  21.465  0.00  0.00    +0.145 C 
ATOM     12  C   UNL     1      11.877   8.280  18.946  0.00  0.00    +0.125 C 
ATOM     13  C   UNL     1      12.962   6.754  20.621  0.00  0.00    +0.036 C 
ATOM     14  C   UNL     1      12.653   6.979  19.143  0.00  0.00    +0.034 C 
ENDROOT
BRANCH  10   3
ATOM      3  O   UNL     1      10.884   5.722  21.186  0.00  0.00    -0.389 OA
ATOM     31  H   UNL     1      11.443   5.067  20.735  0.00  0.00    +0.210 HD
ENDBRANCH  10   3
BRANCH   8  11
ATOM     11  C   UNL     1      11.503   9.394  21.751  0.00  0.00    +0.115 C 
BRANCH  11   5
ATOM      5  N   UNL     1      11.208   9.486  23.172  0.00  0.00    -0.311 NA
ATOM     30  H   UNL     1      12.056   9.278  23.699  0.00  0.00    +0.122 HD
BRANCH   5   9
ATOM      6  N   UNL     1      11.298  13.599  24.240  0.00  0.00    -0.305 NA
ATOM      9  C   UNL     1      10.725  10.820  23.522  0.00  0.00    +0.056 C 
ATOM     15  C   UNL     1      11.211  11.846  22.495  0.00  0.00    +0.034 C 
ATOM     16  C   UNL     1      11.195  11.223  24.924  0.00  0.00    +0.034 C 
ATOM     17  C   UNL     1      10.800  13.264  22.898  0.00  0.00    +0.085 C 
ATOM     18  C   UNL     1      10.785  12.661  25.248  0.00  0.00    +0.085 C 
ATOM     20  C   UNL     1      10.939  14.973  24.590  0.00  0.00    +0.104 C 
ENDBRANCH   5   9
ENDBRANCH  11   5
ENDBRANCH   8  11
BRANCH  12  19
ATOM     19  C   UNL     1      11.461   8.449  17.490  0.00  0.00    +0.090 C 
BRANCH  19  21
ATOM      4  O   UNL     1      13.540   9.952  14.957  0.00  0.00    -0.354 OA
ATOM      7  N   UNL     1      12.458   9.178  15.361  0.00  0.00    -0.083 NA
ATOM     21  C   UNL     1      12.501   9.195  16.696  0.00  0.00    +0.087 A 
ATOM     22  C   UNL     1      13.576   9.954  17.187  0.00  0.00    +0.076 A 
ATOM     23  C   UNL     1      14.198  10.408  16.054  0.00  0.00    +0.167 A 
BRANCH  23  24
ATOM      1  F   UNL     1      18.646  13.593  15.044  0.00  0.00    -0.205 F 
ATOM     24  C   UNL     1      15.345  11.228  15.794  0.00  0.00    +0.020 A 
ATOM     25  C   UNL     1      15.769  12.157  16.744  0.00  0.00    +0.014 A 
ATOM     26  C   UNL     1      16.037  11.099  14.589  0.00  0.00    +0.014 A 
ATOM     27  C   UNL     1      16.884  12.956  16.491  0.00  0.00    +0.039 A 
ATOM     28  C   UNL     1      17.152  11.897  14.336  0.00  0.00    +0.039 A 
ATOM     29  C   UNL     1      17.576  12.826  15.287  0.00  0.00    +0.123 A 
ENDBRANCH  23  24
ENDBRANCH  19  21
ENDBRANCH  12  19
TORSDOF 7
ENDMDL
MODEL 2
REMARK VINA RESULT:      -7.6      2.055      2.851
REMARK  Name = 75536259
REMARK  8 active torsions:
REMARK  status: ('A' for Active; 'I' for Inactive)
REMARK    1  A    between atoms: O_3  and  C_10
REMARK    2  A    between atoms: N_5  and  C_9
REMARK    3  A    between atoms: N_5  and  C_11
REMARK    4  A    between atoms: N_6  and  C_20
REMARK    5  A    between atoms: C_8  and  C_11
REMARK    6  A    between atoms: C_12  and  C_19
REMARK    7  A    between atoms: C_19  and  C_21
REMARK    8  A    between atoms: C_23  and  C_24
REMARK                            x       y       z     vdW  Elec       q    Type
REMARK                         _______ _______ _______ _____ _____    ______ ____
ROOT
ATOM      2  O   UNL     1      10.568   8.279  19.636  0.00  0.00    -0.369 OA
ATOM      8  C   UNL     1      10.724   8.173  21.057  0.00  0.00    +0.161 C 
ATOM     10  C   UNL     1      11.582   6.958  21.436  0.00  0.00    +0.145 C 
ATOM     12  C   UNL     1      11.788   8.323  18.892  0.00  0.00    +0.125 C 
ATOM     13  C   UNL     1      12.884   6.895  20.643  0.00  0.00    +0.036 C 
ATOM     14  C   UNL     1      12.622   7.070  19.150  0.00  0.00    +0.034 C 
ENDROOT
BRANCH  10   3
ATOM      3  O   UNL     1      10.841   5.767  21.155  0.00  0.00    -0.389 OA
ATOM     31  H   UNL     1      11.405   5.009  21.384  0.00  0.00    +0.210 HD
ENDBRANCH  10   3
BRANCH   8  11
ATOM     11  C   UNL     1      11.246   9.479  21.652  0.00  0.00    +0.115 C 
BRANCH  11   5
ATOM      5  N   UNL     1      12.311   9.224  22.609  0.00  0.00    -0.311 NA
ATOM     30  H   UNL     1      12.593   8.246  22.537  0.00  0.00    +0.122 HD
BRANCH   5   9
ATOM      6  N   UNL     1      15.725  10.835  20.654  0.00  0.00    -0.305 NA
ATOM      9  C   UNL     1      13.463  10.088  22.354  0.00  0.00    +0.056 C 
ATOM     15  C   UNL     1      13.279  10.841  21.034  0.00  0.00    +0.034 C 
ATOM     16  C   UNL     1      14.760   9.273  22.314  0.00  0.00    +0.034 C 
ATOM     17  C   UNL     1      14.519  11.674  20.700  0.00  0.00    +0.085 C 
ATOM     18  C   UNL     1      15.951  10.157  21.938  0.00  0.00    +0.085 C 
ATOM     20  C   UNL     1      16.892  11.636  20.286  0.00  0.00    +0.104 C 
ENDBRANCH   5   9
ENDBRANCH  11   5
ENDBRANCH   8  11
BRANCH  12  19
ATOM     19  C   UNL     1      11.421   8.437  17.417  0.00  0.00    +0.090 C 
BRANCH  19  21
ATOM      4  O   UNL     1      13.455  10.070  14.930  0.00  0.00    -0.354 OA
ATOM      7  N   UNL     1      12.368   9.294  15.313  0.00  0.00    -0.083 NA
ATOM     21  C   UNL     1      12.453   9.215  16.644  0.00  0.00    +0.087 A 
ATOM     22  C   UNL     1      13.560   9.914  17.152  0.00  0.00    +0.076 A 
ATOM     23  C   UNL     1      14.157  10.434  16.034  0.00  0.00    +0.167 A 
BRANCH  23  24
ATOM      1  F   UNL     1      18.654  13.577  15.111  0.00  0.00    -0.205 F 
ATOM     24  C   UNL     1      15.315  11.245  15.795  0.00  0.00    +0.020 A 
ATOM     25  C   UNL     1      16.035  11.102  14.609  0.00  0.00    +0.014 A 
ATOM     26  C   UNL     1      15.724  12.176  16.751  0.00  0.00    +0.014 A 
ATOM     27  C   UNL     1      17.163  11.890  14.378  0.00  0.00    +0.039 A 
ATOM     28  C   UNL     1      16.851  12.964  16.520  0.00  0.00    +0.039 A 
ATOM     29  C   UNL     1      17.571  12.821  15.333  0.00  0.00    +0.123 A 
ENDBRANCH  23  24
ENDBRANCH  19  21
ENDBRANCH  12  19
TORSDOF 7
ENDMDL
MODEL 3
REMARK VINA RESULT:      -7.2      4.775      5.738
REMARK  Name = 75536259
REMARK  8 active torsions:
REMARK  status: ('A' for Active; 'I' for Inactive)
REMARK    1  A    between atoms: O_3  and  C_10
REMARK    2  A    between atoms: N_5  and  C_9
REMARK    3  A    between atoms: N_5  and  C_11
REMARK    4  A    between atoms: N_6  and  C_20
REMARK    5  A    between atoms: C_8  and  C_11
REMARK    6  A    between atoms: C_12  and  C_19
REMARK    7  A    between atoms: C_19  and  C_21
REMARK    8  A    between atoms: C_23  and  C_24
REMARK                            x       y       z     vdW  Elec       q    Type
REMARK                         _______ _______ _______ _____ _____    ______ ____
ROOT
ATOM      2  O   UNL     1      13.226   8.919  19.492  0.00  0.00    -0.369 OA
ATOM      8  C   UNL     1      12.352   9.438  20.503  0.00  0.00    +0.161 C 
ATOM     10  C   UNL     1      11.203   8.467  20.802  0.00  0.00    +0.145 C 
ATOM     12  C   UNL     1      13.771   7.626  19.765  0.00  0.00    +0.125 C 
ATOM     13  C   UNL     1      11.694   7.044  21.050  0.00  0.00    +0.036 C 
ATOM     14  C   UNL     1      12.657   6.599  19.953  0.00  0.00    +0.034 C 
ENDROOT
BRANCH  10   3
ATOM      3  O   UNL     1      10.324   8.434  19.674  0.00  0.00    -0.389 OA
ATOM     31  H   UNL     1      10.830   8.093  18.917  0.00  0.00    +0.210 HD
ENDBRANCH  10   3
BRANCH   8  11
ATOM     11  C   UNL     1      13.134   9.838  21.752  0.00  0.00    +0.115 C 
BRANCH  11   5
ATOM      5  N   UNL     1      13.400  11.268  21.762  0.00  0.00    -0.311 NA
ATOM     30  H   UNL     1      12.866  11.709  21.012  0.00  0.00    +0.122 HD
BRANCH   5   9
ATOM      6  N   UNL     1      11.050  13.244  24.702  0.00  0.00    -0.305 NA
ATOM      9  C   UNL     1      13.027  11.862  23.045  0.00  0.00    +0.056 C 
ATOM     15  C   UNL     1      11.803  11.148  23.624  0.00  0.00    +0.034 C 
ATOM     16  C   UNL     1      12.734  13.358  22.892  0.00  0.00    +0.034 C 
ATOM     17  C   UNL     1      11.336  11.818  24.918  0.00  0.00    +0.085 C 
ATOM     18  C   UNL     1      12.237  13.957  24.209  0.00  0.00    +0.085 C 
ATOM     20  C   UNL     1      10.559  13.859  25.935  0.00  0.00    +0.104 C 
ENDBRANCH   5   9
ENDBRANCH  11   5
ENDBRANCH   8  11
BRANCH  12  19
ATOM     19  C   UNL     1      14.666   7.248  18.591  0.00  0.00    +0.090 C 
BRANCH  19  21
ATOM      4  O   UNL     1      17.778   5.490  19.057  0.00  0.00    -0.354 OA
ATOM      7  N   UNL     1      16.592   5.731  18.374  0.00  0.00    -0.083 NA
ATOM     21  C   UNL     1      15.997   6.717  19.052  0.00  0.00    +0.087 A 
ATOM     22  C   UNL     1      16.752   7.135  20.160  0.00  0.00    +0.076 A 
ATOM     23  C   UNL     1      17.862   6.333  20.119  0.00  0.00    +0.167 A 
BRANCH  23  24
ATOM      1  F   UNL     1      22.439   5.830  23.242  0.00  0.00    -0.205 F 
ATOM     24  C   UNL     1      19.041   6.202  20.925  0.00  0.00    +0.020 A 
ATOM     25  C   UNL     1      19.148   6.905  22.124  0.00  0.00    +0.014 A 
ATOM     26  C   UNL     1      20.083   5.372  20.507  0.00  0.00    +0.014 A 
ATOM     27  C   UNL     1      20.296   6.780  22.907  0.00  0.00    +0.039 A 
ATOM     28  C   UNL     1      21.230   5.246  21.290  0.00  0.00    +0.039 A 
ATOM     29  C   UNL     1      21.336   5.950  22.491  0.00  0.00    +0.123 A 
ENDBRANCH  23  24
ENDBRANCH  19  21
ENDBRANCH  12  19
TORSDOF 7
ENDMDL
MODEL 4
REMARK VINA RESULT:      -7.0     15.052     19.997
REMARK  Name = 75536259
REMARK  8 active torsions:
REMARK  status: ('A' for Active; 'I' for Inactive)
REMARK    1  A    between atoms: O_3  and  C_10
REMARK    2  A    between atoms: N_5  and  C_9
REMARK    3  A    between atoms: N_5  and  C_11
REMARK    4  A    between atoms: N_6  and  C_20
REMARK    5  A    between atoms: C_8  and  C_11
REMARK    6  A    between atoms: C_12  and  C_19
REMARK    7  A    between atoms: C_19  and  C_21
REMARK    8  A    between atoms: C_23  and  C_24
REMARK                            x       y       z     vdW  Elec       q    Type
REMARK                         _______ _______ _______ _____ _____    ______ ____
ROOT
ATOM      2  O   UNL     1      13.127   6.135   1.127  0.00  0.00    -0.369 OA
ATOM      8  C   UNL     1      14.256   5.463   0.554  0.00  0.00    +0.161 C 
ATOM     10  C   UNL     1      14.559   4.151   1.291  0.00  0.00    +0.145 C 
ATOM     12  C   UNL     1      11.930   5.358   1.201  0.00  0.00    +0.125 C 
ATOM     13  C   UNL     1      13.318   3.282   1.465  0.00  0.00    +0.036 C 
ATOM     14  C   UNL     1      12.156   4.095   2.030  0.00  0.00    +0.034 C 
ENDROOT
BRANCH  10   3
ATOM      3  O   UNL     1      15.061   4.462   2.594  0.00  0.00    -0.389 OA
ATOM     31  H   UNL     1      15.371   3.632   2.995  0.00  0.00    +0.210 HD
ENDBRANCH  10   3
BRANCH   8  11
ATOM     11  C   UNL     1      14.077   5.273  -0.951  0.00  0.00    +0.115 C 
BRANCH  11   5
ATOM      5  N   UNL     1      14.099   3.861  -1.301  0.00  0.00    -0.311 NA
ATOM     30  H   UNL     1      13.948   3.309  -0.457  0.00  0.00    +0.122 HD
BRANCH   5   9
ATOM      6  N   UNL     1      10.231   3.402  -3.002  0.00  0.00    -0.305 NA
ATOM      9  C   UNL     1      13.064   3.550  -2.286  0.00  0.00    +0.056 C 
ATOM     15  C   UNL     1      12.233   4.798  -2.595  0.00  0.00    +0.034 C 
ATOM     16  C   UNL     1      12.152   2.426  -1.784  0.00  0.00    +0.034 C 
ATOM     17  C   UNL     1      11.082   4.469  -3.548  0.00  0.00    +0.085 C 
ATOM     18  C   UNL     1      11.003   2.175  -2.763  0.00  0.00    +0.085 C 
ATOM     20  C   UNL     1       9.108   3.133  -3.901  0.00  0.00    +0.104 C 
ENDBRANCH   5   9
ENDBRANCH  11   5
ENDBRANCH   8  11
BRANCH  12  19
ATOM     19  C   UNL     1      10.853   6.234   1.830  0.00  0.00    +0.090 C 
BRANCH  19  21
ATOM      4  O   UNL     1      11.658   6.440   5.338  0.00  0.00    -0.354 OA
ATOM      7  N   UNL     1      11.946   6.654   3.995  0.00  0.00    -0.083 NA
ATOM     21  C   UNL     1      10.890   6.170   3.334  0.00  0.00    +0.087 A 
ATOM     22  C   UNL     1       9.915   5.644   4.196  0.00  0.00    +0.076 A 
ATOM     23  C   UNL     1      10.445   5.837   5.445  0.00  0.00    +0.167 A 
BRANCH  23  24
ATOM      1  F   UNL     1       8.746   4.728  10.625  0.00  0.00    -0.205 F 
ATOM     24  C   UNL     1      10.009   5.551   6.780  0.00  0.00    +0.020 A 
ATOM     25  C   UNL     1      10.051   4.244   7.264  0.00  0.00    +0.014 A 
ATOM     26  C   UNL     1       9.538   6.581   7.596  0.00  0.00    +0.014 A 
ATOM     27  C   UNL     1       9.625   3.966   8.562  0.00  0.00    +0.039 A 
ATOM     28  C   UNL     1       9.112   6.303   8.894  0.00  0.00    +0.039 A 
ATOM     29  C   UNL     1       9.156   4.995   9.378  0.00  0.00    +0.123 A 
ENDBRANCH  23  24
ENDBRANCH  19  21
ENDBRANCH  12  19
TORSDOF 7
ENDMDL
MODEL 5
REMARK VINA RESULT:      -6.9     27.363     29.609
REMARK  Name = 75536259
REMARK  8 active torsions:
REMARK  status: ('A' for Active; 'I' for Inactive)
REMARK    1  A    between atoms: O_3  and  C_10
REMARK    2  A    between atoms: N_5  and  C_9
REMARK    3  A    between atoms: N_5  and  C_11
REMARK    4  A    between atoms: N_6  and  C_20
REMARK    5  A    between atoms: C_8  and  C_11
REMARK    6  A    between atoms: C_12  and  C_19
REMARK    7  A    between atoms: C_19  and  C_21
REMARK    8  A    between atoms: C_23  and  C_24
REMARK                            x       y       z     vdW  Elec       q    Type
REMARK                         _______ _______ _______ _____ _____    ______ ____
ROOT
ATOM      2  O   UNL     1     -17.377   3.652  26.685  0.00  0.00    -0.369 OA
ATOM      8  C   UNL     1     -17.045   2.772  27.766  0.00  0.00    +0.161 C 
ATOM     10  C   UNL     1     -17.370   1.313  27.420  0.00  0.00    +0.145 C 
ATOM     12  C   UNL     1     -16.773   3.328  25.430  0.00  0.00    +0.125 C 
ATOM     13  C   UNL     1     -16.808   0.898  26.063  0.00  0.00    +0.036 C 
ATOM     14  C   UNL     1     -17.168   1.920  24.989  0.00  0.00    +0.034 C 
ENDROOT
BRANCH  10   3
ATOM      3  O   UNL     1     -18.791   1.157  27.371  0.00  0.00    -0.389 OA
ATOM     31  H   UNL     1     -19.187   1.942  27.786  0.00  0.00    +0.210 HD
ENDBRANCH  10   3
BRANCH   8  11
ATOM     11  C   UNL     1     -15.598   2.971  28.212  0.00  0.00    +0.115 C 
BRANCH  11   5
ATOM      5  N   UNL     1     -15.469   4.156  29.045  0.00  0.00    -0.311 NA
ATOM     30  H   UNL     1     -16.384   4.600  29.131  0.00  0.00    +0.122 HD
BRANCH   5   9
ATOM      6  N   UNL     1     -14.897   1.970  32.644  0.00  0.00    -0.305 NA
ATOM      9  C   UNL     1     -14.962   3.812  30.372  0.00  0.00    +0.056 C 
ATOM     15  C   UNL     1     -14.209   2.480  30.323  0.00  0.00    +0.034 C 
ATOM     16  C   UNL     1     -16.104   3.729  31.390  0.00  0.00    +0.034 C 
ATOM     17  C   UNL     1     -13.757   2.053  31.721  0.00  0.00    +0.085 C 
ATOM     18  C   UNL     1     -15.590   3.261  32.753  0.00  0.00    +0.085 C 
ATOM     20  C   UNL     1     -14.456   1.513  33.962  0.00  0.00    +0.104 C 
ENDBRANCH   5   9
ENDBRANCH  11   5
ENDBRANCH   8  11
BRANCH  12  19
ATOM     19  C   UNL     1     -17.239   4.365  24.416  0.00  0.00    +0.090 C 
BRANCH  19  21
ATOM      4  O   UNL     1     -14.597   4.576  21.972  0.00  0.00    -0.354 OA
ATOM      7  N   UNL     1     -15.568   3.874  22.676  0.00  0.00    -0.083 NA
ATOM     21  C   UNL     1     -16.126   4.777  23.488  0.00  0.00    +0.087 A 
ATOM     22  C   UNL     1     -15.556   6.052  23.342  0.00  0.00    +0.076 A 
ATOM     23  C   UNL     1     -14.599   5.873  22.378  0.00  0.00    +0.167 A 
BRANCH  23  24
ATOM      1  F   UNL     1     -10.896   9.187  19.877  0.00  0.00    -0.205 F 
ATOM     24  C   UNL     1     -13.644   6.727  21.735  0.00  0.00    +0.020 A 
ATOM     25  C   UNL     1     -13.902   8.092  21.609  0.00  0.00    +0.014 A 
ATOM     26  C   UNL     1     -12.458   6.193  21.232  0.00  0.00    +0.014 A 
ATOM     27  C   UNL     1     -12.974   8.923  20.982  0.00  0.00    +0.039 A 
ATOM     28  C   UNL     1     -11.529   7.024  20.605  0.00  0.00    +0.039 A 
ATOM     29  C   UNL     1     -11.788   8.389  20.480  0.00  0.00    +0.123 A 
ENDBRANCH  23  24
ENDBRANCH  19  21
ENDBRANCH  12  19
TORSDOF 7
ENDMDL
MODEL 6
REMARK VINA RESULT:      -6.9     27.193     29.644
REMARK  Name = 75536259
REMARK  8 active torsions:
REMARK  status: ('A' for Active; 'I' for Inactive)
REMARK    1  A    between atoms: O_3  and  C_10
REMARK    2  A    between atoms: N_5  and  C_9
REMARK    3  A    between atoms: N_5  and  C_11
REMARK    4  A    between atoms: N_6  and  C_20
REMARK    5  A    between atoms: C_8  and  C_11
REMARK    6  A    between atoms: C_12  and  C_19
REMARK    7  A    between atoms: C_19  and  C_21
REMARK    8  A    between atoms: C_23  and  C_24
REMARK                            x       y       z     vdW  Elec       q    Type
REMARK                         _______ _______ _______ _____ _____    ______ ____
ROOT
ATOM      2  O   UNL     1      -2.279 -11.330  15.715  0.00  0.00    -0.369 OA
ATOM      8  C   UNL     1      -1.929 -11.566  14.345  0.00  0.00    +0.161 C 
ATOM     10  C   UNL     1      -2.556 -12.867  13.825  0.00  0.00    +0.145 C 
ATOM     12  C   UNL     1      -3.681 -11.310  15.990  0.00  0.00    +0.125 C 
ATOM     13  C   UNL     1      -4.049 -12.955  14.128  0.00  0.00    +0.036 C 
ATOM     14  C   UNL     1      -4.327 -12.636  15.595  0.00  0.00    +0.034 C 
ENDROOT
BRANCH  10   3
ATOM      3  O   UNL     1      -1.915 -13.974  14.464  0.00  0.00    -0.389 OA
ATOM     31  H   UNL     1      -2.533 -14.724  14.442  0.00  0.00    +0.210 HD
ENDBRANCH  10   3
BRANCH   8  11
ATOM     11  C   UNL     1      -2.262 -10.355  13.476  0.00  0.00    +0.115 C 
BRANCH  11   5
ATOM      5  N   UNL     1      -2.015 -10.642  12.071  0.00  0.00    -0.311 NA
ATOM     30  H   UNL     1      -1.773 -11.628  11.973  0.00  0.00    +0.122 HD
BRANCH   5   9
ATOM      6  N   UNL     1      -4.457 -10.142   8.629  0.00  0.00    -0.305 NA
ATOM      9  C   UNL     1      -3.194 -10.342  11.261  0.00  0.00    +0.056 C 
ATOM     15  C   UNL     1      -3.616 -11.577  10.461  0.00  0.00    +0.034 C 
ATOM     16  C   UNL     1      -2.922  -9.172  10.310  0.00  0.00    +0.034 C 
ATOM     17  C   UNL     1      -4.787 -11.255   9.530  0.00  0.00    +0.085 C 
ATOM     18  C   UNL     1      -4.116  -8.928   9.384  0.00  0.00    +0.085 C 
ATOM     20  C   UNL     1      -5.568  -9.878   7.713  0.00  0.00    +0.104 C 
ENDBRANCH   5   9
ENDBRANCH  11   5
ENDBRANCH   8  11
BRANCH  12  19
ATOM     19  C   UNL     1      -3.852 -11.047  17.481  0.00  0.00    +0.090 C 
BRANCH  19  21
ATOM      4  O   UNL     1      -7.056 -10.462  19.027  0.00  0.00    -0.354 OA
ATOM      7  N   UNL     1      -5.740 -10.908  19.055  0.00  0.00    -0.083 NA
ATOM     21  C   UNL     1      -5.272 -10.682  17.824  0.00  0.00    +0.087 A 
ATOM     22  C   UNL     1      -6.237 -10.101  16.984  0.00  0.00    +0.076 A 
ATOM     23  C   UNL     1      -7.341  -9.984  17.788  0.00  0.00    +0.167 A 
BRANCH  23  24
ATOM      1  F   UNL     1     -12.505  -8.040  17.084  0.00  0.00    -0.205 F 
ATOM     24  C   UNL     1      -8.672  -9.484  17.606  0.00  0.00    +0.020 A 
ATOM     25  C   UNL     1      -8.905  -8.421  16.733  0.00  0.00    +0.014 A 
ATOM     26  C   UNL     1      -9.735 -10.059  18.304  0.00  0.00    +0.014 A 
ATOM     27  C   UNL     1     -10.199  -7.934  16.556  0.00  0.00    +0.039 A 
ATOM     28  C   UNL     1     -11.030  -9.571  18.127  0.00  0.00    +0.039 A 
ATOM     29  C   UNL     1     -11.262  -8.509  17.253  0.00  0.00    +0.123 A 
ENDBRANCH  23  24
ENDBRANCH  19  21
ENDBRANCH  12  19
TORSDOF 7
ENDMDL
MODEL 7
REMARK VINA RESULT:      -6.8      4.457      7.784
REMARK  Name = 75536259
REMARK  8 active torsions:
REMARK  status: ('A' for Active; 'I' for Inactive)
REMARK    1  A    between atoms: O_3  and  C_10
REMARK    2  A    between atoms: N_5  and  C_9
REMARK    3  A    between atoms: N_5  and  C_11
REMARK    4  A    between atoms: N_6  and  C_20
REMARK    5  A    between atoms: C_8  and  C_11
REMARK    6  A    between atoms: C_12  and  C_19
REMARK    7  A    between atoms: C_19  and  C_21
REMARK    8  A    between atoms: C_23  and  C_24
REMARK                            x       y       z     vdW  Elec       q    Type
REMARK                         _______ _______ _______ _____ _____    ______ ____
ROOT
ATOM      2  O   UNL     1      13.801   8.298  19.345  0.00  0.00    -0.369 OA
ATOM      8  C   UNL     1      13.391   8.725  18.039  0.00  0.00    +0.161 C 
ATOM     10  C   UNL     1      11.947   8.301  17.740  0.00  0.00    +0.145 C 
ATOM     12  C   UNL     1      12.960   8.729  20.417  0.00  0.00    +0.125 C 
ATOM     13  C   UNL     1      10.986   8.673  18.865  0.00  0.00    +0.036 C 
ATOM     14  C   UNL     1      11.532   8.226  20.218  0.00  0.00    +0.034 C 
ENDROOT
BRANCH  10   3
ATOM      3  O   UNL     1      11.908   6.879  17.585  0.00  0.00    -0.389 OA
ATOM     31  H   UNL     1      11.158   6.668  17.004  0.00  0.00    +0.210 HD
ENDBRANCH  10   3
BRANCH   8  11
ATOM     11  C   UNL     1      13.623  10.223  17.853  0.00  0.00    +0.115 C 
BRANCH  11   5
ATOM      5  N   UNL     1      13.113  10.670  16.566  0.00  0.00    -0.311 NA
ATOM     30  H   UNL     1      12.576  11.526  16.704  0.00  0.00    +0.122 HD
BRANCH   5   9
ATOM      6  N   UNL     1      16.005  12.809  14.302  0.00  0.00    -0.305 NA
ATOM      9  C   UNL     1      14.205  10.920  15.628  0.00  0.00    +0.056 C 
ATOM     15  C   UNL     1      15.389  11.567  16.352  0.00  0.00    +0.034 C 
ATOM     16  C   UNL     1      13.743  11.820  14.477  0.00  0.00    +0.034 C 
ATOM     17  C   UNL     1      16.504  11.928  15.368  0.00  0.00    +0.085 C 
ATOM     18  C   UNL     1      14.912  12.174  13.554  0.00  0.00    +0.085 C 
ATOM     20  C   UNL     1      17.092  13.185  13.398  0.00  0.00    +0.104 C 
ENDBRANCH   5   9
ENDBRANCH  11   5
ENDBRANCH   8  11
BRANCH  12  19
ATOM     19  C   UNL     1      13.552   8.185  21.712  0.00  0.00    +0.090 C 
BRANCH  19  21
ATOM      4  O   UNL     1      17.134   8.579  21.636  0.00  0.00    -0.354 OA
ATOM      7  N   UNL     1      15.845   9.076  21.787  0.00  0.00    -0.083 NA
ATOM     21  C   UNL     1      15.046   8.019  21.615  0.00  0.00    +0.087 A 
ATOM     22  C   UNL     1      15.765   6.841  21.355  0.00  0.00    +0.076 A 
ATOM     23  C   UNL     1      17.074   7.247  21.379  0.00  0.00    +0.167 A 
BRANCH  23  24
ATOM      1  F   UNL     1      21.971   4.704  20.675  0.00  0.00    -0.205 F 
ATOM     24  C   UNL     1      18.335   6.590  21.198  0.00  0.00    +0.020 A 
ATOM     25  C   UNL     1      19.373   6.810  22.104  0.00  0.00    +0.014 A 
ATOM     26  C   UNL     1      18.527   5.733  20.114  0.00  0.00    +0.014 A 
ATOM     27  C   UNL     1      20.601   6.173  21.928  0.00  0.00    +0.039 A 
ATOM     28  C   UNL     1      19.755   5.096  19.937  0.00  0.00    +0.039 A 
ATOM     29  C   UNL     1      20.792   5.316  20.845  0.00  0.00    +0.123 A 
ENDBRANCH  23  24
ENDBRANCH  19  21
ENDBRANCH  12  19
TORSDOF 7
ENDMDL
MODEL 8
REMARK VINA RESULT:      -6.8     17.244     20.725
REMARK  Name = 75536259
REMARK  8 active torsions:
REMARK  status: ('A' for Active; 'I' for Inactive)
REMARK    1  A    between atoms: O_3  and  C_10
REMARK    2  A    between atoms: N_5  and  C_9
REMARK    3  A    between atoms: N_5  and  C_11
REMARK    4  A    between atoms: N_6  and  C_20
REMARK    5  A    between atoms: C_8  and  C_11
REMARK    6  A    between atoms: C_12  and  C_19
REMARK    7  A    between atoms: C_19  and  C_21
REMARK    8  A    between atoms: C_23  and  C_24
REMARK                            x       y       z     vdW  Elec       q    Type
REMARK                         _______ _______ _______ _____ _____    ______ ____
ROOT
ATOM      2  O   UNL     1      12.797   2.933   0.657  0.00  0.00    -0.369 OA
ATOM      8  C   UNL     1      13.168   3.705   1.806  0.00  0.00    +0.161 C 
ATOM     10  C   UNL     1      14.616   4.203   1.701  0.00  0.00    +0.145 C 
ATOM     12  C   UNL     1      12.970   3.593  -0.600  0.00  0.00    +0.125 C 
ATOM     13  C   UNL     1      14.905   4.873   0.361  0.00  0.00    +0.036 C 
ATOM     14  C   UNL     1      14.428   4.002  -0.798  0.00  0.00    +0.034 C 
ENDROOT
BRANCH  10   3
ATOM      3  O   UNL     1      15.497   3.084   1.829  0.00  0.00    -0.389 OA
ATOM     31  H   UNL     1      15.658   2.734   0.936  0.00  0.00    +0.210 HD
ENDBRANCH  10   3
BRANCH   8  11
ATOM     11  C   UNL     1      12.167   4.830   2.059  0.00  0.00    +0.115 C 
BRANCH  11   5
ATOM      5  N   UNL     1      12.668   5.753   3.066  0.00  0.00    -0.311 NA
ATOM     30  H   UNL     1      13.059   6.571   2.599  0.00  0.00    +0.122 HD
BRANCH   5   9
ATOM      6  N   UNL     1      10.269   5.940   6.570  0.00  0.00    -0.305 NA
ATOM      9  C   UNL     1      11.600   6.168   3.974  0.00  0.00    +0.056 C 
ATOM     15  C   UNL     1      12.193   6.767   5.252  0.00  0.00    +0.034 C 
ATOM     16  C   UNL     1      10.689   4.987   4.325  0.00  0.00    +0.034 C 
ATOM     17  C   UNL     1      11.093   7.116   6.257  0.00  0.00    +0.085 C 
ATOM     18  C   UNL     1       9.639   5.394   5.361  0.00  0.00    +0.085 C 
ATOM     20  C   UNL     1       9.254   6.278   7.568  0.00  0.00    +0.104 C 
ENDBRANCH   5   9
ENDBRANCH  11   5
ENDBRANCH   8  11
BRANCH  12  19
ATOM     19  C   UNL     1      12.525   2.625  -1.690  0.00  0.00    +0.090 C 
BRANCH  19  21
ATOM      4  O   UNL     1       9.308   2.890  -3.295  0.00  0.00    -0.354 OA
ATOM      7  N   UNL     1      10.360   2.154  -2.764  0.00  0.00    -0.083 NA
ATOM     21  C   UNL     1      11.238   3.066  -2.336  0.00  0.00    +0.087 A 
ATOM     22  C   UNL     1      10.799   4.380  -2.568  0.00  0.00    +0.076 A 
ATOM     23  C   UNL     1       9.581   4.215  -3.173  0.00  0.00    +0.167 A 
BRANCH  23  24
ATOM      1  F   UNL     1       5.687   7.667  -5.139  0.00  0.00    -0.205 F 
ATOM     24  C   UNL     1       8.578   5.105  -3.680  0.00  0.00    +0.020 A 
ATOM     25  C   UNL     1       7.967   6.026  -2.829  0.00  0.00    +0.014 A 
ATOM     26  C   UNL     1       8.212   5.050  -5.025  0.00  0.00    +0.014 A 
ATOM     27  C   UNL     1       6.991   6.891  -3.321  0.00  0.00    +0.039 A 
ATOM     28  C   UNL     1       7.235   5.916  -5.518  0.00  0.00    +0.039 A 
ATOM     29  C   UNL     1       6.625   6.836  -4.666  0.00  0.00    +0.123 A 
ENDBRANCH  23  24
ENDBRANCH  19  21
ENDBRANCH  12  19
TORSDOF 7
ENDMDL
MODEL 9
REMARK VINA RESULT:      -6.8     27.610     28.968
REMARK  Name = 75536259
REMARK  8 active torsions:
REMARK  status: ('A' for Active; 'I' for Inactive)
REMARK    1  A    between atoms: O_3  and  C_10
REMARK    2  A    between atoms: N_5  and  C_9
REMARK    3  A    between atoms: N_5  and  C_11
REMARK    4  A    between atoms: N_6  and  C_20
REMARK    5  A    between atoms: C_8  and  C_11
REMARK    6  A    between atoms: C_12  and  C_19
REMARK    7  A    between atoms: C_19  and  C_21
REMARK    8  A    between atoms: C_23  and  C_24
REMARK                            x       y       z     vdW  Elec       q    Type
REMARK                         _______ _______ _______ _____ _____    ______ ____
ROOT
ATOM      2  O   UNL     1      -6.468 -11.581  17.276  0.00  0.00    -0.369 OA
ATOM      8  C   UNL     1      -7.595 -10.843  17.765  0.00  0.00    +0.161 C 
ATOM     10  C   UNL     1      -7.680 -10.901  19.296  0.00  0.00    +0.145 C 
ATOM     12  C   UNL     1      -5.205 -11.197  17.824  0.00  0.00    +0.125 C 
ATOM     13  C   UNL     1      -6.352 -10.560  19.966  0.00  0.00    +0.036 C 
ATOM     14  C   UNL     1      -5.207 -11.354  19.343  0.00  0.00    +0.034 C 
ENDROOT
BRANCH  10   3
ATOM      3  O   UNL     1      -8.035 -12.231  19.686  0.00  0.00    -0.389 OA
ATOM     31  H   UNL     1      -8.211 -12.738  18.875  0.00  0.00    +0.210 HD
ENDBRANCH  10   3
BRANCH   8  11
ATOM     11  C   UNL     1      -7.595  -9.415  17.223  0.00  0.00    +0.115 C 
BRANCH  11   5
ATOM      5  N   UNL     1      -8.673  -8.637  17.811  0.00  0.00    -0.311 NA
ATOM     30  H   UNL     1      -8.384  -7.660  17.866  0.00  0.00    +0.122 HD
BRANCH   5   9
ATOM      6  N   UNL     1     -12.644  -7.894  16.488  0.00  0.00    -0.305 NA
ATOM      9  C   UNL     1      -9.893  -8.744  17.012  0.00  0.00    +0.056 C 
ATOM     15  C   UNL     1     -10.223  -7.396  16.365  0.00  0.00    +0.034 C 
ATOM     16  C   UNL     1     -11.072  -9.212  17.872  0.00  0.00    +0.034 C 
ATOM     17  C   UNL     1     -11.550  -7.461  15.606  0.00  0.00    +0.085 C 
ATOM     18  C   UNL     1     -12.371  -9.218  17.064  0.00  0.00    +0.085 C 
ATOM     20  C   UNL     1     -13.913  -7.904  15.760  0.00  0.00    +0.104 C 
ENDBRANCH   5   9
ENDBRANCH  11   5
ENDBRANCH   8  11
BRANCH  12  19
ATOM     19  C   UNL     1      -4.140 -12.083  17.188  0.00  0.00    +0.090 C 
BRANCH  19  21
ATOM      4  O   UNL     1      -3.973 -12.438  13.605  0.00  0.00    -0.354 OA
ATOM      7  N   UNL     1      -4.017 -12.961  14.892  0.00  0.00    -0.083 NA
ATOM     21  C   UNL     1      -4.078 -11.895  15.695  0.00  0.00    +0.087 A 
ATOM     22  C   UNL     1      -4.076 -10.686  14.980  0.00  0.00    +0.076 A 
ATOM     23  C   UNL     1      -4.008 -11.082  13.670  0.00  0.00    +0.167 A 
BRANCH  23  24
ATOM      1  F   UNL     1      -3.859  -8.420   8.788  0.00  0.00    -0.205 F 
ATOM     24  C   UNL     1      -3.970 -10.397  12.411  0.00  0.00    +0.020 A 
ATOM     25  C   UNL     1      -2.760 -10.248  11.734  0.00  0.00    +0.014 A 
ATOM     26  C   UNL     1      -5.144  -9.877  11.864  0.00  0.00    +0.014 A 
ATOM     27  C   UNL     1      -2.722  -9.580  10.511  0.00  0.00    +0.039 A 
ATOM     28  C   UNL     1      -5.106  -9.210  10.640  0.00  0.00    +0.039 A 
ATOM     29  C   UNL     1      -3.895  -9.062   9.963  0.00  0.00    +0.123 A 
ENDBRANCH  23  24
ENDBRANCH  19  21
ENDBRANCH  12  19
TORSDOF 7
ENDMDL
MODEL 10
REMARK VINA RESULT:      -6.6     25.454     28.028
REMARK  Name = 75536259
REMARK  8 active torsions:
REMARK  status: ('A' for Active; 'I' for Inactive)
REMARK    1  A    between atoms: O_3  and  C_10
REMARK    2  A    between atoms: N_5  and  C_9
REMARK    3  A    between atoms: N_5  and  C_11
REMARK    4  A    between atoms: N_6  and  C_20
REMARK    5  A    between atoms: C_8  and  C_11
REMARK    6  A    between atoms: C_12  and  C_19
REMARK    7  A    between atoms: C_19  and  C_21
REMARK    8  A    between atoms: C_23  and  C_24
REMARK                            x       y       z     vdW  Elec       q    Type
REMARK                         _______ _______ _______ _____ _____    ______ ____
ROOT
ATOM      2  O   UNL     1     -10.899   9.156  20.060  0.00  0.00    -0.369 OA
ATOM      8  C   UNL     1     -10.917  10.286  19.178  0.00  0.00    +0.161 C 
ATOM     10  C   UNL     1     -10.652   9.867  17.726  0.00  0.00    +0.145 C 
ATOM     12  C   UNL     1     -11.797   8.100  19.711  0.00  0.00    +0.125 C 
ATOM     13  C   UNL     1     -11.532   8.700  17.287  0.00  0.00    +0.036 C 
ATOM     14  C   UNL     1     -11.490   7.570  18.312  0.00  0.00    +0.034 C 
ENDROOT
BRANCH  10   3
ATOM      3  O   UNL     1      -9.288   9.452  17.609  0.00  0.00    -0.389 OA
ATOM     31  H   UNL     1      -9.002   9.636  16.698  0.00  0.00    +0.210 HD
ENDBRANCH  10   3
BRANCH   8  11
ATOM     11  C   UNL     1     -12.205  11.090  19.340  0.00  0.00    +0.115 C 
BRANCH  11   5
ATOM      5  N   UNL     1     -12.178  11.874  20.565  0.00  0.00    -0.311 NA
ATOM     30  H   UNL     1     -12.291  12.860  20.329  0.00  0.00    +0.122 HD
BRANCH   5   9
ATOM      6  N   UNL     1     -14.744   9.321  22.793  0.00  0.00    -0.305 NA
ATOM      9  C   UNL     1     -13.243  11.461  21.476  0.00  0.00    +0.056 C 
ATOM     15  C   UNL     1     -12.663  10.652  22.639  0.00  0.00    +0.034 C 
ATOM     16  C   UNL     1     -14.302  10.632  20.741  0.00  0.00    +0.034 C 
ATOM     17  C   UNL     1     -13.774  10.125  23.550  0.00  0.00    +0.085 C 
ATOM     18  C   UNL     1     -15.359  10.106  21.714  0.00  0.00    +0.085 C 
ATOM     20  C   UNL     1     -15.771   8.785  23.685  0.00  0.00    +0.104 C 
ENDBRANCH   5   9
ENDBRANCH  11   5
ENDBRANCH   8  11
BRANCH  12  19
ATOM     19  C   UNL     1     -11.638   7.000  20.755  0.00  0.00    +0.090 C 
BRANCH  19  21
ATOM      4  O   UNL     1     -15.116   6.197  21.259  0.00  0.00    -0.354 OA
ATOM      7  N   UNL     1     -14.093   6.888  20.620  0.00  0.00    -0.083 NA
ATOM     21  C   UNL     1     -12.970   6.458  21.202  0.00  0.00    +0.087 A 
ATOM     22  C   UNL     1     -13.218   5.507  22.205  0.00  0.00    +0.076 A 
ATOM     23  C   UNL     1     -14.581   5.377  22.201  0.00  0.00    +0.167 A 
BRANCH  23  24
ATOM      1  F   UNL     1     -18.226   2.331  25.098  0.00  0.00    -0.205 F 
ATOM     24  C   UNL     1     -15.521   4.594  22.949  0.00  0.00    +0.020 A 
ATOM     25  C   UNL     1     -15.149   4.035  24.171  0.00  0.00    +0.014 A 
ATOM     26  C   UNL     1     -16.808   4.386  22.451  0.00  0.00    +0.014 A 
ATOM     27  C   UNL     1     -16.062   3.271  24.897  0.00  0.00    +0.039 A 
ATOM     28  C   UNL     1     -17.722   3.623  23.177  0.00  0.00    +0.039 A 
ATOM     29  C   UNL     1     -17.348   3.065  24.401  0.00  0.00    +0.123 A 
ENDBRANCH  23  24
ENDBRANCH  19  21
ENDBRANCH  12  19
TORSDOF 7
ENDMDL
