MODEL 1
REMARK VINA RESULT:      -6.6      0.000      0.000
REMARK  Name = 11942133
REMARK  8 active torsions:
REMARK  status: ('A' for Active; 'I' for Inactive)
REMARK    1  A    between atoms: O_2  and  C_20
REMARK    2  A    between atoms: N_4  and  C_15
REMARK    3  A    between atoms: N_5  and  C_19
REMARK    4  A    between atoms: C_9  and  C_15
REMARK    5  A    between atoms: C_10  and  C_16
REMARK    6  A    between atoms: C_18  and  C_20
REMARK    7  A    between atoms: C_20  and  C_23
REMARK    8  A    between atoms: C_20  and  C_24
REMARK                            x       y       z     vdW  Elec       q    Type
REMARK                         _______ _______ _______ _____ _____    ______ ____
ROOT
ATOM      3  N   UNL     1      12.403   9.174  19.122  0.00  0.00    -0.297 NA
ATOM      8  C   UNL     1      12.275   7.320  20.944  0.00  0.00    +0.005 C 
ATOM      9  C   UNL     1      12.511   7.833  18.489  0.00  0.00    +0.078 C 
ATOM     10  C   UNL     1      13.345   8.372  21.293  0.00  0.00    +0.092 C 
ATOM     11  C   UNL     1      12.592   6.721  19.559  0.00  0.00    +0.025 C 
ATOM     12  C   UNL     1      10.936   8.070  20.822  0.00  0.00    +0.020 C 
ATOM     13  C   UNL     1      13.483   9.361  20.122  0.00  0.00    +0.097 C 
ATOM     14  C   UNL     1      11.100   9.238  19.832  0.00  0.00    +0.085 C 
ENDROOT
BRANCH  10  16
ATOM      1  O   UNL     1      14.803   7.129  22.694  0.00  0.00    -0.275 OA
ATOM      5  N   UNL     1      15.580   7.908  20.614  0.00  0.00    -0.285 N 
ATOM     16  C   UNL     1      14.653   7.723  21.631  0.00  0.00    +0.222 C 
ATOM     28  H   UNL     1      15.289   8.444  19.799  0.00  0.00    +0.155 HD
BRANCH   5  19
ATOM     19  C   UNL     1      16.917   7.443  20.572  0.00  0.00    +0.033 A 
ATOM     21  C   UNL     1      17.221   6.323  19.817  0.00  0.00    +0.023 A 
ATOM     22  C   UNL     1      17.892   8.119  21.288  0.00  0.00    +0.023 A 
ATOM     25  C   UNL     1      18.539   5.866  19.775  0.00  0.00    +0.002 A 
ATOM     26  C   UNL     1      19.210   7.662  21.245  0.00  0.00    +0.002 A 
ATOM     27  C   UNL     1      19.532   6.534  20.489  0.00  0.00    +0.000 A 
ENDBRANCH   5  19
ENDBRANCH  10  16
BRANCH   9  15
ATOM     15  C   UNL     1      13.672   7.750  17.495  0.00  0.00    +0.164 C 
BRANCH  15   4
ATOM      4  N   UNL     1      13.626   8.828  16.520  0.00  0.00    -0.250 N 
ATOM      6  N   UNL     1      12.599   8.919  15.669  0.00  0.00    -0.065 NA
ATOM      7  N   UNL     1      12.827   9.983  14.906  0.00  0.00    -0.132 NA
ATOM     17  C   UNL     1      14.538   9.810  16.340  0.00  0.00    +0.136 A 
ATOM     18  C   UNL     1      14.011  10.540  15.304  0.00  0.00    +0.114 A 
BRANCH  18  20
ATOM     20  C   UNL     1      14.548  11.740  14.650  0.00  0.00    +0.105 C 
ATOM     23  C   UNL     1      16.092  11.686  14.466  0.00  0.00    +0.048 C 
ATOM     24  C   UNL     1      14.207  13.071  15.386  0.00  0.00    +0.048 C 
BRANCH  20   2
ATOM      2  O   UNL     1      14.056  11.953  13.292  0.00  0.00    -0.383 OA
ATOM     29  H   UNL     1      14.281  11.163  12.771  0.00  0.00    +0.211 HD
ENDBRANCH  20   2
ENDBRANCH  18  20
ENDBRANCH  15   4
ENDBRANCH   9  15
TORSDOF 6
ENDMDL
MODEL 2
REMARK VINA RESULT:      -6.3     13.174     16.870
REMARK  Name = 11942133
REMARK  8 active torsions:
REMARK  status: ('A' for Active; 'I' for Inactive)
REMARK    1  A    between atoms: O_2  and  C_20
REMARK    2  A    between atoms: N_4  and  C_15
REMARK    3  A    between atoms: N_5  and  C_19
REMARK    4  A    between atoms: C_9  and  C_15
REMARK    5  A    between atoms: C_10  and  C_16
REMARK    6  A    between atoms: C_18  and  C_20
REMARK    7  A    between atoms: C_20  and  C_23
REMARK    8  A    between atoms: C_20  and  C_24
REMARK                            x       y       z     vdW  Elec       q    Type
REMARK                         _______ _______ _______ _____ _____    ______ ____
ROOT
ATOM      3  N   UNL     1       9.387   5.172   5.770  0.00  0.00    -0.297 NA
ATOM      8  C   UNL     1      10.240   7.419   6.770  0.00  0.00    +0.005 C 
ATOM      9  C   UNL     1      10.570   5.652   5.005  0.00  0.00    +0.078 C 
ATOM     10  C   UNL     1       8.732   7.483   6.461  0.00  0.00    +0.092 C 
ATOM     11  C   UNL     1      11.002   7.057   5.479  0.00  0.00    +0.025 C 
ATOM     12  C   UNL     1      10.442   6.259   7.761  0.00  0.00    +0.020 C 
ATOM     13  C   UNL     1       8.308   6.190   5.740  0.00  0.00    +0.097 C 
ATOM     14  C   UNL     1       9.805   4.982   7.182  0.00  0.00    +0.085 C 
ENDROOT
BRANCH  10  16
ATOM      1  O   UNL     1       8.810   9.808   5.991  0.00  0.00    -0.275 OA
ATOM      5  N   UNL     1       7.591   8.381   4.572  0.00  0.00    -0.285 N 
ATOM     16  C   UNL     1       8.394   8.703   5.659  0.00  0.00    +0.222 C 
ATOM     28  H   UNL     1       7.325   7.405   4.453  0.00  0.00    +0.155 HD
BRANCH   5  19
ATOM     19  C   UNL     1       7.072   9.262   3.594  0.00  0.00    +0.033 A 
ATOM     21  C   UNL     1       6.077  10.158   3.948  0.00  0.00    +0.023 A 
ATOM     22  C   UNL     1       7.572   9.211   2.303  0.00  0.00    +0.023 A 
ATOM     25  C   UNL     1       5.567  11.027   2.984  0.00  0.00    +0.002 A 
ATOM     26  C   UNL     1       7.062  10.081   1.338  0.00  0.00    +0.002 A 
ATOM     27  C   UNL     1       6.058  10.989   1.680  0.00  0.00    +0.000 A 
ENDBRANCH   5  19
ENDBRANCH  10  16
BRANCH   9  15
ATOM     15  C   UNL     1      10.343   5.607   3.493  0.00  0.00    +0.164 C 
BRANCH  15   4
ATOM      4  N   UNL     1      11.410   4.898   2.806  0.00  0.00    -0.250 N 
ATOM      6  N   UNL     1      11.320   3.579   2.608  0.00  0.00    -0.065 NA
ATOM      7  N   UNL     1      12.426   3.212   1.970  0.00  0.00    -0.132 NA
ATOM     17  C   UNL     1      12.557   5.420   2.313  0.00  0.00    +0.136 A 
ATOM     18  C   UNL     1      13.194   4.327   1.782  0.00  0.00    +0.114 A 
BRANCH  18  20
ATOM     20  C   UNL     1      14.493   4.254   1.101  0.00  0.00    +0.105 C 
ATOM     23  C   UNL     1      15.280   5.595   1.158  0.00  0.00    +0.048 C 
ATOM     24  C   UNL     1      14.402   3.824  -0.395  0.00  0.00    +0.048 C 
BRANCH  20   2
ATOM      2  O   UNL     1      15.424   3.294   1.687  0.00  0.00    -0.383 OA
ATOM     29  H   UNL     1      16.224   3.782   1.947  0.00  0.00    +0.211 HD
ENDBRANCH  20   2
ENDBRANCH  18  20
ENDBRANCH  15   4
ENDBRANCH   9  15
TORSDOF 6
ENDMDL
MODEL 3
REMARK VINA RESULT:      -6.3     26.956     29.241
REMARK  Name = 11942133
REMARK  8 active torsions:
REMARK  status: ('A' for Active; 'I' for Inactive)
REMARK    1  A    between atoms: O_2  and  C_20
REMARK    2  A    between atoms: N_4  and  C_15
REMARK    3  A    between atoms: N_5  and  C_19
REMARK    4  A    between atoms: C_9  and  C_15
REMARK    5  A    between atoms: C_10  and  C_16
REMARK    6  A    between atoms: C_18  and  C_20
REMARK    7  A    between atoms: C_20  and  C_23
REMARK    8  A    between atoms: C_20  and  C_24
REMARK                            x       y       z     vdW  Elec       q    Type
REMARK                         _______ _______ _______ _____ _____    ______ ____
ROOT
ATOM      3  N   UNL     1      -8.065 -10.571  18.733  0.00  0.00    -0.297 NA
ATOM      8  C   UNL     1      -7.579 -13.001  17.940  0.00  0.00    +0.005 C 
ATOM      9  C   UNL     1      -8.617 -10.779  17.368  0.00  0.00    +0.078 C 
ATOM     10  C   UNL     1      -6.292 -12.305  18.424  0.00  0.00    +0.092 C 
ATOM     11  C   UNL     1      -8.211 -12.161  16.812  0.00  0.00    +0.025 C 
ATOM     12  C   UNL     1      -8.563 -12.991  19.123  0.00  0.00    +0.020 C 
ATOM     13  C   UNL     1      -6.604 -10.832  18.743  0.00  0.00    +0.097 C 
ATOM     14  C   UNL     1      -8.716 -11.549  19.641  0.00  0.00    +0.085 C 
ENDROOT
BRANCH  10  16
ATOM      1  O   UNL     1      -4.767 -13.538  17.088  0.00  0.00    -0.275 OA
ATOM      5  N   UNL     1      -4.779 -11.189  16.963  0.00  0.00    -0.285 N 
ATOM     16  C   UNL     1      -5.192 -12.435  17.414  0.00  0.00    +0.222 C 
ATOM     28  H   UNL     1      -5.236 -10.368  17.354  0.00  0.00    +0.155 HD
BRANCH   5  19
ATOM     19  C   UNL     1      -3.768 -10.910  16.012  0.00  0.00    +0.033 A 
ATOM     21  C   UNL     1      -2.461 -10.744  16.442  0.00  0.00    +0.023 A 
ATOM     22  C   UNL     1      -4.106 -10.809  14.673  0.00  0.00    +0.023 A 
ATOM     25  C   UNL     1      -1.465 -10.470  15.505  0.00  0.00    +0.002 A 
ATOM     26  C   UNL     1      -3.108 -10.536  13.736  0.00  0.00    +0.002 A 
ATOM     27  C   UNL     1      -1.788 -10.366  14.153  0.00  0.00    +0.000 A 
ENDBRANCH   5  19
ENDBRANCH  10  16
BRANCH   9  15
ATOM     15  C   UNL     1      -8.241  -9.648  16.408  0.00  0.00    +0.164 C 
BRANCH  15   4
ATOM      4  N   UNL     1      -9.305  -8.665  16.287  0.00  0.00    -0.250 N 
ATOM      6  N   UNL     1      -9.703  -7.971  17.358  0.00  0.00    -0.065 NA
ATOM      7  N   UNL     1     -10.678  -7.164  16.951  0.00  0.00    -0.132 NA
ATOM     17  C   UNL     1      -9.997  -8.339  15.171  0.00  0.00    +0.136 A 
ATOM     18  C   UNL     1     -10.870  -7.377  15.615  0.00  0.00    +0.114 A 
BRANCH  18  20
ATOM     20  C   UNL     1     -11.888  -6.634  14.862  0.00  0.00    +0.105 C 
ATOM     23  C   UNL     1     -13.203  -6.428  15.668  0.00  0.00    +0.048 C 
ATOM     24  C   UNL     1     -12.268  -7.283  13.496  0.00  0.00    +0.048 C 
BRANCH  20   2
ATOM      2  O   UNL     1     -11.496  -5.273  14.507  0.00  0.00    -0.383 OA
ATOM     29  H   UNL     1     -10.611  -5.319  14.105  0.00  0.00    +0.211 HD
ENDBRANCH  20   2
ENDBRANCH  18  20
ENDBRANCH  15   4
ENDBRANCH   9  15
TORSDOF 6
ENDMDL
MODEL 4
REMARK VINA RESULT:      -6.2     27.150     29.055
REMARK  Name = 11942133
REMARK  8 active torsions:
REMARK  status: ('A' for Active; 'I' for Inactive)
REMARK    1  A    between atoms: O_2  and  C_20
REMARK    2  A    between atoms: N_4  and  C_15
REMARK    3  A    between atoms: N_5  and  C_19
REMARK    4  A    between atoms: C_9  and  C_15
REMARK    5  A    between atoms: C_10  and  C_16
REMARK    6  A    between atoms: C_18  and  C_20
REMARK    7  A    between atoms: C_20  and  C_23
REMARK    8  A    between atoms: C_20  and  C_24
REMARK                            x       y       z     vdW  Elec       q    Type
REMARK                         _______ _______ _______ _____ _____    ______ ____
ROOT
ATOM      3  N   UNL     1      -5.409 -12.619  17.000  0.00  0.00    -0.297 NA
ATOM      8  C   UNL     1      -5.511 -11.189  19.172  0.00  0.00    +0.005 C 
ATOM      9  C   UNL     1      -5.013 -11.216  16.703  0.00  0.00    +0.078 C 
ATOM     10  C   UNL     1      -6.833 -11.946  18.940  0.00  0.00    +0.092 C 
ATOM     11  C   UNL     1      -5.211 -10.312  17.939  0.00  0.00    +0.025 C 
ATOM     12  C   UNL     1      -4.400 -12.250  19.259  0.00  0.00    +0.020 C 
ATOM     13  C   UNL     1      -6.776 -12.657  17.576  0.00  0.00    +0.097 C 
ATOM     14  C   UNL     1      -4.465 -13.154  18.014  0.00  0.00    +0.085 C 
ENDROOT
BRANCH  10  16
ATOM      1  O   UNL     1      -8.479 -10.718  20.130  0.00  0.00    -0.275 OA
ATOM      5  N   UNL     1      -8.435 -10.619  17.779  0.00  0.00    -0.285 N 
ATOM     16  C   UNL     1      -8.010 -11.023  19.038  0.00  0.00    +0.222 C 
ATOM     28  H   UNL     1      -7.934 -10.983  16.971  0.00  0.00    +0.155 HD
BRANCH   5  19
ATOM     19  C   UNL     1      -9.512  -9.754  17.471  0.00  0.00    +0.033 A 
ATOM     21  C   UNL     1     -10.805 -10.249  17.489  0.00  0.00    +0.023 A 
ATOM     22  C   UNL     1      -9.249  -8.430  17.158  0.00  0.00    +0.023 A 
ATOM     25  C   UNL     1     -11.866  -9.395  17.186  0.00  0.00    +0.002 A 
ATOM     26  C   UNL     1     -10.311  -7.577  16.855  0.00  0.00    +0.002 A 
ATOM     27  C   UNL     1     -11.619  -8.060  16.869  0.00  0.00    +0.000 A 
ENDBRANCH   5  19
ENDBRANCH  10  16
BRANCH   9  15
ATOM     15  C   UNL     1      -5.728 -10.658  15.470  0.00  0.00    +0.164 C 
BRANCH  15   4
ATOM      4  N   UNL     1      -4.827 -10.524  14.337  0.00  0.00    -0.250 N 
ATOM      6  N   UNL     1      -3.508 -10.657  14.510  0.00  0.00    -0.065 NA
ATOM      7  N   UNL     1      -2.946 -10.482  13.319  0.00  0.00    -0.132 NA
ATOM     17  C   UNL     1      -5.158 -10.262  13.052  0.00  0.00    +0.136 A 
ATOM     18  C   UNL     1      -3.943 -10.240  12.415  0.00  0.00    +0.114 A 
BRANCH  18  20
ATOM     20  C   UNL     1      -3.646 -10.001  10.997  0.00  0.00    +0.105 C 
ATOM     23  C   UNL     1      -4.538  -8.889  10.373  0.00  0.00    +0.048 C 
ATOM     24  C   UNL     1      -3.776 -11.269  10.099  0.00  0.00    +0.048 C 
BRANCH  20   2
ATOM      2  O   UNL     1      -2.290  -9.526  10.740  0.00  0.00    -0.383 OA
ATOM     29  H   UNL     1      -1.737  -9.795  11.494  0.00  0.00    +0.211 HD
ENDBRANCH  20   2
ENDBRANCH  18  20
ENDBRANCH  15   4
ENDBRANCH   9  15
TORSDOF 6
ENDMDL
MODEL 5
REMARK VINA RESULT:      -6.2     27.832     31.262
REMARK  Name = 11942133
REMARK  8 active torsions:
REMARK  status: ('A' for Active; 'I' for Inactive)
REMARK    1  A    between atoms: O_2  and  C_20
REMARK    2  A    between atoms: N_4  and  C_15
REMARK    3  A    between atoms: N_5  and  C_19
REMARK    4  A    between atoms: C_9  and  C_15
REMARK    5  A    between atoms: C_10  and  C_16
REMARK    6  A    between atoms: C_18  and  C_20
REMARK    7  A    between atoms: C_20  and  C_23
REMARK    8  A    between atoms: C_20  and  C_24
REMARK                            x       y       z     vdW  Elec       q    Type
REMARK                         _______ _______ _______ _____ _____    ______ ____
ROOT
ATOM      3  N   UNL     1     -14.210   8.672  34.044  0.00  0.00    -0.297 NA
ATOM      8  C   UNL     1     -12.024   9.005  32.672  0.00  0.00    +0.005 C 
ATOM      9  C   UNL     1     -13.813   7.389  33.403  0.00  0.00    +0.078 C 
ATOM     10  C   UNL     1     -13.089  10.050  32.287  0.00  0.00    +0.092 C 
ATOM     11  C   UNL     1     -12.606   7.593  32.461  0.00  0.00    +0.025 C 
ATOM     12  C   UNL     1     -11.763   9.171  34.180  0.00  0.00    +0.020 C 
ATOM     13  C   UNL     1     -14.405   9.723  33.015  0.00  0.00    +0.097 C 
ATOM     14  C   UNL     1     -13.102   9.098  34.936  0.00  0.00    +0.085 C 
ENDROOT
BRANCH  10  16
ATOM      1  O   UNL     1     -14.345   9.801  30.289  0.00  0.00    -0.275 OA
ATOM      5  N   UNL     1     -12.115  10.543  30.170  0.00  0.00    -0.285 N 
ATOM     16  C   UNL     1     -13.275  10.112  30.801  0.00  0.00    +0.222 C 
ATOM     28  H   UNL     1     -11.307  10.748  30.753  0.00  0.00    +0.155 HD
BRANCH   5  19
ATOM     19  C   UNL     1     -11.908  10.726  28.781  0.00  0.00    +0.033 A 
ATOM     21  C   UNL     1     -12.507  11.799  28.143  0.00  0.00    +0.023 A 
ATOM     22  C   UNL     1     -11.110   9.829  28.091  0.00  0.00    +0.023 A 
ATOM     25  C   UNL     1     -12.302  11.980  26.775  0.00  0.00    +0.002 A 
ATOM     26  C   UNL     1     -10.905  10.010  26.723  0.00  0.00    +0.002 A 
ATOM     27  C   UNL     1     -11.502  11.086  26.065  0.00  0.00    +0.000 A 
ENDBRANCH   5  19
ENDBRANCH  10  16
BRANCH   9  15
ATOM     15  C   UNL     1     -14.982   6.708  32.690  0.00  0.00    +0.164 C 
BRANCH  15   4
ATOM      4  N   UNL     1     -14.689   5.318  32.379  0.00  0.00    -0.250 N 
ATOM      6  N   UNL     1     -14.169   4.516  33.314  0.00  0.00    -0.065 NA
ATOM      7  N   UNL     1     -14.007   3.324  32.750  0.00  0.00    -0.132 NA
ATOM     17  C   UNL     1     -14.878   4.684  31.199  0.00  0.00    +0.136 A 
ATOM     18  C   UNL     1     -14.436   3.410  31.455  0.00  0.00    +0.114 A 
BRANCH  18  20
ATOM     20  C   UNL     1     -14.387   2.250  30.556  0.00  0.00    +0.105 C 
ATOM     23  C   UNL     1     -15.274   2.430  29.290  0.00  0.00    +0.048 C 
ATOM     24  C   UNL     1     -14.795   0.906  31.231  0.00  0.00    +0.048 C 
BRANCH  20   2
ATOM      2  O   UNL     1     -13.063   1.978  30.002  0.00  0.00    -0.383 OA
ATOM     29  H   UNL     1     -13.115   2.115  29.040  0.00  0.00    +0.211 HD
ENDBRANCH  20   2
ENDBRANCH  18  20
ENDBRANCH  15   4
ENDBRANCH   9  15
TORSDOF 6
ENDMDL
MODEL 6
REMARK VINA RESULT:      -6.1      1.492      1.953
REMARK  Name = 11942133
REMARK  8 active torsions:
REMARK  status: ('A' for Active; 'I' for Inactive)
REMARK    1  A    between atoms: O_2  and  C_20
REMARK    2  A    between atoms: N_4  and  C_15
REMARK    3  A    between atoms: N_5  and  C_19
REMARK    4  A    between atoms: C_9  and  C_15
REMARK    5  A    between atoms: C_10  and  C_16
REMARK    6  A    between atoms: C_18  and  C_20
REMARK    7  A    between atoms: C_20  and  C_23
REMARK    8  A    between atoms: C_20  and  C_24
REMARK                            x       y       z     vdW  Elec       q    Type
REMARK                         _______ _______ _______ _____ _____    ______ ____
ROOT
ATOM      3  N   UNL     1      12.203   8.711  19.360  0.00  0.00    -0.297 NA
ATOM      8  C   UNL     1      12.643   7.960  21.813  0.00  0.00    +0.005 C 
ATOM      9  C   UNL     1      12.989   7.449  19.370  0.00  0.00    +0.078 C 
ATOM     10  C   UNL     1      13.068   9.424  21.593  0.00  0.00    +0.092 C 
ATOM     11  C   UNL     1      13.396   7.063  20.809  0.00  0.00    +0.025 C 
ATOM     12  C   UNL     1      11.145   7.875  21.468  0.00  0.00    +0.020 C 
ATOM     13  C   UNL     1      12.925   9.775  20.101  0.00  0.00    +0.097 C 
ATOM     14  C   UNL     1      10.918   8.453  20.058  0.00  0.00    +0.085 C 
ENDROOT
BRANCH  10  16
ATOM      1  O   UNL     1      14.668   9.954  23.264  0.00  0.00    -0.275 OA
ATOM      5  N   UNL     1      15.389   9.518  21.067  0.00  0.00    -0.285 N 
ATOM     16  C   UNL     1      14.462   9.665  22.090  0.00  0.00    +0.222 C 
ATOM     28  H   UNL     1      15.039   9.286  20.140  0.00  0.00    +0.155 HD
BRANCH   5  19
ATOM     19  C   UNL     1      16.795   9.665  21.152  0.00  0.00    +0.033 A 
ATOM     21  C   UNL     1      17.370  10.880  20.816  0.00  0.00    +0.023 A 
ATOM     22  C   UNL     1      17.565   8.592  21.570  0.00  0.00    +0.023 A 
ATOM     25  C   UNL     1      18.754  11.025  20.901  0.00  0.00    +0.002 A 
ATOM     26  C   UNL     1      18.950   8.739  21.655  0.00  0.00    +0.002 A 
ATOM     27  C   UNL     1      19.544   9.956  21.319  0.00  0.00    +0.000 A 
ENDBRANCH   5  19
ENDBRANCH  10  16
BRANCH   9  15
ATOM     15  C   UNL     1      14.199   7.509  18.435  0.00  0.00    +0.164 C 
BRANCH  15   4
ATOM      4  N   UNL     1      13.955   8.371  17.291  0.00  0.00    -0.250 N 
ATOM      6  N   UNL     1      13.109   7.987  16.329  0.00  0.00    -0.065 NA
ATOM      7  N   UNL     1      13.090   8.959  15.424  0.00  0.00    -0.132 NA
ATOM     17  C   UNL     1      14.503   9.583  17.045  0.00  0.00    +0.136 A 
ATOM     18  C   UNL     1      13.938   9.945  15.847  0.00  0.00    +0.114 A 
BRANCH  18  20
ATOM     20  C   UNL     1      14.142  11.167  15.060  0.00  0.00    +0.105 C 
ATOM     23  C   UNL     1      15.380  11.079  14.120  0.00  0.00    +0.048 C 
ATOM     24  C   UNL     1      14.293  12.459  15.919  0.00  0.00    +0.048 C 
BRANCH  20   2
ATOM      2  O   UNL     1      13.049  11.479  14.144  0.00  0.00    -0.383 OA
ATOM     29  H   UNL     1      13.332  12.230  13.594  0.00  0.00    +0.211 HD
ENDBRANCH  20   2
ENDBRANCH  18  20
ENDBRANCH  15   4
ENDBRANCH   9  15
TORSDOF 6
ENDMDL
MODEL 7
REMARK VINA RESULT:      -6.1     15.849     19.584
REMARK  Name = 11942133
REMARK  8 active torsions:
REMARK  status: ('A' for Active; 'I' for Inactive)
REMARK    1  A    between atoms: O_2  and  C_20
REMARK    2  A    between atoms: N_4  and  C_15
REMARK    3  A    between atoms: N_5  and  C_19
REMARK    4  A    between atoms: C_9  and  C_15
REMARK    5  A    between atoms: C_10  and  C_16
REMARK    6  A    between atoms: C_18  and  C_20
REMARK    7  A    between atoms: C_20  and  C_23
REMARK    8  A    between atoms: C_20  and  C_24
REMARK                            x       y       z     vdW  Elec       q    Type
REMARK                         _______ _______ _______ _____ _____    ______ ____
ROOT
ATOM      3  N   UNL     1      13.677   5.789   1.696  0.00  0.00    -0.297 NA
ATOM      8  C   UNL     1      13.505   3.588   0.319  0.00  0.00    +0.005 C 
ATOM      9  C   UNL     1      12.631   4.906   2.279  0.00  0.00    +0.078 C 
ATOM     10  C   UNL     1      13.402   4.825  -0.593  0.00  0.00    +0.092 C 
ATOM     11  C   UNL     1      12.401   3.662   1.393  0.00  0.00    +0.025 C 
ATOM     12  C   UNL     1      14.858   3.682   1.046  0.00  0.00    +0.020 C 
ATOM     13  C   UNL     1      13.362   6.094   0.279  0.00  0.00    +0.097 C 
ATOM     14  C   UNL     1      14.967   5.054   1.737  0.00  0.00    +0.085 C 
ENDROOT
BRANCH  10  16
ATOM      1  O   UNL     1      11.235   5.456  -1.325  0.00  0.00    -0.275 OA
ATOM      5  N   UNL     1      12.400   3.767  -2.477  0.00  0.00    -0.285 N 
ATOM     16  C   UNL     1      12.211   4.734  -1.499  0.00  0.00    +0.222 C 
ATOM     28  H   UNL     1      13.275   3.247  -2.465  0.00  0.00    +0.155 HD
BRANCH   5  19
ATOM     19  C   UNL     1      11.502   3.397  -3.506  0.00  0.00    +0.033 A 
ATOM     21  C   UNL     1      11.835   3.662  -4.824  0.00  0.00    +0.023 A 
ATOM     22  C   UNL     1      10.309   2.776  -3.173  0.00  0.00    +0.023 A 
ATOM     25  C   UNL     1      10.949   3.296  -5.838  0.00  0.00    +0.002 A 
ATOM     26  C   UNL     1       9.424   2.410  -4.188  0.00  0.00    +0.002 A 
ATOM     27  C   UNL     1       9.745   2.670  -5.521  0.00  0.00    +0.000 A 
ENDBRANCH   5  19
ENDBRANCH  10  16
BRANCH   9  15
ATOM     15  C   UNL     1      11.325   5.655   2.556  0.00  0.00    +0.164 C 
BRANCH  15   4
ATOM      4  N   UNL     1      10.878   5.471   3.927  0.00  0.00    -0.250 N 
ATOM      6  N   UNL     1       9.954   4.547   4.214  0.00  0.00    -0.065 NA
ATOM      7  N   UNL     1       9.744   4.610   5.524  0.00  0.00    -0.132 NA
ATOM     17  C   UNL     1      11.288   6.151   5.022  0.00  0.00    +0.136 A 
ATOM     18  C   UNL     1      10.553   5.587   6.034  0.00  0.00    +0.114 A 
BRANCH  18  20
ATOM     20  C   UNL     1      10.554   5.905   7.468  0.00  0.00    +0.105 C 
ATOM     23  C   UNL     1       9.638   4.959   8.297  0.00  0.00    +0.048 C 
ATOM     24  C   UNL     1      10.137   7.372   7.793  0.00  0.00    +0.048 C 
BRANCH  20   2
ATOM      2  O   UNL     1      11.856   5.760   8.112  0.00  0.00    -0.383 OA
ATOM     29  H   UNL     1      12.537   5.909   7.434  0.00  0.00    +0.211 HD
ENDBRANCH  20   2
ENDBRANCH  18  20
ENDBRANCH  15   4
ENDBRANCH   9  15
TORSDOF 6
ENDMDL
MODEL 8
REMARK VINA RESULT:      -6.1     13.623     16.745
REMARK  Name = 11942133
REMARK  8 active torsions:
REMARK  status: ('A' for Active; 'I' for Inactive)
REMARK    1  A    between atoms: O_2  and  C_20
REMARK    2  A    between atoms: N_4  and  C_15
REMARK    3  A    between atoms: N_5  and  C_19
REMARK    4  A    between atoms: C_9  and  C_15
REMARK    5  A    between atoms: C_10  and  C_16
REMARK    6  A    between atoms: C_18  and  C_20
REMARK    7  A    between atoms: C_20  and  C_23
REMARK    8  A    between atoms: C_20  and  C_24
REMARK                            x       y       z     vdW  Elec       q    Type
REMARK                         _______ _______ _______ _____ _____    ______ ____
ROOT
ATOM      3  N   UNL     1      10.041   8.538   6.043  0.00  0.00    -0.297 NA
ATOM      8  C   UNL     1       9.089   6.166   6.531  0.00  0.00    +0.005 C 
ATOM      9  C   UNL     1       8.691   8.399   5.434  0.00  0.00    +0.078 C 
ATOM     10  C   UNL     1      10.498   6.085   5.913  0.00  0.00    +0.092 C 
ATOM     11  C   UNL     1       8.167   6.953   5.577  0.00  0.00    +0.025 C 
ATOM     12  C   UNL     1       9.216   6.988   7.825  0.00  0.00    +0.020 C 
ATOM     13  C   UNL     1      10.956   7.498   5.510  0.00  0.00    +0.097 C 
ATOM     14  C   UNL     1       9.905   8.329   7.507  0.00  0.00    +0.085 C 
ENDROOT
BRANCH  10  16
ATOM      1  O   UNL     1      10.150   3.978   4.878  0.00  0.00    -0.275 OA
ATOM      5  N   UNL     1      11.023   5.759   3.613  0.00  0.00    -0.285 N 
ATOM     16  C   UNL     1      10.528   5.137   4.752  0.00  0.00    +0.222 C 
ATOM     28  H   UNL     1      11.306   6.734   3.691  0.00  0.00    +0.155 HD
BRANCH   5  19
ATOM     19  C   UNL     1      11.199   5.189   2.329  0.00  0.00    +0.033 A 
ATOM     21  C   UNL     1      12.351   4.469   2.060  0.00  0.00    +0.023 A 
ATOM     22  C   UNL     1      10.216   5.364   1.370  0.00  0.00    +0.023 A 
ATOM     25  C   UNL     1      12.524   3.907   0.795  0.00  0.00    +0.002 A 
ATOM     26  C   UNL     1      10.389   4.800   0.105  0.00  0.00    +0.002 A 
ATOM     27  C   UNL     1      11.544   4.072  -0.182  0.00  0.00    +0.000 A 
ENDBRANCH   5  19
ENDBRANCH  10  16
BRANCH   9  15
ATOM     15  C   UNL     1       8.655   8.875   3.981  0.00  0.00    +0.164 C 
BRANCH  15   4
ATOM      4  N   UNL     1       7.352   9.407   3.618  0.00  0.00    -0.250 N 
ATOM      6  N   UNL     1       6.627  10.078   4.519  0.00  0.00    -0.065 NA
ATOM      7  N   UNL     1       5.498  10.434   3.915  0.00  0.00    -0.132 NA
ATOM     17  C   UNL     1       6.729   9.307   2.422  0.00  0.00    +0.136 A 
ATOM     18  C   UNL     1       5.545   9.970   2.630  0.00  0.00    +0.114 A 
BRANCH  18  20
ATOM     20  C   UNL     1       4.437  10.201   1.694  0.00  0.00    +0.105 C 
ATOM     23  C   UNL     1       4.520   9.301   0.428  0.00  0.00    +0.048 C 
ATOM     24  C   UNL     1       4.308  11.679   1.215  0.00  0.00    +0.048 C 
BRANCH  20   2
ATOM      2  O   UNL     1       3.118   9.892   2.239  0.00  0.00    -0.383 OA
ATOM     29  H   UNL     1       3.197   9.067   2.747  0.00  0.00    +0.211 HD
ENDBRANCH  20   2
ENDBRANCH  18  20
ENDBRANCH  15   4
ENDBRANCH   9  15
TORSDOF 6
ENDMDL
MODEL 9
REMARK VINA RESULT:      -6.1     15.423     19.337
REMARK  Name = 11942133
REMARK  8 active torsions:
REMARK  status: ('A' for Active; 'I' for Inactive)
REMARK    1  A    between atoms: O_2  and  C_20
REMARK    2  A    between atoms: N_4  and  C_15
REMARK    3  A    between atoms: N_5  and  C_19
REMARK    4  A    between atoms: C_9  and  C_15
REMARK    5  A    between atoms: C_10  and  C_16
REMARK    6  A    between atoms: C_18  and  C_20
REMARK    7  A    between atoms: C_20  and  C_23
REMARK    8  A    between atoms: C_20  and  C_24
REMARK                            x       y       z     vdW  Elec       q    Type
REMARK                         _______ _______ _______ _____ _____    ______ ____
ROOT
ATOM      3  N   UNL     1      12.976   5.791   1.612  0.00  0.00    -0.297 NA
ATOM      8  C   UNL     1      12.759   3.346   0.749  0.00  0.00    +0.005 C 
ATOM      9  C   UNL     1      11.939   5.067   2.395  0.00  0.00    +0.078 C 
ATOM     10  C   UNL     1      12.642   4.358  -0.407  0.00  0.00    +0.092 C 
ATOM     11  C   UNL     1      11.682   3.663   1.805  0.00  0.00    +0.025 C 
ATOM     12  C   UNL     1      14.130   3.581   1.409  0.00  0.00    +0.020 C 
ATOM     13  C   UNL     1      12.630   5.785   0.169  0.00  0.00    +0.097 C 
ATOM     14  C   UNL     1      14.262   5.069   1.782  0.00  0.00    +0.085 C 
ENDROOT
BRANCH  10  16
ATOM      1  O   UNL     1      11.072   2.935  -1.477  0.00  0.00    -0.275 OA
ATOM      5  N   UNL     1      10.844   5.269  -1.676  0.00  0.00    -0.285 N 
ATOM     16  C   UNL     1      11.430   4.085  -1.246  0.00  0.00    +0.222 C 
ATOM     28  H   UNL     1      11.285   6.143  -1.399  0.00  0.00    +0.155 HD
BRANCH   5  19
ATOM     19  C   UNL     1       9.689   5.414  -2.481  0.00  0.00    +0.033 A 
ATOM     21  C   UNL     1       8.730   6.349  -2.128  0.00  0.00    +0.023 A 
ATOM     22  C   UNL     1       9.543   4.620  -3.606  0.00  0.00    +0.023 A 
ATOM     25  C   UNL     1       7.592   6.493  -2.922  0.00  0.00    +0.002 A 
ATOM     26  C   UNL     1       8.405   4.764  -4.402  0.00  0.00    +0.002 A 
ATOM     27  C   UNL     1       7.430   5.701  -4.058  0.00  0.00    +0.000 A 
ENDBRANCH   5  19
ENDBRANCH  10  16
BRANCH   9  15
ATOM     15  C   UNL     1      10.645   5.872   2.532  0.00  0.00    +0.164 C 
BRANCH  15   4
ATOM      4  N   UNL     1      10.224   5.988   3.918  0.00  0.00    -0.250 N 
ATOM      6  N   UNL     1       9.156   6.726   4.237  0.00  0.00    -0.065 NA
ATOM      7  N   UNL     1       9.017   6.651   5.556  0.00  0.00    -0.132 NA
ATOM     17  C   UNL     1      10.803   5.419   5.001  0.00  0.00    +0.136 A 
ATOM     18  C   UNL     1      10.017   5.854   6.039  0.00  0.00    +0.114 A 
BRANCH  18  20
ATOM     20  C   UNL     1      10.142   5.571   7.475  0.00  0.00    +0.105 C 
ATOM     23  C   UNL     1       9.717   4.120   7.842  0.00  0.00    +0.048 C 
ATOM     24  C   UNL     1       9.334   6.544   8.386  0.00  0.00    +0.048 C 
BRANCH  20   2
ATOM      2  O   UNL     1      11.506   5.660   7.987  0.00  0.00    -0.383 OA
ATOM     29  H   UNL     1      11.507   5.288   8.885  0.00  0.00    +0.211 HD
ENDBRANCH  20   2
ENDBRANCH  18  20
ENDBRANCH  15   4
ENDBRANCH   9  15
TORSDOF 6
ENDMDL
MODEL 10
REMARK VINA RESULT:      -6.0     14.343     17.463
REMARK  Name = 11942133
REMARK  8 active torsions:
REMARK  status: ('A' for Active; 'I' for Inactive)
REMARK    1  A    between atoms: O_2  and  C_20
REMARK    2  A    between atoms: N_4  and  C_15
REMARK    3  A    between atoms: N_5  and  C_19
REMARK    4  A    between atoms: C_9  and  C_15
REMARK    5  A    between atoms: C_10  and  C_16
REMARK    6  A    between atoms: C_18  and  C_20
REMARK    7  A    between atoms: C_20  and  C_23
REMARK    8  A    between atoms: C_20  and  C_24
REMARK                            x       y       z     vdW  Elec       q    Type
REMARK                         _______ _______ _______ _____ _____    ______ ____
ROOT
ATOM      3  N   UNL     1      12.053   5.968   0.742  0.00  0.00    -0.297 NA
ATOM      8  C   UNL     1      10.488   4.516   2.230  0.00  0.00    +0.005 C 
ATOM      9  C   UNL     1      12.779   4.758   1.212  0.00  0.00    +0.078 C 
ATOM     10  C   UNL     1      10.521   5.977   2.716  0.00  0.00    +0.092 C 
ATOM     11  C   UNL     1      11.925   3.957   2.220  0.00  0.00    +0.025 C 
ATOM     12  C   UNL     1       9.997   4.543   0.772  0.00  0.00    +0.020 C 
ATOM     13  C   UNL     1      11.566   6.759   1.900  0.00  0.00    +0.097 C 
ATOM     14  C   UNL     1      10.873   5.517  -0.039  0.00  0.00    +0.085 C 
ENDROOT
BRANCH  10  16
ATOM      1  O   UNL     1      11.863   6.484   4.606  0.00  0.00    -0.275 OA
ATOM      5  N   UNL     1       9.712   5.584   4.922  0.00  0.00    -0.285 N 
ATOM     16  C   UNL     1      10.794   6.053   4.188  0.00  0.00    +0.222 C 
ATOM     28  H   UNL     1       8.901   5.248   4.407  0.00  0.00    +0.155 HD
BRANCH   5  19
ATOM     19  C   UNL     1       9.599   5.501   6.331  0.00  0.00    +0.033 A 
ATOM     21  C   UNL     1       9.175   6.611   7.043  0.00  0.00    +0.023 A 
ATOM     22  C   UNL     1       9.913   4.311   6.967  0.00  0.00    +0.023 A 
ATOM     25  C   UNL     1       9.063   6.529   8.431  0.00  0.00    +0.002 A 
ATOM     26  C   UNL     1       9.799   4.229   8.355  0.00  0.00    +0.002 A 
ATOM     27  C   UNL     1       9.375   5.339   9.087  0.00  0.00    +0.000 A 
ENDBRANCH   5  19
ENDBRANCH  10  16
BRANCH   9  15
ATOM     15  C   UNL     1      14.162   5.092   1.778  0.00  0.00    +0.164 C 
BRANCH  15   4
ATOM      4  N   UNL     1      15.203   4.961   0.772  0.00  0.00    -0.250 N 
ATOM      6  N   UNL     1      15.699   3.756   0.472  0.00  0.00    -0.065 NA
ATOM      7  N   UNL     1      16.624   3.945  -0.462  0.00  0.00    -0.132 NA
ATOM     17  C   UNL     1      15.780   5.952   0.055  0.00  0.00    +0.136 A 
ATOM     18  C   UNL     1      16.686   5.284  -0.730  0.00  0.00    +0.114 A 
BRANCH  18  20
ATOM     20  C   UNL     1      17.621   5.822  -1.726  0.00  0.00    +0.105 C 
ATOM     23  C   UNL     1      17.342   7.313  -2.071  0.00  0.00    +0.048 C 
ATOM     24  C   UNL     1      17.648   5.025  -3.066  0.00  0.00    +0.048 C 
BRANCH  20   2
ATOM      2  O   UNL     1      19.016   5.832  -1.295  0.00  0.00    -0.383 OA
ATOM     29  H   UNL     1      19.520   5.286  -1.922  0.00  0.00    +0.211 HD
ENDBRANCH  20   2
ENDBRANCH  18  20
ENDBRANCH  15   4
ENDBRANCH   9  15
TORSDOF 6
ENDMDL
