MODEL 1
REMARK VINA RESULT:      -6.5      0.000      0.000
REMARK  Name = 56775309
REMARK  2 active torsions:
REMARK  status: ('A' for Active; 'I' for Inactive)
REMARK    1  A    between atoms: N_6  and  C_14
REMARK    2  A    between atoms: C_13  and  C_15
REMARK                            x       y       z     vdW  Elec       q    Type
REMARK                         _______ _______ _______ _____ _____    ______ ____
ROOT
ATOM      2  O   UNL     1      15.145   6.293  19.433  0.00  0.00    -0.364 OA
ATOM      3  O   UNL     1      18.139   6.812  21.285  0.00  0.00    -0.273 OA
ATOM      4  O   UNL     1      10.858   8.443  19.217  0.00  0.00    -0.270 OA
ATOM      5  N   UNL     1      13.129   8.496  19.704  0.00  0.00    -0.293 N 
ATOM      6  N   UNL     1      16.714   8.396  20.350  0.00  0.00    -0.296 N 
ATOM      7  C   UNL     1      15.485   8.668  19.616  0.00  0.00    +0.123 C 
ATOM      8  C   UNL     1      15.036   7.519  18.716  0.00  0.00    +0.158 C 
ATOM      9  C   UNL     1      14.274   8.869  20.532  0.00  0.00    +0.133 C 
ATOM     10  C   UNL     1      13.560   7.815  18.487  0.00  0.00    +0.141 C 
ATOM     11  C   UNL     1      16.491   6.020  19.754  0.00  0.00    +0.256 C 
ATOM     12  C   UNL     1      17.185   7.104  20.562  0.00  0.00    +0.241 C 
ATOM     13  C   UNL     1      11.793   8.777  19.943  0.00  0.00    +0.247 C 
ATOM     14  C   UNL     1      17.356   9.529  21.003  0.00  0.00    +0.132 C 
ENDROOT
BRANCH  13  15
ATOM      1  F   UNL     1      10.555  11.700  24.558  0.00  0.00    -0.205 F 
ATOM     15  C   UNL     1      11.467   9.545  21.155  0.00  0.00    +0.037 A 
ATOM     16  C   UNL     1      10.983   8.889  22.287  0.00  0.00    +0.016 A 
ATOM     17  C   UNL     1      11.643  10.929  21.174  0.00  0.00    +0.016 A 
ATOM     18  C   UNL     1      10.674   9.616  23.437  0.00  0.00    +0.039 A 
ATOM     19  C   UNL     1      11.334  11.657  22.323  0.00  0.00    +0.039 A 
ATOM     20  C   UNL     1      10.850  11.001  23.455  0.00  0.00    +0.123 A 
ENDBRANCH  13  15
TORSDOF 1
ENDMDL
MODEL 2
REMARK VINA RESULT:      -6.2      2.233      4.186
REMARK  Name = 56775309
REMARK  2 active torsions:
REMARK  status: ('A' for Active; 'I' for Inactive)
REMARK    1  A    between atoms: N_6  and  C_14
REMARK    2  A    between atoms: C_13  and  C_15
REMARK                            x       y       z     vdW  Elec       q    Type
REMARK                         _______ _______ _______ _____ _____    ______ ____
ROOT
ATOM      2  O   UNL     1      14.634   8.528  17.241  0.00  0.00    -0.364 OA
ATOM      3  O   UNL     1      12.347   9.947  14.914  0.00  0.00    -0.273 OA
ATOM      4  O   UNL     1      14.640   7.773  21.982  0.00  0.00    -0.270 OA
ATOM      5  N   UNL     1      13.502   8.108  19.986  0.00  0.00    -0.293 N 
ATOM      6  N   UNL     1      11.900   8.586  16.748  0.00  0.00    -0.296 N 
ATOM      7  C   UNL     1      12.419   7.860  17.900  0.00  0.00    +0.123 C 
ATOM      8  C   UNL     1      13.878   7.435  17.755  0.00  0.00    +0.158 C 
ATOM      9  C   UNL     1      12.439   8.703  19.177  0.00  0.00    +0.133 C 
ATOM     10  C   UNL     1      14.309   7.185  19.195  0.00  0.00    +0.141 C 
ATOM     11  C   UNL     1      14.206   8.862  15.940  0.00  0.00    +0.256 C 
ATOM     12  C   UNL     1      12.733   9.211  15.825  0.00  0.00    +0.241 C 
ATOM     13  C   UNL     1      13.731   8.295  21.340  0.00  0.00    +0.247 C 
ATOM     14  C   UNL     1      10.457   8.776  16.683  0.00  0.00    +0.132 C 
ENDROOT
BRANCH  13  15
ATOM      1  F   UNL     1      10.218  11.661  24.114  0.00  0.00    -0.205 F 
ATOM     15  C   UNL     1      12.809   9.179  22.070  0.00  0.00    +0.037 A 
ATOM     16  C   UNL     1      13.206  10.472  22.413  0.00  0.00    +0.016 A 
ATOM     17  C   UNL     1      11.536   8.726  22.418  0.00  0.00    +0.016 A 
ATOM     18  C   UNL     1      12.332  11.310  23.104  0.00  0.00    +0.039 A 
ATOM     19  C   UNL     1      10.661   9.564  23.109  0.00  0.00    +0.039 A 
ATOM     20  C   UNL     1      11.059  10.857  23.452  0.00  0.00    +0.123 A 
ENDBRANCH  13  15
TORSDOF 1
ENDMDL
MODEL 3
REMARK VINA RESULT:      -6.0     29.898     31.156
REMARK  Name = 56775309
REMARK  2 active torsions:
REMARK  status: ('A' for Active; 'I' for Inactive)
REMARK    1  A    between atoms: N_6  and  C_14
REMARK    2  A    between atoms: C_13  and  C_15
REMARK                            x       y       z     vdW  Elec       q    Type
REMARK                         _______ _______ _______ _____ _____    ______ ____
ROOT
ATOM      2  O   UNL     1     -15.888   2.246  24.968  0.00  0.00    -0.364 OA
ATOM      3  O   UNL     1     -16.142   5.627  23.889  0.00  0.00    -0.273 OA
ATOM      4  O   UNL     1     -15.538   0.045  29.220  0.00  0.00    -0.270 OA
ATOM      5  N   UNL     1     -16.167   1.870  27.930  0.00  0.00    -0.293 N 
ATOM      6  N   UNL     1     -17.138   4.608  25.729  0.00  0.00    -0.296 N 
ATOM      7  C   UNL     1     -17.301   3.404  26.533  0.00  0.00    +0.123 C 
ATOM      8  C   UNL     1     -17.064   2.109  25.760  0.00  0.00    +0.158 C 
ATOM      9  C   UNL     1     -16.284   3.305  27.674  0.00  0.00    +0.133 C 
ATOM     10  C   UNL     1     -16.789   1.094  26.862  0.00  0.00    +0.141 C 
ATOM     11  C   UNL     1     -16.059   3.246  23.989  0.00  0.00    +0.256 C 
ATOM     12  C   UNL     1     -16.423   4.616  24.535  0.00  0.00    +0.241 C 
ATOM     13  C   UNL     1     -15.615   1.259  29.045  0.00  0.00    +0.247 C 
ATOM     14  C   UNL     1     -17.616   5.857  26.307  0.00  0.00    +0.132 C 
ENDROOT
BRANCH  13  15
ATOM      1  F   UNL     1     -13.623   4.580  33.091  0.00  0.00    -0.205 F 
ATOM     15  C   UNL     1     -15.092   2.131  30.108  0.00  0.00    +0.037 A 
ATOM     16  C   UNL     1     -13.716   2.307  30.251  0.00  0.00    +0.016 A 
ATOM     17  C   UNL     1     -15.972   2.783  30.974  0.00  0.00    +0.016 A 
ATOM     18  C   UNL     1     -13.219   3.133  31.259  0.00  0.00    +0.039 A 
ATOM     19  C   UNL     1     -15.475   3.609  31.981  0.00  0.00    +0.039 A 
ATOM     20  C   UNL     1     -14.099   3.785  32.124  0.00  0.00    +0.123 A 
ENDBRANCH  13  15
TORSDOF 1
ENDMDL
MODEL 4
REMARK VINA RESULT:      -5.8     13.942     15.563
REMARK  Name = 56775309
REMARK  2 active torsions:
REMARK  status: ('A' for Active; 'I' for Inactive)
REMARK    1  A    between atoms: N_6  and  C_14
REMARK    2  A    between atoms: C_13  and  C_15
REMARK                            x       y       z     vdW  Elec       q    Type
REMARK                         _______ _______ _______ _____ _____    ______ ____
ROOT
ATOM      2  O   UNL     1      12.685   6.982   2.908  0.00  0.00    -0.364 OA
ATOM      3  O   UNL     1      16.007   7.115   4.175  0.00  0.00    -0.273 OA
ATOM      4  O   UNL     1       8.313   6.569   4.849  0.00  0.00    -0.270 OA
ATOM      5  N   UNL     1      10.553   7.160   5.010  0.00  0.00    -0.293 N 
ATOM      6  N   UNL     1      14.079   8.085   5.045  0.00  0.00    -0.296 N 
ATOM      7  C   UNL     1      12.637   8.273   4.937  0.00  0.00    +0.123 C 
ATOM      8  C   UNL     1      12.101   8.131   3.515  0.00  0.00    +0.158 C 
ATOM      9  C   UNL     1      11.838   7.218   5.705  0.00  0.00    +0.133 C 
ATOM     10  C   UNL     1      10.617   7.861   3.731  0.00  0.00    +0.141 C 
ATOM     11  C   UNL     1      14.079   7.144   2.772  0.00  0.00    +0.256 C 
ATOM     12  C   UNL     1      14.817   7.419   4.071  0.00  0.00    +0.241 C 
ATOM     13  C   UNL     1       9.374   6.595   5.469  0.00  0.00    +0.247 C 
ATOM     14  C   UNL     1      14.703   8.479   6.300  0.00  0.00    +0.132 C 
ENDROOT
BRANCH  13  15
ATOM      1  F   UNL     1       9.430   4.281  10.569  0.00  0.00    -0.205 F 
ATOM     15  C   UNL     1       9.390   5.987   6.809  0.00  0.00    +0.037 A 
ATOM     16  C   UNL     1       9.005   6.738   7.920  0.00  0.00    +0.016 A 
ATOM     17  C   UNL     1       9.788   4.659   6.970  0.00  0.00    +0.016 A 
ATOM     18  C   UNL     1       9.019   6.163   9.190  0.00  0.00    +0.039 A 
ATOM     19  C   UNL     1       9.802   4.084   8.240  0.00  0.00    +0.039 A 
ATOM     20  C   UNL     1       9.417   4.835   9.350  0.00  0.00    +0.123 A 
ENDBRANCH  13  15
TORSDOF 1
ENDMDL
MODEL 5
REMARK VINA RESULT:      -5.7     26.723     28.441
REMARK  Name = 56775309
REMARK  2 active torsions:
REMARK  status: ('A' for Active; 'I' for Inactive)
REMARK    1  A    between atoms: N_6  and  C_14
REMARK    2  A    between atoms: C_13  and  C_15
REMARK                            x       y       z     vdW  Elec       q    Type
REMARK                         _______ _______ _______ _____ _____    ______ ____
ROOT
ATOM      2  O   UNL     1      -4.046 -12.403  15.720  0.00  0.00    -0.364 OA
ATOM      3  O   UNL     1      -7.539 -12.468  16.391  0.00  0.00    -0.273 OA
ATOM      4  O   UNL     1      -1.289 -10.690  12.182  0.00  0.00    -0.270 OA
ATOM      5  N   UNL     1      -3.266 -10.670  13.400  0.00  0.00    -0.293 N 
ATOM      6  N   UNL     1      -6.268 -10.752  15.465  0.00  0.00    -0.296 N 
ATOM      7  C   UNL     1      -4.963 -10.297  15.003  0.00  0.00    +0.123 C 
ATOM      8  C   UNL     1      -3.788 -11.002  15.677  0.00  0.00    +0.158 C 
ATOM      9  C   UNL     1      -4.721 -10.586  13.519  0.00  0.00    +0.133 C 
ATOM     10  C   UNL     1      -2.636 -10.752  14.713  0.00  0.00    +0.141 C 
ATOM     11  C   UNL     1      -5.168 -12.679  16.527  0.00  0.00    +0.256 C 
ATOM     12  C   UNL     1      -6.446 -11.977  16.103  0.00  0.00    +0.241 C 
ATOM     13  C   UNL     1      -2.515 -10.616  12.236  0.00  0.00    +0.247 C 
ATOM     14  C   UNL     1      -7.420  -9.946  15.087  0.00  0.00    +0.132 C 
ENDROOT
BRANCH  13  15
ATOM      1  F   UNL     1      -5.274  -9.965   7.406  0.00  0.00    -0.205 F 
ATOM     15  C   UNL     1      -3.239 -10.445  10.967  0.00  0.00    +0.037 A 
ATOM     16  C   UNL     1      -3.770 -11.556  10.312  0.00  0.00    +0.016 A 
ATOM     17  C   UNL     1      -3.395  -9.172  10.418  0.00  0.00    +0.016 A 
ATOM     18  C   UNL     1      -4.458 -11.395   9.109  0.00  0.00    +0.039 A 
ATOM     19  C   UNL     1      -4.082  -9.010   9.215  0.00  0.00    +0.039 A 
ATOM     20  C   UNL     1      -4.614 -10.121   8.560  0.00  0.00    +0.123 A 
ENDBRANCH  13  15
TORSDOF 1
ENDMDL
MODEL 6
REMARK VINA RESULT:      -5.7     24.987     26.001
REMARK  Name = 56775309
REMARK  2 active torsions:
REMARK  status: ('A' for Active; 'I' for Inactive)
REMARK    1  A    between atoms: N_6  and  C_14
REMARK    2  A    between atoms: C_13  and  C_15
REMARK                            x       y       z     vdW  Elec       q    Type
REMARK                         _______ _______ _______ _____ _____    ______ ____
ROOT
ATOM      2  O   UNL     1     -11.695  11.457  16.203  0.00  0.00    -0.364 OA
ATOM      3  O   UNL     1     -11.965   9.389  13.320  0.00  0.00    -0.273 OA
ATOM      4  O   UNL     1     -11.582  10.694  20.942  0.00  0.00    -0.270 OA
ATOM      5  N   UNL     1     -11.265   9.955  18.763  0.00  0.00    -0.293 N 
ATOM      6  N   UNL     1     -10.771   9.003  15.280  0.00  0.00    -0.296 N 
ATOM      7  C   UNL     1     -10.411   9.465  16.615  0.00  0.00    +0.123 C 
ATOM      8  C   UNL     1     -10.485  10.980  16.785  0.00  0.00    +0.158 C 
ATOM      9  C   UNL     1     -11.363   8.957  17.700  0.00  0.00    +0.133 C 
ATOM     10  C   UNL     1     -10.575  11.153  18.296  0.00  0.00    +0.141 C 
ATOM     11  C   UNL     1     -11.702  11.231  14.812  0.00  0.00    +0.256 C 
ATOM     12  C   UNL     1     -11.520   9.780  14.401  0.00  0.00    +0.241 C 
ATOM     13  C   UNL     1     -11.685   9.826  20.078  0.00  0.00    +0.247 C 
ATOM     14  C   UNL     1     -10.457   7.619  14.953  0.00  0.00    +0.132 C 
ENDROOT
BRANCH  13  15
ATOM      1  F   UNL     1     -13.996   4.953  21.589  0.00  0.00    -0.205 F 
ATOM     15  C   UNL     1     -12.292   8.545  20.474  0.00  0.00    +0.037 A 
ATOM     16  C   UNL     1     -11.480   7.471  20.837  0.00  0.00    +0.016 A 
ATOM     17  C   UNL     1     -13.681   8.405  20.487  0.00  0.00    +0.016 A 
ATOM     18  C   UNL     1     -12.054   6.257  21.214  0.00  0.00    +0.039 A 
ATOM     19  C   UNL     1     -14.255   7.191  20.864  0.00  0.00    +0.039 A 
ATOM     20  C   UNL     1     -13.443   6.117  21.227  0.00  0.00    +0.123 A 
ENDBRANCH  13  15
TORSDOF 1
ENDMDL
MODEL 7
REMARK VINA RESULT:      -5.5      2.420      3.902
REMARK  Name = 56775309
REMARK  2 active torsions:
REMARK  status: ('A' for Active; 'I' for Inactive)
REMARK    1  A    between atoms: N_6  and  C_14
REMARK    2  A    between atoms: C_13  and  C_15
REMARK                            x       y       z     vdW  Elec       q    Type
REMARK                         _______ _______ _______ _____ _____    ______ ____
ROOT
ATOM      2  O   UNL     1      14.586   9.322  18.294  0.00  0.00    -0.364 OA
ATOM      3  O   UNL     1      12.043   6.953  17.533  0.00  0.00    -0.273 OA
ATOM      4  O   UNL     1      15.400  12.413  21.876  0.00  0.00    -0.270 OA
ATOM      5  N   UNL     1      14.409  10.480  21.054  0.00  0.00    -0.293 N 
ATOM      6  N   UNL     1      12.992   7.455  19.597  0.00  0.00    -0.296 N 
ATOM      7  C   UNL     1      13.929   8.273  20.357  0.00  0.00    +0.123 C 
ATOM      8  C   UNL     1      15.090   8.815  19.526  0.00  0.00    +0.158 C 
ATOM      9  C   UNL     1      13.291   9.548  20.915  0.00  0.00    +0.133 C 
ATOM     10  C   UNL     1      15.594   9.986  20.360  0.00  0.00    +0.141 C 
ATOM     11  C   UNL     1      14.019   8.286  17.523  0.00  0.00    +0.256 C 
ATOM     12  C   UNL     1      12.903   7.519  18.209  0.00  0.00    +0.241 C 
ATOM     13  C   UNL     1      14.435  11.657  21.786  0.00  0.00    +0.247 C 
ATOM     14  C   UNL     1      12.027   6.676  20.361  0.00  0.00    +0.132 C 
ENDROOT
BRANCH  13  15
ATOM      1  F   UNL     1       9.793  13.058  24.589  0.00  0.00    -0.205 F 
ATOM     15  C   UNL     1      13.215  12.026  22.522  0.00  0.00    +0.037 A 
ATOM     16  C   UNL     1      12.184  12.702  21.870  0.00  0.00    +0.016 A 
ATOM     17  C   UNL     1      13.089  11.698  23.873  0.00  0.00    +0.016 A 
ATOM     18  C   UNL     1      11.028  13.051  22.568  0.00  0.00    +0.039 A 
ATOM     19  C   UNL     1      11.933  12.048  24.571  0.00  0.00    +0.039 A 
ATOM     20  C   UNL     1      10.902  12.724  23.918  0.00  0.00    +0.123 A 
ENDBRANCH  13  15
TORSDOF 1
ENDMDL
MODEL 8
REMARK VINA RESULT:      -5.4     26.366     27.730
REMARK  Name = 56775309
REMARK  2 active torsions:
REMARK  status: ('A' for Active; 'I' for Inactive)
REMARK    1  A    between atoms: N_6  and  C_14
REMARK    2  A    between atoms: C_13  and  C_15
REMARK                            x       y       z     vdW  Elec       q    Type
REMARK                         _______ _______ _______ _____ _____    ______ ____
ROOT
ATOM      2  O   UNL     1      -2.681  -9.962  11.698  0.00  0.00    -0.364 OA
ATOM      3  O   UNL     1      -5.478 -10.303   9.525  0.00  0.00    -0.273 OA
ATOM      4  O   UNL     1      -1.931 -10.553  16.403  0.00  0.00    -0.270 OA
ATOM      5  N   UNL     1      -3.137 -11.009  14.471  0.00  0.00    -0.293 N 
ATOM      6  N   UNL     1      -4.861 -11.645  11.324  0.00  0.00    -0.296 N 
ATOM      7  C   UNL     1      -3.936 -11.881  12.425  0.00  0.00    +0.123 C 
ATOM      8  C   UNL     1      -2.547 -11.288  12.203  0.00  0.00    +0.158 C 
ATOM      9  C   UNL     1      -4.380 -11.218  13.731  0.00  0.00    +0.133 C 
ATOM     10  C   UNL     1      -1.974 -11.212  13.612  0.00  0.00    +0.141 C 
ATOM     11  C   UNL     1      -3.297  -9.971  10.430  0.00  0.00    +0.256 C 
ATOM     12  C   UNL     1      -4.664 -10.632  10.390  0.00  0.00    +0.241 C 
ATOM     13  C   UNL     1      -3.001 -10.721  15.820  0.00  0.00    +0.247 C 
ATOM     14  C   UNL     1      -6.101 -12.409  11.328  0.00  0.00    +0.132 C 
ENDROOT
BRANCH  13  15
ATOM      1  F   UNL     1      -7.683 -10.337  18.868  0.00  0.00    -0.205 F 
ATOM     15  C   UNL     1      -4.231 -10.621  16.621  0.00  0.00    +0.037 A 
ATOM     16  C   UNL     1      -4.373 -11.384  17.780  0.00  0.00    +0.016 A 
ATOM     17  C   UNL     1      -5.256  -9.763  16.221  0.00  0.00    +0.016 A 
ATOM     18  C   UNL     1      -5.539 -11.288  18.539  0.00  0.00    +0.039 A 
ATOM     19  C   UNL     1      -6.422  -9.667  16.980  0.00  0.00    +0.039 A 
ATOM     20  C   UNL     1      -6.564 -10.430  18.140  0.00  0.00    +0.123 A 
ENDBRANCH  13  15
TORSDOF 1
ENDMDL
MODEL 9
REMARK VINA RESULT:      -5.4     26.950     28.369
REMARK  Name = 56775309
REMARK  2 active torsions:
REMARK  status: ('A' for Active; 'I' for Inactive)
REMARK    1  A    between atoms: N_6  and  C_14
REMARK    2  A    between atoms: C_13  and  C_15
REMARK                            x       y       z     vdW  Elec       q    Type
REMARK                         _______ _______ _______ _____ _____    ______ ____
ROOT
ATOM      2  O   UNL     1      -2.882 -12.269  12.051  0.00  0.00    -0.364 OA
ATOM      3  O   UNL     1      -5.467 -14.389  10.834  0.00  0.00    -0.273 OA
ATOM      4  O   UNL     1      -1.807 -10.301  16.297  0.00  0.00    -0.270 OA
ATOM      5  N   UNL     1      -2.851 -11.947  15.033  0.00  0.00    -0.293 N 
ATOM      6  N   UNL     1      -4.363 -14.470  12.881  0.00  0.00    -0.296 N 
ATOM      7  C   UNL     1      -3.374 -13.877  13.772  0.00  0.00    +0.123 C 
ATOM      8  C   UNL     1      -2.283 -13.092  13.049  0.00  0.00    +0.158 C 
ATOM      9  C   UNL     1      -3.972 -12.830  14.716  0.00  0.00    +0.133 C 
ATOM     10  C   UNL     1      -1.721 -12.193  14.142  0.00  0.00    +0.141 C 
ATOM     11  C   UNL     1      -3.502 -13.058  11.061  0.00  0.00    +0.256 C 
ATOM     12  C   UNL     1      -4.559 -14.017  11.580  0.00  0.00    +0.241 C 
ATOM     13  C   UNL     1      -2.773 -11.026  16.066  0.00  0.00    +0.247 C 
ATOM     14  C   UNL     1      -5.264 -15.458  13.459  0.00  0.00    +0.132 C 
ENDROOT
BRANCH  13  15
ATOM      1  F   UNL     1      -7.191 -10.598  19.481  0.00  0.00    -0.205 F 
ATOM     15  C   UNL     1      -3.934 -10.913  16.963  0.00  0.00    +0.037 A 
ATOM     16  C   UNL     1      -5.012 -10.101  16.610  0.00  0.00    +0.016 A 
ATOM     17  C   UNL     1      -3.957 -11.618  18.167  0.00  0.00    +0.016 A 
ATOM     18  C   UNL     1      -6.112  -9.994  17.461  0.00  0.00    +0.039 A 
ATOM     19  C   UNL     1      -5.057 -11.511  19.017  0.00  0.00    +0.039 A 
ATOM     20  C   UNL     1      -6.135 -10.699  18.665  0.00  0.00    +0.123 A 
ENDBRANCH  13  15
TORSDOF 1
ENDMDL
MODEL 10
REMARK VINA RESULT:      -5.3     26.646     28.421
REMARK  Name = 56775309
REMARK  2 active torsions:
REMARK  status: ('A' for Active; 'I' for Inactive)
REMARK    1  A    between atoms: N_6  and  C_14
REMARK    2  A    between atoms: C_13  and  C_15
REMARK                            x       y       z     vdW  Elec       q    Type
REMARK                         _______ _______ _______ _____ _____    ______ ____
ROOT
ATOM      2  O   UNL     1      -4.601 -12.260  17.754  0.00  0.00    -0.364 OA
ATOM      3  O   UNL     1      -8.142 -11.918  17.681  0.00  0.00    -0.273 OA
ATOM      4  O   UNL     1      -1.056 -11.669  14.570  0.00  0.00    -0.270 OA
ATOM      5  N   UNL     1      -3.209 -11.212  15.313  0.00  0.00    -0.293 N 
ATOM      6  N   UNL     1      -6.530 -10.576  16.672  0.00  0.00    -0.296 N 
ATOM      7  C   UNL     1      -5.118 -10.340  16.400  0.00  0.00    +0.123 C 
ATOM      8  C   UNL     1      -4.179 -10.934  17.447  0.00  0.00    +0.158 C 
ATOM      9  C   UNL     1      -4.641 -11.002  15.105  0.00  0.00    +0.133 C 
ATOM     10  C   UNL     1      -2.847 -11.010  16.712  0.00  0.00    +0.141 C 
ATOM     11  C   UNL     1      -5.878 -12.251  18.351  0.00  0.00    +0.256 C 
ATOM     12  C   UNL     1      -6.965 -11.590  17.522  0.00  0.00    +0.241 C 
ATOM     13  C   UNL     1      -2.254 -11.500  14.350  0.00  0.00    +0.247 C 
ATOM     14  C   UNL     1      -7.490  -9.811  15.889  0.00  0.00    +0.132 C 
ENDROOT
BRANCH  13  15
ATOM      1  F   UNL     1      -3.972 -11.879   9.033  0.00  0.00    -0.205 F 
ATOM     15  C   UNL     1      -2.706 -11.599  12.954  0.00  0.00    +0.037 A 
ATOM     16  C   UNL     1      -2.751 -10.458  12.152  0.00  0.00    +0.016 A 
ATOM     17  C   UNL     1      -3.089 -12.835  12.430  0.00  0.00    +0.016 A 
ATOM     18  C   UNL     1      -3.178 -10.552  10.828  0.00  0.00    +0.039 A 
ATOM     19  C   UNL     1      -3.517 -12.929  11.106  0.00  0.00    +0.039 A 
ATOM     20  C   UNL     1      -3.562 -11.788  10.304  0.00  0.00    +0.123 A 
ENDBRANCH  13  15
TORSDOF 1
ENDMDL
