MODEL 1
REMARK VINA RESULT:      -7.2      0.000      0.000
REMARK  Name = 40777724
REMARK  9 active torsions:
REMARK  status: ('A' for Active; 'I' for Inactive)
REMARK    1  A    between atoms: O_2  and  C_27
REMARK    2  A    between atoms: O_2  and  C_29
REMARK    3  A    between atoms: N_3  and  C_8
REMARK    4  A    between atoms: N_3  and  C_14
REMARK    5  A    between atoms: N_4  and  C_17
REMARK    6  A    between atoms: C_6  and  C_9
REMARK    7  A    between atoms: C_12  and  C_15
REMARK    8  A    between atoms: C_13  and  C_16
REMARK    9  A    between atoms: C_14  and  C_18
REMARK                            x       y       z     vdW  Elec       q    Type
REMARK                         _______ _______ _______ _____ _____    ______ ____
ROOT
ATOM      6  C   UNL     1      -2.946 -11.176  12.624  0.00  0.00    +0.047 C 
ATOM      7  C   UNL     1      -3.875 -10.915  13.826  0.00  0.00    +0.035 C 
ATOM      8  C   UNL     1      -3.924 -12.230  14.622  0.00  0.00    +0.078 C 
ATOM     10  C   UNL     1      -2.997 -12.671  12.502  0.00  0.00    -0.021 C 
ATOM     11  C   UNL     1      -3.522 -13.240  13.593  0.00  0.00    -0.012 C 
ENDROOT
BRANCH   6   9
ATOM      4  N   UNL     1      -4.444  -9.653   9.648  0.00  0.00    -0.236 N 
ATOM      5  N   UNL     1      -3.272  -8.998   9.598  0.00  0.00    -0.171 NA
ATOM      9  C   UNL     1      -3.357 -10.426  11.378  0.00  0.00    +0.003 A 
ATOM     12  C   UNL     1      -4.546 -10.521  10.695  0.00  0.00    +0.046 A 
ATOM     13  C   UNL     1      -2.613  -9.473  10.657  0.00  0.00    +0.064 A 
ATOM     15  C   UNL     1      -5.743 -11.348  10.950  0.00  0.00    +0.066 C 
ATOM     16  C   UNL     1      -1.255  -8.980  10.946  0.00  0.00    +0.068 C 
BRANCH   4  17
ATOM      1 BR   UNL     1      -8.831  -7.060   8.313  0.00  0.00    -0.050 Br
ATOM     17  C   UNL     1      -5.415  -9.411   8.676  0.00  0.00    +0.067 A 
ATOM     19  C   UNL     1      -6.452  -8.514   8.934  0.00  0.00    +0.043 A 
ATOM     20  C   UNL     1      -5.351 -10.067   7.447  0.00  0.00    +0.028 A 
ATOM     25  C   UNL     1      -7.424  -8.272   7.963  0.00  0.00    +0.020 A 
ATOM     26  C   UNL     1      -6.323  -9.826   6.475  0.00  0.00    +0.003 A 
ATOM     28  C   UNL     1      -7.359  -8.928   6.733  0.00  0.00    +0.015 A 
ENDBRANCH   4  17
ENDBRANCH   6   9
BRANCH   8   3
ATOM      3  N   UNL     1      -3.001 -12.222  15.751  0.00  0.00    -0.306 NA
ATOM     30  H   UNL     1      -2.047 -12.331  15.406  0.00  0.00    +0.123 HD
BRANCH   3  14
ATOM     14  C   UNL     1      -3.095 -10.971  16.494  0.00  0.00    +0.116 C 
BRANCH  14  18
ATOM     18  C   UNL     1      -4.273 -10.962  17.430  0.00  0.00    -0.033 A 
ATOM     21  C   UNL     1      -5.414 -10.225  17.110  0.00  0.00    +0.008 A 
ATOM     22  C   UNL     1      -4.226 -11.690  18.618  0.00  0.00    +0.008 A 
ATOM     23  C   UNL     1      -6.506 -10.217  17.976  0.00  0.00    +0.046 A 
ATOM     24  C   UNL     1      -5.318 -11.683  19.486  0.00  0.00    +0.046 A 
ATOM     27  C   UNL     1      -6.458 -10.946  19.165  0.00  0.00    +0.120 A 
BRANCH  27   2
ATOM      2  O   UNL     1      -7.524 -10.938  20.011  0.00  0.00    -0.495 OA
ATOM     29  C   UNL     1      -8.773 -11.384  19.485  0.00  0.00    +0.277 C 
ENDBRANCH  27   2
ENDBRANCH  14  18
ENDBRANCH   3  14
ENDBRANCH   8   3
TORSDOF 6
ENDMDL
MODEL 2
REMARK VINA RESULT:      -6.7      3.602      8.018
REMARK  Name = 40777724
REMARK  9 active torsions:
REMARK  status: ('A' for Active; 'I' for Inactive)
REMARK    1  A    between atoms: O_2  and  C_27
REMARK    2  A    between atoms: O_2  and  C_29
REMARK    3  A    between atoms: N_3  and  C_8
REMARK    4  A    between atoms: N_3  and  C_14
REMARK    5  A    between atoms: N_4  and  C_17
REMARK    6  A    between atoms: C_6  and  C_9
REMARK    7  A    between atoms: C_12  and  C_15
REMARK    8  A    between atoms: C_13  and  C_16
REMARK    9  A    between atoms: C_14  and  C_18
REMARK                            x       y       z     vdW  Elec       q    Type
REMARK                         _______ _______ _______ _____ _____    ______ ____
ROOT
ATOM      6  C   UNL     1      -4.545 -11.468  14.564  0.00  0.00    +0.047 C 
ATOM      7  C   UNL     1      -3.179 -10.755  14.567  0.00  0.00    +0.035 C 
ATOM      8  C   UNL     1      -2.142 -11.813  14.152  0.00  0.00    +0.078 C 
ATOM     10  C   UNL     1      -4.151 -12.909  14.711  0.00  0.00    -0.021 C 
ATOM     11  C   UNL     1      -2.847 -13.093  14.479  0.00  0.00    -0.012 C 
ENDROOT
BRANCH   6   9
ATOM      4  N   UNL     1      -7.218 -10.185  16.716  0.00  0.00    -0.236 N 
ATOM      5  N   UNL     1      -6.283 -10.318  17.672  0.00  0.00    -0.171 NA
ATOM      9  C   UNL     1      -5.487 -10.958  15.629  0.00  0.00    +0.003 A 
ATOM     12  C   UNL     1      -6.791 -10.555  15.474  0.00  0.00    +0.046 A 
ATOM     13  C   UNL     1      -5.229 -10.791  17.004  0.00  0.00    +0.064 A 
ATOM     15  C   UNL     1      -7.647 -10.495  14.271  0.00  0.00    +0.066 C 
ATOM     16  C   UNL     1      -3.978 -11.073  17.728  0.00  0.00    +0.068 C 
BRANCH   4  17
ATOM      1 BR   UNL     1     -10.841  -6.420  16.053  0.00  0.00    -0.050 Br
ATOM     17  C   UNL     1      -8.484  -9.703  17.047  0.00  0.00    +0.067 A 
ATOM     19  C   UNL     1      -8.948  -8.515  16.482  0.00  0.00    +0.043 A 
ATOM     20  C   UNL     1      -9.286 -10.408  17.945  0.00  0.00    +0.028 A 
ATOM     25  C   UNL     1     -10.214  -8.032  16.815  0.00  0.00    +0.020 A 
ATOM     26  C   UNL     1     -10.552  -9.925  18.277  0.00  0.00    +0.003 A 
ATOM     28  C   UNL     1     -11.016  -8.737  17.712  0.00  0.00    +0.015 A 
ENDBRANCH   4  17
ENDBRANCH   6   9
BRANCH   8   3
ATOM      3  N   UNL     1      -1.814 -11.732  12.734  0.00  0.00    -0.306 NA
ATOM     30  H   UNL     1      -2.412 -12.374  12.213  0.00  0.00    +0.123 HD
BRANCH   3  14
ATOM     14  C   UNL     1      -2.018 -10.381  12.227  0.00  0.00    +0.116 C 
BRANCH  14  18
ATOM     18  C   UNL     1      -2.910 -10.365  11.015  0.00  0.00    -0.033 A 
ATOM     21  C   UNL     1      -3.124  -9.174  10.321  0.00  0.00    +0.008 A 
ATOM     22  C   UNL     1      -3.522 -11.542  10.583  0.00  0.00    +0.008 A 
ATOM     23  C   UNL     1      -3.949  -9.159   9.197  0.00  0.00    +0.046 A 
ATOM     24  C   UNL     1      -4.348 -11.528   9.459  0.00  0.00    +0.046 A 
ATOM     27  C   UNL     1      -4.562 -10.337   8.766  0.00  0.00    +0.120 A 
BRANCH  27   2
ATOM      2  O   UNL     1      -5.367 -10.323   7.670  0.00  0.00    -0.495 OA
ATOM     29  C   UNL     1      -4.970 -11.131   6.562  0.00  0.00    +0.277 C 
ENDBRANCH  27   2
ENDBRANCH  14  18
ENDBRANCH   3  14
ENDBRANCH   8   3
TORSDOF 6
ENDMDL
MODEL 3
REMARK VINA RESULT:      -6.6      2.501      4.036
REMARK  Name = 40777724
REMARK  9 active torsions:
REMARK  status: ('A' for Active; 'I' for Inactive)
REMARK    1  A    between atoms: O_2  and  C_27
REMARK    2  A    between atoms: O_2  and  C_29
REMARK    3  A    between atoms: N_3  and  C_8
REMARK    4  A    between atoms: N_3  and  C_14
REMARK    5  A    between atoms: N_4  and  C_17
REMARK    6  A    between atoms: C_6  and  C_9
REMARK    7  A    between atoms: C_12  and  C_15
REMARK    8  A    between atoms: C_13  and  C_16
REMARK    9  A    between atoms: C_14  and  C_18
REMARK                            x       y       z     vdW  Elec       q    Type
REMARK                         _______ _______ _______ _____ _____    ______ ____
ROOT
ATOM      6  C   UNL     1      -4.977 -11.190  16.004  0.00  0.00    +0.047 C 
ATOM      7  C   UNL     1      -5.002 -12.685  16.378  0.00  0.00    +0.035 C 
ATOM      8  C   UNL     1      -4.821 -12.748  17.904  0.00  0.00    +0.078 C 
ATOM     10  C   UNL     1      -4.250 -10.584  17.170  0.00  0.00    -0.021 C 
ATOM     11  C   UNL     1      -4.175 -11.431  18.202  0.00  0.00    -0.012 C 
ENDROOT
BRANCH   6   9
ATOM      4  N   UNL     1      -3.994 -10.518  12.539  0.00  0.00    -0.236 N 
ATOM      5  N   UNL     1      -2.754 -10.577  13.056  0.00  0.00    -0.171 NA
ATOM      9  C   UNL     1      -4.346 -10.922  14.657  0.00  0.00    +0.003 A 
ATOM     12  C   UNL     1      -4.983 -10.719  13.458  0.00  0.00    +0.046 A 
ATOM     13  C   UNL     1      -2.975 -10.823  14.349  0.00  0.00    +0.064 A 
ATOM     15  C   UNL     1      -6.421 -10.698  13.118  0.00  0.00    +0.066 C 
ATOM     16  C   UNL     1      -1.831 -10.957  15.267  0.00  0.00    +0.068 C 
BRANCH   4  17
ATOM      1 BR   UNL     1      -4.433 -12.530   7.691  0.00  0.00    -0.050 Br
ATOM     17  C   UNL     1      -4.166 -10.271  11.177  0.00  0.00    +0.067 A 
ATOM     19  C   UNL     1      -4.209 -11.336  10.276  0.00  0.00    +0.043 A 
ATOM     20  C   UNL     1      -4.292  -8.961  10.716  0.00  0.00    +0.028 A 
ATOM     25  C   UNL     1      -4.379 -11.089   8.913  0.00  0.00    +0.020 A 
ATOM     26  C   UNL     1      -4.462  -8.715   9.353  0.00  0.00    +0.003 A 
ATOM     28  C   UNL     1      -4.506  -9.779   8.452  0.00  0.00    +0.015 A 
ENDBRANCH   4  17
ENDBRANCH   6   9
BRANCH   8   3
ATOM      3  N   UNL     1      -6.094 -12.888  18.601  0.00  0.00    -0.306 NA
ATOM     30  H   UNL     1      -6.056 -13.704  19.211  0.00  0.00    +0.123 HD
BRANCH   3  14
ATOM     14  C   UNL     1      -6.381 -11.708  19.408  0.00  0.00    +0.116 C 
BRANCH  14  18
ATOM     18  C   UNL     1      -7.695 -11.078  19.032  0.00  0.00    -0.033 A 
ATOM     21  C   UNL     1      -7.743 -10.102  18.036  0.00  0.00    +0.008 A 
ATOM     22  C   UNL     1      -8.867 -11.469  19.680  0.00  0.00    +0.008 A 
ATOM     23  C   UNL     1      -8.960  -9.519  17.687  0.00  0.00    +0.046 A 
ATOM     24  C   UNL     1     -10.085 -10.886  19.332  0.00  0.00    +0.046 A 
ATOM     27  C   UNL     1     -10.132  -9.911  18.336  0.00  0.00    +0.120 A 
BRANCH  27   2
ATOM      2  O   UNL     1     -11.320  -9.342  17.996  0.00  0.00    -0.495 OA
ATOM     29  C   UNL     1     -12.459  -9.698  18.780  0.00  0.00    +0.277 C 
ENDBRANCH  27   2
ENDBRANCH  14  18
ENDBRANCH   3  14
ENDBRANCH   8   3
TORSDOF 6
ENDMDL
MODEL 4
REMARK VINA RESULT:      -6.6      1.232      2.026
REMARK  Name = 40777724
REMARK  9 active torsions:
REMARK  status: ('A' for Active; 'I' for Inactive)
REMARK    1  A    between atoms: O_2  and  C_27
REMARK    2  A    between atoms: O_2  and  C_29
REMARK    3  A    between atoms: N_3  and  C_8
REMARK    4  A    between atoms: N_3  and  C_14
REMARK    5  A    between atoms: N_4  and  C_17
REMARK    6  A    between atoms: C_6  and  C_9
REMARK    7  A    between atoms: C_12  and  C_15
REMARK    8  A    between atoms: C_13  and  C_16
REMARK    9  A    between atoms: C_14  and  C_18
REMARK                            x       y       z     vdW  Elec       q    Type
REMARK                         _______ _______ _______ _____ _____    ______ ____
ROOT
ATOM      6  C   UNL     1      -3.685 -10.142  11.857  0.00  0.00    +0.047 C 
ATOM      7  C   UNL     1      -4.359 -10.856  13.044  0.00  0.00    +0.035 C 
ATOM      8  C   UNL     1      -3.225 -11.262  14.000  0.00  0.00    +0.078 C 
ATOM     10  C   UNL     1      -2.281 -10.670  11.925  0.00  0.00    -0.021 C 
ATOM     11  C   UNL     1      -2.034 -11.271  13.094  0.00  0.00    -0.012 C 
ENDROOT
BRANCH   6   9
ATOM      4  N   UNL     1      -5.501 -10.150   8.675  0.00  0.00    -0.236 N 
ATOM      5  N   UNL     1      -5.206 -11.461   8.701  0.00  0.00    -0.171 NA
ATOM      9  C   UNL     1      -4.387 -10.381  10.540  0.00  0.00    +0.003 A 
ATOM     12  C   UNL     1      -5.033  -9.458   9.754  0.00  0.00    +0.046 A 
ATOM     13  C   UNL     1      -4.525 -11.596   9.842  0.00  0.00    +0.064 A 
ATOM     15  C   UNL     1      -5.237  -8.006   9.936  0.00  0.00    +0.066 C 
ATOM     16  C   UNL     1      -4.019 -12.923  10.231  0.00  0.00    +0.068 C 
BRANCH   4  17
ATOM      1 BR   UNL     1      -9.380  -6.959   7.088  0.00  0.00    -0.050 Br
ATOM     17  C   UNL     1      -6.225  -9.624   7.604  0.00  0.00    +0.067 A 
ATOM     19  C   UNL     1      -7.255  -8.714   7.840  0.00  0.00    +0.043 A 
ATOM     20  C   UNL     1      -5.921 -10.011   6.299  0.00  0.00    +0.028 A 
ATOM     25  C   UNL     1      -7.981  -8.189   6.770  0.00  0.00    +0.020 A 
ATOM     26  C   UNL     1      -6.646  -9.486   5.229  0.00  0.00    +0.003 A 
ATOM     28  C   UNL     1      -7.676  -8.576   5.465  0.00  0.00    +0.015 A 
ENDBRANCH   4  17
ENDBRANCH   6   9
BRANCH   8   3
ATOM      3  N   UNL     1      -3.059 -10.308  15.090  0.00  0.00    -0.306 NA
ATOM     30  H   UNL     1      -3.913  -9.758  15.189  0.00  0.00    +0.123 HD
BRANCH   3  14
ATOM     14  C   UNL     1      -2.790 -10.993  16.348  0.00  0.00    +0.116 C 
BRANCH  14  18
ATOM     18  C   UNL     1      -3.978 -10.956  17.272  0.00  0.00    -0.033 A 
ATOM     21  C   UNL     1      -3.957 -11.678  18.465  0.00  0.00    +0.008 A 
ATOM     22  C   UNL     1      -5.100 -10.200  16.936  0.00  0.00    +0.008 A 
ATOM     23  C   UNL     1      -5.057 -11.644  19.322  0.00  0.00    +0.046 A 
ATOM     24  C   UNL     1      -6.202 -10.165  17.791  0.00  0.00    +0.046 A 
ATOM     27  C   UNL     1      -6.180 -10.888  18.985  0.00  0.00    +0.120 A 
BRANCH  27   2
ATOM      2  O   UNL     1      -7.253 -10.854  19.820  0.00  0.00    -0.495 OA
ATOM     29  C   UNL     1      -8.526 -11.169  19.255  0.00  0.00    +0.277 C 
ENDBRANCH  27   2
ENDBRANCH  14  18
ENDBRANCH   3  14
ENDBRANCH   8   3
TORSDOF 6
ENDMDL
MODEL 5
REMARK VINA RESULT:      -6.6      4.030      9.141
REMARK  Name = 40777724
REMARK  9 active torsions:
REMARK  status: ('A' for Active; 'I' for Inactive)
REMARK    1  A    between atoms: O_2  and  C_27
REMARK    2  A    between atoms: O_2  and  C_29
REMARK    3  A    between atoms: N_3  and  C_8
REMARK    4  A    between atoms: N_3  and  C_14
REMARK    5  A    between atoms: N_4  and  C_17
REMARK    6  A    between atoms: C_6  and  C_9
REMARK    7  A    between atoms: C_12  and  C_15
REMARK    8  A    between atoms: C_13  and  C_16
REMARK    9  A    between atoms: C_14  and  C_18
REMARK                            x       y       z     vdW  Elec       q    Type
REMARK                         _______ _______ _______ _____ _____    ______ ____
ROOT
ATOM      6  C   UNL     1      -4.926 -11.219  16.182  0.00  0.00    +0.047 C 
ATOM      7  C   UNL     1      -3.591 -10.524  16.514  0.00  0.00    +0.035 C 
ATOM      8  C   UNL     1      -2.558 -11.083  15.522  0.00  0.00    +0.078 C 
ATOM     10  C   UNL     1      -4.468 -12.460  15.471  0.00  0.00    -0.021 C 
ATOM     11  C   UNL     1      -3.183 -12.378  15.108  0.00  0.00    -0.012 C 
ENDROOT
BRANCH   6   9
ATOM      4  N   UNL     1      -7.465 -11.712  18.776  0.00  0.00    -0.236 N 
ATOM      5  N   UNL     1      -6.392 -11.967  19.544  0.00  0.00    -0.171 NA
ATOM      9  C   UNL     1      -5.788 -11.469  17.398  0.00  0.00    +0.003 A 
ATOM     12  C   UNL     1      -7.157 -11.408  17.482  0.00  0.00    +0.046 A 
ATOM     13  C   UNL     1      -5.370 -11.818  18.697  0.00  0.00    +0.064 A 
ATOM     15  C   UNL     1      -8.176 -11.094  16.459  0.00  0.00    +0.066 C 
ATOM     16  C   UNL     1      -3.993 -12.021  19.179  0.00  0.00    +0.068 C 
BRANCH   4  17
ATOM      1 BR   UNL     1     -11.203 -14.697  20.984  0.00  0.00    -0.050 Br
ATOM     17  C   UNL     1      -8.744 -11.773  19.331  0.00  0.00    +0.067 A 
ATOM     19  C   UNL     1      -9.243 -12.989  19.799  0.00  0.00    +0.043 A 
ATOM     20  C   UNL     1      -9.522 -10.619  19.417  0.00  0.00    +0.028 A 
ATOM     25  C   UNL     1     -10.522 -13.050  20.354  0.00  0.00    +0.020 A 
ATOM     26  C   UNL     1     -10.802 -10.680  19.971  0.00  0.00    +0.003 A 
ATOM     28  C   UNL     1     -11.301 -11.895  20.439  0.00  0.00    +0.015 A 
ENDBRANCH   4  17
ENDBRANCH   6   9
BRANCH   8   3
ATOM      3  N   UNL     1      -2.360 -10.197  14.381  0.00  0.00    -0.306 NA
ATOM     30  H   UNL     1      -1.454  -9.736  14.465  0.00  0.00    +0.123 HD
BRANCH   3  14
ATOM     14  C   UNL     1      -2.395 -10.943  13.128  0.00  0.00    +0.116 C 
BRANCH  14  18
ATOM     18  C   UNL     1      -3.253 -10.263  12.095  0.00  0.00    -0.033 A 
ATOM     21  C   UNL     1      -2.686  -9.814  10.902  0.00  0.00    +0.008 A 
ATOM     22  C   UNL     1      -4.616 -10.083  12.330  0.00  0.00    +0.008 A 
ATOM     23  C   UNL     1      -3.481  -9.185   9.945  0.00  0.00    +0.046 A 
ATOM     24  C   UNL     1      -5.412  -9.454  11.372  0.00  0.00    +0.046 A 
ATOM     27  C   UNL     1      -4.845  -9.005  10.180  0.00  0.00    +0.120 A 
BRANCH  27   2
ATOM      2  O   UNL     1      -5.621  -8.391   9.246  0.00  0.00    -0.495 OA
ATOM     29  C   UNL     1      -7.033  -8.557   9.364  0.00  0.00    +0.277 C 
ENDBRANCH  27   2
ENDBRANCH  14  18
ENDBRANCH   3  14
ENDBRANCH   8   3
TORSDOF 6
ENDMDL
MODEL 6
REMARK VINA RESULT:      -6.6      2.453      3.069
REMARK  Name = 40777724
REMARK  9 active torsions:
REMARK  status: ('A' for Active; 'I' for Inactive)
REMARK    1  A    between atoms: O_2  and  C_27
REMARK    2  A    between atoms: O_2  and  C_29
REMARK    3  A    between atoms: N_3  and  C_8
REMARK    4  A    between atoms: N_3  and  C_14
REMARK    5  A    between atoms: N_4  and  C_17
REMARK    6  A    between atoms: C_6  and  C_9
REMARK    7  A    between atoms: C_12  and  C_15
REMARK    8  A    between atoms: C_13  and  C_16
REMARK    9  A    between atoms: C_14  and  C_18
REMARK                            x       y       z     vdW  Elec       q    Type
REMARK                         _______ _______ _______ _____ _____    ______ ____
ROOT
ATOM      6  C   UNL     1      -3.714  -9.976  11.759  0.00  0.00    +0.047 C 
ATOM      7  C   UNL     1      -4.419 -10.817  12.841  0.00  0.00    +0.035 C 
ATOM      8  C   UNL     1      -3.339 -11.179  13.875  0.00  0.00    +0.078 C 
ATOM     10  C   UNL     1      -2.278 -10.382  11.928  0.00  0.00    -0.021 C 
ATOM     11  C   UNL     1      -2.078 -11.028  13.082  0.00  0.00    -0.012 C 
ENDROOT
BRANCH   6   9
ATOM      4  N   UNL     1      -4.884 -11.059   8.461  0.00  0.00    -0.236 N 
ATOM      5  N   UNL     1      -5.295  -9.782   8.372  0.00  0.00    -0.171 NA
ATOM      9  C   UNL     1      -4.273 -10.196  10.373  0.00  0.00    +0.003 A 
ATOM     12  C   UNL     1      -4.265 -11.357   9.639  0.00  0.00    +0.046 A 
ATOM     13  C   UNL     1      -4.921  -9.261   9.543  0.00  0.00    +0.064 A 
ATOM     15  C   UNL     1      -3.732 -12.698   9.958  0.00  0.00    +0.066 C 
ATOM     16  C   UNL     1      -5.206  -7.844   9.830  0.00  0.00    +0.068 C 
BRANCH   4  17
ATOM      1 BR   UNL     1      -3.310 -12.791   3.741  0.00  0.00    -0.050 Br
ATOM     17  C   UNL     1      -5.107 -11.933   7.397  0.00  0.00    +0.067 A 
ATOM     19  C   UNL     1      -4.247 -11.927   6.298  0.00  0.00    +0.043 A 
ATOM     20  C   UNL     1      -6.190 -12.811   7.431  0.00  0.00    +0.028 A 
ATOM     25  C   UNL     1      -4.471 -12.801   5.233  0.00  0.00    +0.020 A 
ATOM     26  C   UNL     1      -6.413 -13.685   6.366  0.00  0.00    +0.003 A 
ATOM     28  C   UNL     1      -5.554 -13.679   5.268  0.00  0.00    +0.015 A 
ENDBRANCH   4  17
ENDBRANCH   6   9
BRANCH   8   3
ATOM      3  N   UNL     1      -3.358 -10.281  15.023  0.00  0.00    -0.306 NA
ATOM     30  H   UNL     1      -4.288  -9.872  15.116  0.00  0.00    +0.123 HD
BRANCH   3  14
ATOM     14  C   UNL     1      -3.032 -10.996  16.251  0.00  0.00    +0.116 C 
BRANCH  14  18
ATOM     18  C   UNL     1      -4.180 -10.993  17.224  0.00  0.00    -0.033 A 
ATOM     21  C   UNL     1      -5.356 -10.309  16.914  0.00  0.00    +0.008 A 
ATOM     22  C   UNL     1      -4.070 -11.674  18.436  0.00  0.00    +0.008 A 
ATOM     23  C   UNL     1      -6.421 -10.306  17.815  0.00  0.00    +0.046 A 
ATOM     24  C   UNL     1      -5.135 -11.672  19.338  0.00  0.00    +0.046 A 
ATOM     27  C   UNL     1      -6.310 -10.987  19.027  0.00  0.00    +0.120 A 
BRANCH  27   2
ATOM      2  O   UNL     1      -7.348 -10.985  19.906  0.00  0.00    -0.495 OA
ATOM     29  C   UNL     1      -8.665 -10.987  19.356  0.00  0.00    +0.277 C 
ENDBRANCH  27   2
ENDBRANCH  14  18
ENDBRANCH   3  14
ENDBRANCH   8   3
TORSDOF 6
ENDMDL
MODEL 7
REMARK VINA RESULT:      -6.5      2.811      3.422
REMARK  Name = 40777724
REMARK  9 active torsions:
REMARK  status: ('A' for Active; 'I' for Inactive)
REMARK    1  A    between atoms: O_2  and  C_27
REMARK    2  A    between atoms: O_2  and  C_29
REMARK    3  A    between atoms: N_3  and  C_8
REMARK    4  A    between atoms: N_3  and  C_14
REMARK    5  A    between atoms: N_4  and  C_17
REMARK    6  A    between atoms: C_6  and  C_9
REMARK    7  A    between atoms: C_12  and  C_15
REMARK    8  A    between atoms: C_13  and  C_16
REMARK    9  A    between atoms: C_14  and  C_18
REMARK                            x       y       z     vdW  Elec       q    Type
REMARK                         _______ _______ _______ _____ _____    ______ ____
ROOT
ATOM      6  C   UNL     1      -3.304 -10.700  11.806  0.00  0.00    +0.047 C 
ATOM      7  C   UNL     1      -4.254 -11.168  12.925  0.00  0.00    +0.035 C 
ATOM      8  C   UNL     1      -3.363 -11.494  14.136  0.00  0.00    +0.078 C 
ATOM     10  C   UNL     1      -1.996 -11.305  12.226  0.00  0.00    -0.021 C 
ATOM     11  C   UNL     1      -2.030 -11.729  13.495  0.00  0.00    -0.012 C 
ENDROOT
BRANCH   6   9
ATOM      4  N   UNL     1      -4.369 -12.210   8.642  0.00  0.00    -0.236 N 
ATOM      5  N   UNL     1      -4.497 -10.926   8.265  0.00  0.00    -0.171 NA
ATOM      9  C   UNL     1      -3.769 -11.096  10.424  0.00  0.00    +0.003 A 
ATOM     12  C   UNL     1      -3.935 -12.366   9.926  0.00  0.00    +0.046 A 
ATOM     13  C   UNL     1      -4.130 -10.251   9.357  0.00  0.00    +0.064 A 
ATOM     15  C   UNL     1      -3.723 -13.686  10.556  0.00  0.00    +0.066 C 
ATOM     16  C   UNL     1      -4.140  -8.778   9.336  0.00  0.00    +0.068 C 
BRANCH   4  17
ATOM      1 BR   UNL     1      -8.027 -15.452   6.678  0.00  0.00    -0.050 Br
ATOM     17  C   UNL     1      -4.671 -13.230   7.740  0.00  0.00    +0.067 A 
ATOM     19  C   UNL     1      -5.969 -13.738   7.671  0.00  0.00    +0.043 A 
ATOM     20  C   UNL     1      -3.676 -13.743   6.909  0.00  0.00    +0.028 A 
ATOM     25  C   UNL     1      -6.271 -14.759   6.770  0.00  0.00    +0.020 A 
ATOM     26  C   UNL     1      -3.978 -14.764   6.007  0.00  0.00    +0.003 A 
ATOM     28  C   UNL     1      -5.275 -15.272   5.938  0.00  0.00    +0.015 A 
ENDBRANCH   4  17
ENDBRANCH   6   9
BRANCH   8   3
ATOM      3  N   UNL     1      -3.310 -10.392  15.089  0.00  0.00    -0.306 NA
ATOM     30  H   UNL     1      -4.227  -9.951  15.145  0.00  0.00    +0.123 HD
BRANCH   3  14
ATOM     14  C   UNL     1      -2.932 -10.866  16.415  0.00  0.00    +0.116 C 
BRANCH  14  18
ATOM     18  C   UNL     1      -4.113 -10.927  17.346  0.00  0.00    -0.033 A 
ATOM     21  C   UNL     1      -4.026 -11.649  18.537  0.00  0.00    +0.008 A 
ATOM     22  C   UNL     1      -5.294 -10.261  17.020  0.00  0.00    +0.008 A 
ATOM     23  C   UNL     1      -5.120 -11.705  19.400  0.00  0.00    +0.046 A 
ATOM     24  C   UNL     1      -6.389 -10.317  17.883  0.00  0.00    +0.046 A 
ATOM     27  C   UNL     1      -6.301 -11.039  19.073  0.00  0.00    +0.120 A 
BRANCH  27   2
ATOM      2  O   UNL     1      -7.369 -11.093  19.915  0.00  0.00    -0.495 OA
ATOM     29  C   UNL     1      -8.665 -10.981  19.329  0.00  0.00    +0.277 C 
ENDBRANCH  27   2
ENDBRANCH  14  18
ENDBRANCH   3  14
ENDBRANCH   8   3
TORSDOF 6
ENDMDL
MODEL 8
REMARK VINA RESULT:      -6.3     23.689     26.918
REMARK  Name = 40777724
REMARK  9 active torsions:
REMARK  status: ('A' for Active; 'I' for Inactive)
REMARK    1  A    between atoms: O_2  and  C_27
REMARK    2  A    between atoms: O_2  and  C_29
REMARK    3  A    between atoms: N_3  and  C_8
REMARK    4  A    between atoms: N_3  and  C_14
REMARK    5  A    between atoms: N_4  and  C_17
REMARK    6  A    between atoms: C_6  and  C_9
REMARK    7  A    between atoms: C_12  and  C_15
REMARK    8  A    between atoms: C_13  and  C_16
REMARK    9  A    between atoms: C_14  and  C_18
REMARK                            x       y       z     vdW  Elec       q    Type
REMARK                         _______ _______ _______ _____ _____    ______ ____
ROOT
ATOM      6  C   UNL     1      13.426   4.865   1.247  0.00  0.00    +0.047 C 
ATOM      7  C   UNL     1      14.395   5.694   0.382  0.00  0.00    +0.035 C 
ATOM      8  C   UNL     1      15.470   4.713  -0.117  0.00  0.00    +0.078 C 
ATOM     10  C   UNL     1      14.274   3.688   1.634  0.00  0.00    -0.021 C 
ATOM     11  C   UNL     1      15.379   3.605   0.886  0.00  0.00    -0.012 C 
ENDROOT
BRANCH   6   9
ATOM      4  N   UNL     1      11.569   6.397   4.009  0.00  0.00    -0.236 N 
ATOM      5  N   UNL     1      12.669   7.165   4.102  0.00  0.00    -0.171 NA
ATOM      9  C   UNL     1      12.852   5.640   2.410  0.00  0.00    +0.003 A 
ATOM     12  C   UNL     1      11.629   5.469   3.011  0.00  0.00    +0.046 A 
ATOM     13  C   UNL     1      13.449   6.697   3.124  0.00  0.00    +0.064 A 
ATOM     15  C   UNL     1      10.536   4.517   2.724  0.00  0.00    +0.066 C 
ATOM     16  C   UNL     1      14.775   7.299   2.905  0.00  0.00    +0.068 C 
BRANCH   4  17
ATOM      1 BR   UNL     1       9.520   5.458   8.769  0.00  0.00    -0.050 Br
ATOM     17  C   UNL     1      10.507   6.600   4.890  0.00  0.00    +0.067 A 
ATOM     19  C   UNL     1      10.541   6.031   6.164  0.00  0.00    +0.043 A 
ATOM     20  C   UNL     1       9.412   7.369   4.499  0.00  0.00    +0.028 A 
ATOM     25  C   UNL     1       9.478   6.232   7.046  0.00  0.00    +0.020 A 
ATOM     26  C   UNL     1       8.349   7.570   5.380  0.00  0.00    +0.003 A 
ATOM     28  C   UNL     1       8.383   7.001   6.653  0.00  0.00    +0.015 A 
ENDBRANCH   4  17
ENDBRANCH   6   9
BRANCH   8   3
ATOM      3  N   UNL     1      15.191   4.236  -1.466  0.00  0.00    -0.306 NA
ATOM     30  H   UNL     1      14.747   3.319  -1.414  0.00  0.00    +0.123 HD
BRANCH   3  14
ATOM     14  C   UNL     1      14.303   5.152  -2.171  0.00  0.00    +0.116 C 
BRANCH  14  18
ATOM     18  C   UNL     1      12.980   4.512  -2.496  0.00  0.00    -0.033 A 
ATOM     21  C   UNL     1      11.792   5.122  -2.096  0.00  0.00    +0.008 A 
ATOM     22  C   UNL     1      12.942   3.307  -3.198  0.00  0.00    +0.008 A 
ATOM     23  C   UNL     1      10.566   4.530  -2.397  0.00  0.00    +0.046 A 
ATOM     24  C   UNL     1      11.716   2.713  -3.500  0.00  0.00    +0.046 A 
ATOM     27  C   UNL     1      10.528   3.325  -3.099  0.00  0.00    +0.120 A 
BRANCH  27   2
ATOM      2  O   UNL     1       9.332   2.747  -3.394  0.00  0.00    -0.495 OA
ATOM     29  C   UNL     1       9.299   1.321  -3.462  0.00  0.00    +0.277 C 
ENDBRANCH  27   2
ENDBRANCH  14  18
ENDBRANCH   3  14
ENDBRANCH   8   3
TORSDOF 6
ENDMDL
MODEL 9
REMARK VINA RESULT:      -6.2      4.574      9.988
REMARK  Name = 40777724
REMARK  9 active torsions:
REMARK  status: ('A' for Active; 'I' for Inactive)
REMARK    1  A    between atoms: O_2  and  C_27
REMARK    2  A    between atoms: O_2  and  C_29
REMARK    3  A    between atoms: N_3  and  C_8
REMARK    4  A    between atoms: N_3  and  C_14
REMARK    5  A    between atoms: N_4  and  C_17
REMARK    6  A    between atoms: C_6  and  C_9
REMARK    7  A    between atoms: C_12  and  C_15
REMARK    8  A    between atoms: C_13  and  C_16
REMARK    9  A    between atoms: C_14  and  C_18
REMARK                            x       y       z     vdW  Elec       q    Type
REMARK                         _______ _______ _______ _____ _____    ______ ____
ROOT
ATOM      6  C   UNL     1      -4.377  -9.616  10.700  0.00  0.00    +0.047 C 
ATOM      7  C   UNL     1      -5.342 -10.505   9.892  0.00  0.00    +0.035 C 
ATOM      8  C   UNL     1      -6.115  -9.560   8.956  0.00  0.00    +0.078 C 
ATOM     10  C   UNL     1      -5.030  -8.267  10.600  0.00  0.00    -0.021 C 
ATOM     11  C   UNL     1      -5.967  -8.240   9.647  0.00  0.00    -0.012 C 
ENDROOT
BRANCH   6   9
ATOM      4  N   UNL     1      -4.406 -10.718  14.194  0.00  0.00    -0.236 N 
ATOM      5  N   UNL     1      -3.094 -10.906  13.971  0.00  0.00    -0.171 NA
ATOM      9  C   UNL     1      -4.153 -10.107  12.111  0.00  0.00    +0.003 A 
ATOM     12  C   UNL     1      -5.085 -10.240  13.111  0.00  0.00    +0.046 A 
ATOM     13  C   UNL     1      -2.945 -10.533  12.697  0.00  0.00    +0.064 A 
ATOM     15  C   UNL     1      -6.535  -9.958  13.124  0.00  0.00    +0.066 C 
ATOM     16  C   UNL     1      -1.613 -10.600  12.073  0.00  0.00    +0.068 C 
BRANCH   4  17
ATOM      1 BR   UNL     1      -7.529 -13.842  17.063  0.00  0.00    -0.050 Br
ATOM     17  C   UNL     1      -4.944 -11.008  15.448  0.00  0.00    +0.067 A 
ATOM     19  C   UNL     1      -5.811 -12.090  15.601  0.00  0.00    +0.043 A 
ATOM     20  C   UNL     1      -4.616 -10.215  16.548  0.00  0.00    +0.028 A 
ATOM     25  C   UNL     1      -6.350 -12.379  16.855  0.00  0.00    +0.020 A 
ATOM     26  C   UNL     1      -5.155 -10.505  17.802  0.00  0.00    +0.003 A 
ATOM     28  C   UNL     1      -6.022 -11.586  17.955  0.00  0.00    +0.015 A 
ENDBRANCH   4  17
ENDBRANCH   6   9
BRANCH   8   3
ATOM      3  N   UNL     1      -5.542  -9.528   7.616  0.00  0.00    -0.306 NA
ATOM     30  H   UNL     1      -4.884  -8.751   7.550  0.00  0.00    +0.123 HD
BRANCH   3  14
ATOM     14  C   UNL     1      -4.839 -10.769   7.318  0.00  0.00    +0.116 C 
BRANCH  14  18
ATOM     18  C   UNL     1      -5.112 -11.245   5.916  0.00  0.00    -0.033 A 
ATOM     21  C   UNL     1      -4.168 -12.024   5.247  0.00  0.00    +0.008 A 
ATOM     22  C   UNL     1      -6.309 -10.909   5.286  0.00  0.00    +0.008 A 
ATOM     23  C   UNL     1      -4.420 -12.466   3.949  0.00  0.00    +0.046 A 
ATOM     24  C   UNL     1      -6.563 -11.350   3.987  0.00  0.00    +0.046 A 
ATOM     27  C   UNL     1      -5.618 -12.129   3.318  0.00  0.00    +0.120 A 
BRANCH  27   2
ATOM      2  O   UNL     1      -5.865 -12.560   2.052  0.00  0.00    -0.495 OA
ATOM     29  C   UNL     1      -4.817 -13.267   1.390  0.00  0.00    +0.277 C 
ENDBRANCH  27   2
ENDBRANCH  14  18
ENDBRANCH   3  14
ENDBRANCH   8   3
TORSDOF 6
ENDMDL
MODEL 10
REMARK VINA RESULT:      -6.1     24.146     28.462
REMARK  Name = 40777724
REMARK  9 active torsions:
REMARK  status: ('A' for Active; 'I' for Inactive)
REMARK    1  A    between atoms: O_2  and  C_27
REMARK    2  A    between atoms: O_2  and  C_29
REMARK    3  A    between atoms: N_3  and  C_8
REMARK    4  A    between atoms: N_3  and  C_14
REMARK    5  A    between atoms: N_4  and  C_17
REMARK    6  A    between atoms: C_6  and  C_9
REMARK    7  A    between atoms: C_12  and  C_15
REMARK    8  A    between atoms: C_13  and  C_16
REMARK    9  A    between atoms: C_14  and  C_18
REMARK                            x       y       z     vdW  Elec       q    Type
REMARK                         _______ _______ _______ _____ _____    ______ ____
ROOT
ATOM      6  C   UNL     1     -14.835   6.967  33.860  0.00  0.00    +0.047 C 
ATOM      7  C   UNL     1     -13.668   6.788  34.851  0.00  0.00    +0.035 C 
ATOM      8  C   UNL     1     -12.692   7.944  34.577  0.00  0.00    +0.078 C 
ATOM     10  C   UNL     1     -14.208   7.801  32.780  0.00  0.00    -0.021 C 
ATOM     11  C   UNL     1     -13.048   8.336  33.177  0.00  0.00    -0.012 C 
ENDROOT
BRANCH   6   9
ATOM      4  N   UNL     1     -15.742   3.707  32.455  0.00  0.00    -0.236 N 
ATOM      5  N   UNL     1     -16.911   3.954  33.071  0.00  0.00    -0.171 NA
ATOM      9  C   UNL     1     -15.422   5.657  33.387  0.00  0.00    +0.003 A 
ATOM     12  C   UNL     1     -14.817   4.697  32.613  0.00  0.00    +0.046 A 
ATOM     13  C   UNL     1     -16.709   5.145  33.639  0.00  0.00    +0.064 A 
ATOM     15  C   UNL     1     -13.462   4.642  32.026  0.00  0.00    +0.066 C 
ATOM     16  C   UNL     1     -17.790   5.766  34.425  0.00  0.00    +0.068 C 
BRANCH   4  17
ATOM      1 BR   UNL     1     -16.511   1.115  27.934  0.00  0.00    -0.050 Br
ATOM     17  C   UNL     1     -15.574   2.522  31.738  0.00  0.00    +0.067 A 
ATOM     19  C   UNL     1     -16.041   2.429  30.426  0.00  0.00    +0.043 A 
ATOM     20  C   UNL     1     -14.941   1.431  32.332  0.00  0.00    +0.028 A 
ATOM     25  C   UNL     1     -15.874   1.244  29.709  0.00  0.00    +0.020 A 
ATOM     26  C   UNL     1     -14.774   0.246  31.615  0.00  0.00    +0.003 A 
ATOM     28  C   UNL     1     -15.241   0.153  30.304  0.00  0.00    +0.015 A 
ENDBRANCH   4  17
ENDBRANCH   6   9
BRANCH   8   3
ATOM      3  N   UNL     1     -12.881   9.052  35.505  0.00  0.00    -0.306 NA
ATOM     30  H   UNL     1     -13.873   9.145  35.721  0.00  0.00    +0.123 HD
BRANCH   3  14
ATOM     14  C   UNL     1     -12.147   8.827  36.745  0.00  0.00    +0.116 C 
BRANCH  14  18
ATOM     18  C   UNL     1     -10.667   9.031  36.565  0.00  0.00    -0.033 A 
ATOM     21  C   UNL     1     -10.192  10.187  35.945  0.00  0.00    +0.008 A 
ATOM     22  C   UNL     1      -9.768   8.065  37.018  0.00  0.00    +0.008 A 
ATOM     23  C   UNL     1      -8.820  10.378  35.779  0.00  0.00    +0.046 A 
ATOM     24  C   UNL     1      -8.396   8.255  36.852  0.00  0.00    +0.046 A 
ATOM     27  C   UNL     1      -7.922   9.411  36.232  0.00  0.00    +0.120 A 
BRANCH  27   2
ATOM      2  O   UNL     1      -6.584   9.596  36.070  0.00  0.00    -0.495 OA
ATOM     29  C   UNL     1      -6.062  10.882  36.403  0.00  0.00    +0.277 C 
ENDBRANCH  27   2
ENDBRANCH  14  18
ENDBRANCH   3  14
ENDBRANCH   8   3
TORSDOF 6
ENDMDL
