MODEL 1
REMARK VINA RESULT:      -6.7      0.000      0.000
REMARK  Name = 44715973
REMARK  7 active torsions:
REMARK  status: ('A' for Active; 'I' for Inactive)
REMARK    1  A    between atoms: N_3  and  C_15
REMARK    2  A    between atoms: N_4  and  C_17
REMARK    3  A    between atoms: N_4  and  C_19
REMARK    4  A    between atoms: C_9  and  C_16
REMARK    5  A    between atoms: C_10  and  C_15
REMARK    6  A    between atoms: C_17  and  C_21
REMARK    7  A    between atoms: C_20  and  C_22
REMARK                            x       y       z     vdW  Elec       q    Type
REMARK                         _______ _______ _______ _____ _____    ______ ____
ROOT
ATOM      2  N   UNL     1      13.377   7.529  20.865  0.00  0.00    -0.297 NA
ATOM      8  C   UNL     1      12.159   9.696  20.097  0.00  0.00    +0.005 C 
ATOM      9  C   UNL     1      12.617   9.801  21.564  0.00  0.00    +0.092 C 
ATOM     10  C   UNL     1      14.189   8.237  19.839  0.00  0.00    +0.078 C 
ATOM     11  C   UNL     1      13.414   9.436  19.243  0.00  0.00    +0.025 C 
ATOM     12  C   UNL     1      11.255   8.460  19.930  0.00  0.00    +0.020 C 
ATOM     13  C   UNL     1      13.183   8.443  22.020  0.00  0.00    +0.097 C 
ATOM     14  C   UNL     1      12.035   7.199  20.332  0.00  0.00    +0.085 C 
ENDROOT
BRANCH   9  16
ATOM      1  O   UNL     1      10.519   9.527  22.613  0.00  0.00    -0.275 OA
ATOM      4  N   UNL     1      11.660  11.500  23.071  0.00  0.00    -0.301 N 
ATOM     16  C   UNL     1      11.503  10.256  22.460  0.00  0.00    +0.220 C 
ATOM     19  C   UNL     1      10.654  12.063  23.964  0.00  0.00    +0.132 C 
BRANCH   4  17
ATOM     17  C   UNL     1      12.843  12.331  22.861  0.00  0.00    +0.134 C 
BRANCH  17  21
ATOM     21  C   UNL     1      13.685  12.300  24.092  0.00  0.00    -0.016 C 
ATOM     23  C   UNL     1      14.615  11.370  24.336  0.00  0.00    +0.005 C 
ENDBRANCH  17  21
ENDBRANCH   4  17
ENDBRANCH   9  16
BRANCH  10  15
ATOM     15  C   UNL     1      14.693   7.291  18.748  0.00  0.00    +0.164 C 
BRANCH  15   3
ATOM      3  N   UNL     1      16.041   6.722  19.092  0.00  0.00    -0.250 N 
ATOM      5  N   UNL     1      16.590   5.757  18.337  0.00  0.00    -0.065 NA
ATOM      6  N   UNL     1      17.767   5.455  18.876  0.00  0.00    -0.128 NA
ATOM     18  C   UNL     1      16.847   7.064  20.132  0.00  0.00    +0.140 A 
ATOM     20  C   UNL     1      17.939   6.247  19.977  0.00  0.00    +0.131 A 
BRANCH  20  22
ATOM      7  N   UNL     1      20.050   5.337  20.480  0.00  0.00    -0.253 NA
ATOM     22  C   UNL     1      19.086   6.219  20.828  0.00  0.00    +0.092 A 
ATOM     24  C   UNL     1      19.162   7.058  21.927  0.00  0.00    +0.030 A 
ATOM     25  C   UNL     1      20.301   6.989  22.721  0.00  0.00    +0.004 A 
ATOM     26  C   UNL     1      21.142   5.297  21.276  0.00  0.00    +0.111 A 
ATOM     27  C   UNL     1      21.315   6.095  22.396  0.00  0.00    +0.020 A 
ENDBRANCH  20  22
ENDBRANCH  15   3
ENDBRANCH  10  15
TORSDOF 6
ENDMDL
MODEL 2
REMARK VINA RESULT:      -6.3     28.042     31.677
REMARK  Name = 44715973
REMARK  7 active torsions:
REMARK  status: ('A' for Active; 'I' for Inactive)
REMARK    1  A    between atoms: N_3  and  C_15
REMARK    2  A    between atoms: N_4  and  C_17
REMARK    3  A    between atoms: N_4  and  C_19
REMARK    4  A    between atoms: C_9  and  C_16
REMARK    5  A    between atoms: C_10  and  C_15
REMARK    6  A    between atoms: C_17  and  C_21
REMARK    7  A    between atoms: C_20  and  C_22
REMARK                            x       y       z     vdW  Elec       q    Type
REMARK                         _______ _______ _______ _____ _____    ______ ____
ROOT
ATOM      2  N   UNL     1     -17.252   2.292  25.643  0.00  0.00    -0.297 NA
ATOM      8  C   UNL     1     -16.964   3.173  28.074  0.00  0.00    +0.005 C 
ATOM      9  C   UNL     1     -16.097   1.924  27.824  0.00  0.00    +0.092 C 
ATOM     10  C   UNL     1     -16.572   3.615  25.632  0.00  0.00    +0.078 C 
ATOM     11  C   UNL     1     -16.539   4.239  27.047  0.00  0.00    +0.025 C 
ATOM     12  C   UNL     1     -18.438   2.841  27.773  0.00  0.00    +0.020 C 
ATOM     13  C   UNL     1     -16.423   1.347  26.433  0.00  0.00    +0.097 C 
ATOM     14  C   UNL     1     -18.571   2.390  26.310  0.00  0.00    +0.085 C 
ENDROOT
BRANCH   9  16
ATOM      1  O   UNL     1     -17.288   0.175  28.873  0.00  0.00    -0.275 OA
ATOM      4  N   UNL     1     -15.294   0.823  29.877  0.00  0.00    -0.301 N 
ATOM     16  C   UNL     1     -16.287   0.895  28.899  0.00  0.00    +0.220 C 
ATOM     19  C   UNL     1     -15.353  -0.129  30.979  0.00  0.00    +0.132 C 
BRANCH   4  17
ATOM     17  C   UNL     1     -14.123   1.697  29.869  0.00  0.00    +0.134 C 
BRANCH  17  21
ATOM     21  C   UNL     1     -14.298   2.757  30.905  0.00  0.00    -0.016 C 
ATOM     23  C   UNL     1     -13.497   2.901  31.966  0.00  0.00    +0.005 C 
ENDBRANCH  17  21
ENDBRANCH   4  17
ENDBRANCH   9  16
BRANCH  10  15
ATOM     15  C   UNL     1     -17.184   4.572  24.607  0.00  0.00    +0.164 C 
BRANCH  15   3
ATOM      3  N   UNL     1     -16.205   4.916  23.520  0.00  0.00    -0.250 N 
ATOM      5  N   UNL     1     -16.003   4.081  22.489  0.00  0.00    -0.065 NA
ATOM      6  N   UNL     1     -15.096   4.642  21.697  0.00  0.00    -0.128 NA
ATOM     18  C   UNL     1     -15.435   6.033  23.418  0.00  0.00    +0.140 A 
ATOM     20  C   UNL     1     -14.737   5.839  22.252  0.00  0.00    +0.131 A 
BRANCH  20  22
ATOM      7  N   UNL     1     -14.146   8.041  21.674  0.00  0.00    -0.253 NA
ATOM     22  C   UNL     1     -13.780   6.740  21.694  0.00  0.00    +0.092 A 
ATOM     24  C   UNL     1     -12.570   6.266  21.215  0.00  0.00    +0.030 A 
ATOM     25  C   UNL     1     -11.676   7.187  20.682  0.00  0.00    +0.004 A 
ATOM     26  C   UNL     1     -13.251   8.908  21.147  0.00  0.00    +0.111 A 
ATOM     27  C   UNL     1     -12.015   8.535  20.644  0.00  0.00    +0.020 A 
ENDBRANCH  20  22
ENDBRANCH  15   3
ENDBRANCH  10  15
TORSDOF 6
ENDMDL
MODEL 3
REMARK VINA RESULT:      -6.2      2.381      7.814
REMARK  Name = 44715973
REMARK  7 active torsions:
REMARK  status: ('A' for Active; 'I' for Inactive)
REMARK    1  A    between atoms: N_3  and  C_15
REMARK    2  A    between atoms: N_4  and  C_17
REMARK    3  A    between atoms: N_4  and  C_19
REMARK    4  A    between atoms: C_9  and  C_16
REMARK    5  A    between atoms: C_10  and  C_15
REMARK    6  A    between atoms: C_17  and  C_21
REMARK    7  A    between atoms: C_20  and  C_22
REMARK                            x       y       z     vdW  Elec       q    Type
REMARK                         _______ _______ _______ _____ _____    ______ ____
ROOT
ATOM      2  N   UNL     1      12.532   9.883  19.729  0.00  0.00    -0.297 NA
ATOM      8  C   UNL     1      13.537   7.813  20.943  0.00  0.00    +0.005 C 
ATOM      9  C   UNL     1      14.562   8.455  19.988  0.00  0.00    +0.092 C 
ATOM     10  C   UNL     1      12.678  10.162  21.184  0.00  0.00    +0.078 C 
ATOM     11  C   UNL     1      13.114   8.894  21.955  0.00  0.00    +0.025 C 
ATOM     12  C   UNL     1      12.269   7.435  20.154  0.00  0.00    +0.020 C 
ATOM     13  C   UNL     1      13.875   9.569  19.176  0.00  0.00    +0.097 C 
ATOM     14  C   UNL     1      11.674   8.697  19.510  0.00  0.00    +0.085 C 
ENDROOT
BRANCH   9  16
ATOM      1  O   UNL     1      14.732   7.264  17.956  0.00  0.00    -0.275 OA
ATOM      4  N   UNL     1      16.282   6.732  19.605  0.00  0.00    -0.301 N 
ATOM     16  C   UNL     1      15.193   7.434  19.087  0.00  0.00    +0.220 C 
ATOM     19  C   UNL     1      16.987   5.712  18.839  0.00  0.00    +0.132 C 
BRANCH   4  17
ATOM     17  C   UNL     1      16.795   6.966  20.953  0.00  0.00    +0.134 C 
BRANCH  17  21
ATOM     21  C   UNL     1      18.278   6.806  20.944  0.00  0.00    -0.016 C 
ATOM     23  C   UNL     1      19.121   7.636  21.569  0.00  0.00    +0.005 C 
ENDBRANCH  17  21
ENDBRANCH   4  17
ENDBRANCH   9  16
BRANCH  10  15
ATOM     15  C   UNL     1      11.415  10.782  21.783  0.00  0.00    +0.164 C 
BRANCH  15   3
ATOM      3  N   UNL     1      11.636  11.221  23.204  0.00  0.00    -0.250 N 
ATOM      5  N   UNL     1      10.884  10.724  24.199  0.00  0.00    -0.065 NA
ATOM      6  N   UNL     1      11.302  11.286  25.328  0.00  0.00    -0.128 NA
ATOM     18  C   UNL     1      12.553  12.113  23.665  0.00  0.00    +0.140 A 
ATOM     20  C   UNL     1      12.324  12.140  25.018  0.00  0.00    +0.131 A 
BRANCH  20  22
ATOM      7  N   UNL     1      13.932  12.269  26.730  0.00  0.00    -0.253 NA
ATOM     22  C   UNL     1      13.036  12.934  25.968  0.00  0.00    +0.092 A 
ATOM     24  C   UNL     1      12.791  14.293  26.066  0.00  0.00    +0.030 A 
ATOM     25  C   UNL     1      13.513  15.018  27.008  0.00  0.00    +0.004 A 
ATOM     26  C   UNL     1      14.615  13.006  27.635  0.00  0.00    +0.111 A 
ATOM     27  C   UNL     1      14.444  14.370  27.811  0.00  0.00    +0.020 A 
ENDBRANCH  20  22
ENDBRANCH  15   3
ENDBRANCH  10  15
TORSDOF 6
ENDMDL
MODEL 4
REMARK VINA RESULT:      -6.1     27.654     29.572
REMARK  Name = 44715973
REMARK  7 active torsions:
REMARK  status: ('A' for Active; 'I' for Inactive)
REMARK    1  A    between atoms: N_3  and  C_15
REMARK    2  A    between atoms: N_4  and  C_17
REMARK    3  A    between atoms: N_4  and  C_19
REMARK    4  A    between atoms: C_9  and  C_16
REMARK    5  A    between atoms: C_10  and  C_15
REMARK    6  A    between atoms: C_17  and  C_21
REMARK    7  A    between atoms: C_20  and  C_22
REMARK                            x       y       z     vdW  Elec       q    Type
REMARK                         _______ _______ _______ _____ _____    ______ ____
ROOT
ATOM      2  N   UNL     1      -5.057 -11.183  10.678  0.00  0.00    -0.297 NA
ATOM      8  C   UNL     1      -4.972  -9.492   8.703  0.00  0.00    +0.005 C 
ATOM      9  C   UNL     1      -6.383  -9.566   9.317  0.00  0.00    +0.092 C 
ATOM     10  C   UNL     1      -4.210 -10.013  11.040  0.00  0.00    +0.078 C 
ATOM     11  C   UNL     1      -4.005  -9.075   9.827  0.00  0.00    +0.025 C 
ATOM     12  C   UNL     1      -4.535 -10.898   8.251  0.00  0.00    +0.020 C 
ATOM     13  C   UNL     1      -6.424 -10.691  10.367  0.00  0.00    +0.097 C 
ATOM     14  C   UNL     1      -4.536 -11.846   9.461  0.00  0.00    +0.085 C 
ENDROOT
BRANCH   9  16
ATOM      1  O   UNL     1      -7.646 -10.901   7.833  0.00  0.00    -0.275 OA
ATOM      4  N   UNL     1      -8.112  -8.624   7.834  0.00  0.00    -0.301 N 
ATOM     16  C   UNL     1      -7.434  -9.765   8.264  0.00  0.00    +0.220 C 
ATOM     19  C   UNL     1      -9.155  -8.674   6.817  0.00  0.00    +0.132 C 
BRANCH   4  17
ATOM     17  C   UNL     1      -7.828  -7.296   8.372  0.00  0.00    +0.134 C 
BRANCH  17  21
ATOM     21  C   UNL     1      -8.793  -6.318   7.791  0.00  0.00    -0.016 C 
ATOM     23  C   UNL     1      -9.372  -5.336   8.491  0.00  0.00    +0.005 C 
ENDBRANCH  17  21
ENDBRANCH   4  17
ENDBRANCH   9  16
BRANCH  10  15
ATOM     15  C   UNL     1      -2.877 -10.435  11.661  0.00  0.00    +0.164 C 
BRANCH  15   3
ATOM      3  N   UNL     1      -2.974 -10.536  13.158  0.00  0.00    -0.250 N 
ATOM      5  N   UNL     1      -1.867 -10.633  13.911  0.00  0.00    -0.065 NA
ATOM      6  N   UNL     1      -2.256 -10.706  15.179  0.00  0.00    -0.128 NA
ATOM     18  C   UNL     1      -4.101 -10.546  13.919  0.00  0.00    +0.140 A 
ATOM     20  C   UNL     1      -3.623 -10.655  15.201  0.00  0.00    +0.131 A 
BRANCH  20  22
ATOM      7  N   UNL     1      -5.653 -10.167  16.284  0.00  0.00    -0.253 NA
ATOM     22  C   UNL     1      -4.419 -10.707  16.386  0.00  0.00    +0.092 A 
ATOM     24  C   UNL     1      -3.916 -11.283  17.541  0.00  0.00    +0.030 A 
ATOM     25  C   UNL     1      -4.734 -11.307  18.665  0.00  0.00    +0.004 A 
ATOM     26  C   UNL     1      -6.420 -10.208  17.397  0.00  0.00    +0.111 A 
ATOM     27  C   UNL     1      -6.011 -10.761  18.600  0.00  0.00    +0.020 A 
ENDBRANCH  20  22
ENDBRANCH  15   3
ENDBRANCH  10  15
TORSDOF 6
ENDMDL
MODEL 5
REMARK VINA RESULT:      -6.0     26.861     30.485
REMARK  Name = 44715973
REMARK  7 active torsions:
REMARK  status: ('A' for Active; 'I' for Inactive)
REMARK    1  A    between atoms: N_3  and  C_15
REMARK    2  A    between atoms: N_4  and  C_17
REMARK    3  A    between atoms: N_4  and  C_19
REMARK    4  A    between atoms: C_9  and  C_16
REMARK    5  A    between atoms: C_10  and  C_15
REMARK    6  A    between atoms: C_17  and  C_21
REMARK    7  A    between atoms: C_20  and  C_22
REMARK                            x       y       z     vdW  Elec       q    Type
REMARK                         _______ _______ _______ _____ _____    ______ ____
ROOT
ATOM      2  N   UNL     1      -6.686 -12.126  17.134  0.00  0.00    -0.297 NA
ATOM      8  C   UNL     1      -4.308 -11.109  16.845  0.00  0.00    +0.005 C 
ATOM      9  C   UNL     1      -4.804 -11.754  15.537  0.00  0.00    +0.092 C 
ATOM     10  C   UNL     1      -6.746 -10.642  17.235  0.00  0.00    +0.078 C 
ATOM     11  C   UNL     1      -5.328 -10.024  17.236  0.00  0.00    +0.025 C 
ATOM     12  C   UNL     1      -4.332 -12.157  17.974  0.00  0.00    +0.020 C 
ATOM     13  C   UNL     1      -6.137 -12.481  15.800  0.00  0.00    +0.097 C 
ATOM     14  C   UNL     1      -5.766 -12.680  18.154  0.00  0.00    +0.085 C 
ENDROOT
BRANCH   9  16
ATOM      1  O   UNL     1      -3.870 -13.894  15.186  0.00  0.00    -0.275 OA
ATOM      4  N   UNL     1      -2.775 -12.106  14.183  0.00  0.00    -0.301 N 
ATOM     16  C   UNL     1      -3.781 -12.686  14.957  0.00  0.00    +0.220 C 
ATOM     19  C   UNL     1      -1.718 -12.893  13.561  0.00  0.00    +0.132 C 
BRANCH   4  17
ATOM     17  C   UNL     1      -2.709 -10.667  13.938  0.00  0.00    +0.134 C 
BRANCH  17  21
ATOM     21  C   UNL     1      -1.411 -10.144  14.456  0.00  0.00    -0.016 C 
ATOM     23  C   UNL     1      -1.072 -10.139  15.750  0.00  0.00    +0.005 C 
ENDBRANCH  17  21
ENDBRANCH   4  17
ENDBRANCH   9  16
BRANCH  10  15
ATOM     15  C   UNL     1      -7.566 -10.179  18.441  0.00  0.00    +0.164 C 
BRANCH  15   3
ATOM      3  N   UNL     1      -8.918  -9.670  18.025  0.00  0.00    -0.250 N 
ATOM      5  N   UNL     1     -10.039 -10.242  18.492  0.00  0.00    -0.065 NA
ATOM      6  N   UNL     1     -11.067  -9.590  17.960  0.00  0.00    -0.128 NA
ATOM     18  C   UNL     1      -9.195  -8.639  17.183  0.00  0.00    +0.140 A 
ATOM     20  C   UNL     1     -10.567  -8.605  17.155  0.00  0.00    +0.131 A 
BRANCH  20  22
ATOM      7  N   UNL     1     -10.686  -6.682  15.805  0.00  0.00    -0.253 NA
ATOM     22  C   UNL     1     -11.363  -7.686  16.404  0.00  0.00    +0.092 A 
ATOM     24  C   UNL     1     -12.735  -7.853  16.326  0.00  0.00    +0.030 A 
ATOM     25  C   UNL     1     -13.462  -6.929  15.582  0.00  0.00    +0.004 A 
ATOM     26  C   UNL     1     -11.425  -5.803  15.091  0.00  0.00    +0.111 A 
ATOM     27  C   UNL     1     -12.801  -5.882  14.950  0.00  0.00    +0.020 A 
ENDBRANCH  20  22
ENDBRANCH  15   3
ENDBRANCH  10  15
TORSDOF 6
ENDMDL
MODEL 6
REMARK VINA RESULT:      -5.9     27.168     29.518
REMARK  Name = 44715973
REMARK  7 active torsions:
REMARK  status: ('A' for Active; 'I' for Inactive)
REMARK    1  A    between atoms: N_3  and  C_15
REMARK    2  A    between atoms: N_4  and  C_17
REMARK    3  A    between atoms: N_4  and  C_19
REMARK    4  A    between atoms: C_9  and  C_16
REMARK    5  A    between atoms: C_10  and  C_15
REMARK    6  A    between atoms: C_17  and  C_21
REMARK    7  A    between atoms: C_20  and  C_22
REMARK                            x       y       z     vdW  Elec       q    Type
REMARK                         _______ _______ _______ _____ _____    ______ ____
ROOT
ATOM      2  N   UNL     1      -2.385 -11.498  14.280  0.00  0.00    -0.297 NA
ATOM      8  C   UNL     1      -4.939 -11.575  14.770  0.00  0.00    +0.005 C 
ATOM      9  C   UNL     1      -4.215 -10.603  15.721  0.00  0.00    +0.092 C 
ATOM     10  C   UNL     1      -3.144 -10.909  13.143  0.00  0.00    +0.078 C 
ATOM     11  C   UNL     1      -4.668 -11.094  13.332  0.00  0.00    +0.025 C 
ATOM     12  C   UNL     1      -4.307 -12.974  14.888  0.00  0.00    +0.020 C 
ATOM     13  C   UNL     1      -2.694 -10.714  15.503  0.00  0.00    +0.097 C 
ATOM     14  C   UNL     1      -2.816 -12.893  14.526  0.00  0.00    +0.085 C 
ENDROOT
BRANCH   9  16
ATOM      1  O   UNL     1      -3.813 -11.516  17.862  0.00  0.00    -0.275 OA
ATOM      4  N   UNL     1      -5.789 -10.322  17.596  0.00  0.00    -0.301 N 
ATOM     16  C   UNL     1      -4.580 -10.858  17.154  0.00  0.00    +0.220 C 
ATOM     19  C   UNL     1      -6.266 -10.494  18.963  0.00  0.00    +0.132 C 
BRANCH   4  17
ATOM     17  C   UNL     1      -6.667  -9.547  16.722  0.00  0.00    +0.134 C 
BRANCH  17  21
ATOM     21  C   UNL     1      -8.019 -10.178  16.704  0.00  0.00    -0.016 C 
ATOM     23  C   UNL     1      -8.479 -10.927  15.695  0.00  0.00    +0.005 C 
ENDBRANCH  17  21
ENDBRANCH   4  17
ENDBRANCH   9  16
BRANCH  10  15
ATOM     15  C   UNL     1      -2.672 -11.450  11.792  0.00  0.00    +0.164 C 
BRANCH  15   3
ATOM      3  N   UNL     1      -3.309 -10.711  10.648  0.00  0.00    -0.250 N 
ATOM      5  N   UNL     1      -3.145  -9.386  10.513  0.00  0.00    -0.065 NA
ATOM      6  N   UNL     1      -3.815  -9.014   9.427  0.00  0.00    -0.128 NA
ATOM     18  C   UNL     1      -4.087 -11.224   9.657  0.00  0.00    +0.140 A 
ATOM     20  C   UNL     1      -4.398 -10.129   8.891  0.00  0.00    +0.131 A 
BRANCH  20  22
ATOM      7  N   UNL     1      -6.193  -9.217   7.675  0.00  0.00    -0.253 NA
ATOM     22  C   UNL     1      -5.205 -10.138   7.713  0.00  0.00    +0.092 A 
ATOM     24  C   UNL     1      -4.955 -11.051   6.702  0.00  0.00    +0.030 A 
ATOM     25  C   UNL     1      -5.771 -11.016   5.577  0.00  0.00    +0.004 A 
ATOM     26  C   UNL     1      -6.967  -9.212   6.566  0.00  0.00    +0.111 A 
ATOM     27  C   UNL     1      -6.799 -10.082   5.500  0.00  0.00    +0.020 A 
ENDBRANCH  20  22
ENDBRANCH  15   3
ENDBRANCH  10  15
TORSDOF 6
ENDMDL
MODEL 7
REMARK VINA RESULT:      -5.9     28.025     29.544
REMARK  Name = 44715973
REMARK  7 active torsions:
REMARK  status: ('A' for Active; 'I' for Inactive)
REMARK    1  A    between atoms: N_3  and  C_15
REMARK    2  A    between atoms: N_4  and  C_17
REMARK    3  A    between atoms: N_4  and  C_19
REMARK    4  A    between atoms: C_9  and  C_16
REMARK    5  A    between atoms: C_10  and  C_15
REMARK    6  A    between atoms: C_17  and  C_21
REMARK    7  A    between atoms: C_20  and  C_22
REMARK                            x       y       z     vdW  Elec       q    Type
REMARK                         _______ _______ _______ _____ _____    ______ ____
ROOT
ATOM      2  N   UNL     1      -5.671 -10.531  18.060  0.00  0.00    -0.297 NA
ATOM      8  C   UNL     1      -7.622 -12.232  17.793  0.00  0.00    +0.005 C 
ATOM      9  C   UNL     1      -8.149 -10.790  17.919  0.00  0.00    +0.092 C 
ATOM     10  C   UNL     1      -5.642 -11.137  16.701  0.00  0.00    +0.078 C 
ATOM     11  C   UNL     1      -6.685 -12.272  16.571  0.00  0.00    +0.025 C 
ATOM     12  C   UNL     1      -6.753 -12.569  19.019  0.00  0.00    +0.020 C 
ATOM     13  C   UNL     1      -6.976  -9.844  18.238  0.00  0.00    +0.097 C 
ATOM     14  C   UNL     1      -5.578 -11.582  19.099  0.00  0.00    +0.085 C 
ENDROOT
BRANCH   9  16
ATOM      1  O   UNL     1      -8.957 -10.921  20.135  0.00  0.00    -0.275 OA
ATOM      4  N   UNL     1     -10.498 -10.321  18.501  0.00  0.00    -0.301 N 
ATOM     16  C   UNL     1      -9.229 -10.685  18.955  0.00  0.00    +0.220 C 
ATOM     19  C   UNL     1     -11.638 -10.184  19.399  0.00  0.00    +0.132 C 
BRANCH   4  17
ATOM     17  C   UNL     1     -10.776 -10.051  17.093  0.00  0.00    +0.134 C 
BRANCH  17  21
ATOM     21  C   UNL     1     -11.066  -8.597  16.923  0.00  0.00    -0.016 C 
ATOM     23  C   UNL     1     -10.134  -7.639  16.978  0.00  0.00    +0.005 C 
ENDBRANCH  17  21
ENDBRANCH   4  17
ENDBRANCH   9  16
BRANCH  10  15
ATOM     15  C   UNL     1      -4.241 -11.609  16.308  0.00  0.00    +0.164 C 
BRANCH  15   3
ATOM      3  N   UNL     1      -3.872 -11.150  14.925  0.00  0.00    -0.250 N 
ATOM      5  N   UNL     1      -2.599 -11.204  14.502  0.00  0.00    -0.065 NA
ATOM      6  N   UNL     1      -2.576 -10.740  13.257  0.00  0.00    -0.128 NA
ATOM     18  C   UNL     1      -4.698 -10.652  13.966  0.00  0.00    +0.140 A 
ATOM     20  C   UNL     1      -3.854 -10.397  12.914  0.00  0.00    +0.131 A 
BRANCH  20  22
ATOM      7  N   UNL     1      -5.562  -9.624  11.491  0.00  0.00    -0.253 NA
ATOM     22  C   UNL     1      -4.240  -9.857  11.649  0.00  0.00    +0.092 A 
ATOM     24  C   UNL     1      -3.286  -9.606  10.677  0.00  0.00    +0.030 A 
ATOM     25  C   UNL     1      -3.716  -9.081   9.463  0.00  0.00    +0.004 A 
ATOM     26  C   UNL     1      -5.943  -9.113  10.299  0.00  0.00    +0.111 A 
ATOM     27  C   UNL     1      -5.069  -8.827   9.263  0.00  0.00    +0.020 A 
ENDBRANCH  20  22
ENDBRANCH  15   3
ENDBRANCH  10  15
TORSDOF 6
ENDMDL
MODEL 8
REMARK VINA RESULT:      -5.8     30.041     32.264
REMARK  Name = 44715973
REMARK  7 active torsions:
REMARK  status: ('A' for Active; 'I' for Inactive)
REMARK    1  A    between atoms: N_3  and  C_15
REMARK    2  A    between atoms: N_4  and  C_17
REMARK    3  A    between atoms: N_4  and  C_19
REMARK    4  A    between atoms: C_9  and  C_16
REMARK    5  A    between atoms: C_10  and  C_15
REMARK    6  A    between atoms: C_17  and  C_21
REMARK    7  A    between atoms: C_20  and  C_22
REMARK                            x       y       z     vdW  Elec       q    Type
REMARK                         _______ _______ _______ _____ _____    ______ ____
ROOT
ATOM      2  N   UNL     1     -14.025   2.437  31.823  0.00  0.00    -0.297 NA
ATOM      8  C   UNL     1     -15.787   4.042  32.865  0.00  0.00    +0.005 C 
ATOM      9  C   UNL     1     -14.417   4.732  32.722  0.00  0.00    +0.092 C 
ATOM     10  C   UNL     1     -15.072   2.772  30.819  0.00  0.00    +0.078 C 
ATOM     11  C   UNL     1     -16.220   3.587  31.459  0.00  0.00    +0.025 C 
ATOM     12  C   UNL     1     -15.632   2.764  33.709  0.00  0.00    +0.020 C 
ATOM     13  C   UNL     1     -13.373   3.699  32.257  0.00  0.00    +0.097 C 
ATOM     14  C   UNL     1     -14.634   1.818  33.023  0.00  0.00    +0.085 C 
ENDROOT
BRANCH   9  16
ATOM      1  O   UNL     1     -13.986   4.737  35.044  0.00  0.00    -0.275 OA
ATOM      4  N   UNL     1     -13.635   6.740  33.918  0.00  0.00    -0.301 N 
ATOM     16  C   UNL     1     -13.995   5.394  34.001  0.00  0.00    +0.220 C 
ATOM     19  C   UNL     1     -13.207   7.505  35.082  0.00  0.00    +0.132 C 
BRANCH   4  17
ATOM     17  C   UNL     1     -13.660   7.480  32.659  0.00  0.00    +0.134 C 
BRANCH  17  21
ATOM     21  C   UNL     1     -12.281   7.956  32.345  0.00  0.00    -0.016 C 
ATOM     23  C   UNL     1     -12.016   9.071  31.655  0.00  0.00    +0.005 C 
ENDBRANCH  17  21
ENDBRANCH   4  17
ENDBRANCH   9  16
BRANCH  10  15
ATOM     15  C   UNL     1     -15.595   1.531  30.094  0.00  0.00    +0.164 C 
BRANCH  15   3
ATOM      3  N   UNL     1     -15.928   1.829  28.659  0.00  0.00    -0.250 N 
ATOM      5  N   UNL     1     -16.425   0.874  27.857  0.00  0.00    -0.065 NA
ATOM      6  N   UNL     1     -16.619   1.422  26.663  0.00  0.00    -0.128 NA
ATOM     18  C   UNL     1     -15.790   3.013  28.003  0.00  0.00    +0.140 A 
ATOM     20  C   UNL     1     -16.235   2.732  26.735  0.00  0.00    +0.131 A 
BRANCH  20  22
ATOM      7  N   UNL     1     -17.198   4.653  25.777  0.00  0.00    -0.253 NA
ATOM     22  C   UNL     1     -16.293   3.657  25.649  0.00  0.00    +0.092 A 
ATOM     24  C   UNL     1     -15.457   3.504  24.555  0.00  0.00    +0.030 A 
ATOM     25  C   UNL     1     -15.556   4.434  23.525  0.00  0.00    +0.004 A 
ATOM     26  C   UNL     1     -17.266   5.537  24.757  0.00  0.00    +0.111 A 
ATOM     27  C   UNL     1     -16.475   5.473  23.621  0.00  0.00    +0.020 A 
ENDBRANCH  20  22
ENDBRANCH  15   3
ENDBRANCH  10  15
TORSDOF 6
ENDMDL
MODEL 9
REMARK VINA RESULT:      -5.7     27.803     30.918
REMARK  Name = 44715973
REMARK  7 active torsions:
REMARK  status: ('A' for Active; 'I' for Inactive)
REMARK    1  A    between atoms: N_3  and  C_15
REMARK    2  A    between atoms: N_4  and  C_17
REMARK    3  A    between atoms: N_4  and  C_19
REMARK    4  A    between atoms: C_9  and  C_16
REMARK    5  A    between atoms: C_10  and  C_15
REMARK    6  A    between atoms: C_17  and  C_21
REMARK    7  A    between atoms: C_20  and  C_22
REMARK                            x       y       z     vdW  Elec       q    Type
REMARK                         _______ _______ _______ _____ _____    ______ ____
ROOT
ATOM      2  N   UNL     1     -12.425   8.456  33.401  0.00  0.00    -0.297 NA
ATOM      8  C   UNL     1     -13.811   9.950  31.783  0.00  0.00    +0.005 C 
ATOM      9  C   UNL     1     -12.417   9.639  31.204  0.00  0.00    +0.092 C 
ATOM     10  C   UNL     1     -13.581   7.691  32.860  0.00  0.00    +0.078 C 
ATOM     11  C   UNL     1     -14.515   8.603  32.029  0.00  0.00    +0.025 C 
ATOM     12  C   UNL     1     -13.655  10.618  33.162  0.00  0.00    +0.020 C 
ATOM     13  C   UNL     1     -11.580   8.894  32.261  0.00  0.00    +0.097 C 
ATOM     14  C   UNL     1     -12.890   9.675  34.103  0.00  0.00    +0.085 C 
ENDROOT
BRANCH   9  16
ATOM      1  O   UNL     1     -10.934  11.453  31.495  0.00  0.00    -0.275 OA
ATOM      4  N   UNL     1     -12.026  11.322  29.447  0.00  0.00    -0.301 N 
ATOM     16  C   UNL     1     -11.723  10.884  30.737  0.00  0.00    +0.220 C 
ATOM     19  C   UNL     1     -11.424  12.517  28.868  0.00  0.00    +0.132 C 
BRANCH   4  17
ATOM     17  C   UNL     1     -12.967  10.615  28.582  0.00  0.00    +0.134 C 
BRANCH  17  21
ATOM     21  C   UNL     1     -12.317  10.353  27.264  0.00  0.00    -0.016 C 
ATOM     23  C   UNL     1     -11.214   9.612  27.111  0.00  0.00    +0.005 C 
ENDBRANCH  17  21
ENDBRANCH   4  17
ENDBRANCH   9  16
BRANCH  10  15
ATOM     15  C   UNL     1     -14.346   6.947  33.956  0.00  0.00    +0.164 C 
BRANCH  15   3
ATOM      3  N   UNL     1     -14.320   5.460  33.735  0.00  0.00    -0.250 N 
ATOM      5  N   UNL     1     -14.293   4.613  34.776  0.00  0.00    -0.065 NA
ATOM      6  N   UNL     1     -14.274   3.380  34.281  0.00  0.00    -0.128 NA
ATOM     18  C   UNL     1     -14.319   4.796  32.548  0.00  0.00    +0.140 A 
ATOM     20  C   UNL     1     -14.290   3.475  32.917  0.00  0.00    +0.131 A 
BRANCH  20  22
ATOM      7  N   UNL     1     -14.884   1.241  32.478  0.00  0.00    -0.253 NA
ATOM     22  C   UNL     1     -14.277   2.360  32.024  0.00  0.00    +0.092 A 
ATOM     24  C   UNL     1     -13.670   2.466  30.784  0.00  0.00    +0.030 A 
ATOM     25  C   UNL     1     -13.686   1.350  29.955  0.00  0.00    +0.004 A 
ATOM     26  C   UNL     1     -14.881   0.176  31.645  0.00  0.00    +0.111 A 
ATOM     27  C   UNL     1     -14.302   0.180  30.386  0.00  0.00    +0.020 A 
ENDBRANCH  20  22
ENDBRANCH  15   3
ENDBRANCH  10  15
TORSDOF 6
ENDMDL
MODEL 10
REMARK VINA RESULT:      -5.7      3.568      9.411
REMARK  Name = 44715973
REMARK  7 active torsions:
REMARK  status: ('A' for Active; 'I' for Inactive)
REMARK    1  A    between atoms: N_3  and  C_15
REMARK    2  A    between atoms: N_4  and  C_17
REMARK    3  A    between atoms: N_4  and  C_19
REMARK    4  A    between atoms: C_9  and  C_16
REMARK    5  A    between atoms: C_10  and  C_15
REMARK    6  A    between atoms: C_17  and  C_21
REMARK    7  A    between atoms: C_20  and  C_22
REMARK                            x       y       z     vdW  Elec       q    Type
REMARK                         _______ _______ _______ _____ _____    ______ ____
ROOT
ATOM      2  N   UNL     1      19.739   7.995  23.051  0.00  0.00    -0.297 NA
ATOM      8  C   UNL     1      21.470   7.021  21.370  0.00  0.00    +0.005 C 
ATOM      9  C   UNL     1      21.386   6.164  22.648  0.00  0.00    +0.092 C 
ATOM     10  C   UNL     1      19.046   7.488  21.836  0.00  0.00    +0.078 C 
ATOM     11  C   UNL     1      20.061   7.058  20.751  0.00  0.00    +0.025 C 
ATOM     12  C   UNL     1      21.818   8.472  21.749  0.00  0.00    +0.020 C 
ATOM     13  C   UNL     1      20.477   6.865  23.674  0.00  0.00    +0.097 C 
ATOM     14  C   UNL     1      20.736   9.028  22.688  0.00  0.00    +0.085 C 
ENDROOT
BRANCH   9  16
ATOM      1  O   UNL     1      23.115   6.519  24.217  0.00  0.00    -0.275 OA
ATOM      4  N   UNL     1      23.518   4.929  22.571  0.00  0.00    -0.301 N 
ATOM     16  C   UNL     1      22.746   5.893  23.221  0.00  0.00    +0.220 C 
ATOM     19  C   UNL     1      24.856   4.568  23.022  0.00  0.00    +0.132 C 
BRANCH   4  17
ATOM     17  C   UNL     1      23.041   4.209  21.393  0.00  0.00    +0.134 C 
BRANCH  17  21
ATOM     21  C   UNL     1      23.114   2.742  21.654  0.00  0.00    -0.016 C 
ATOM     23  C   UNL     1      23.780   1.879  20.878  0.00  0.00    +0.005 C 
ENDBRANCH  17  21
ENDBRANCH   4  17
ENDBRANCH   9  16
BRANCH  10  15
ATOM     15  C   UNL     1      18.026   8.490  21.292  0.00  0.00    +0.164 C 
BRANCH  15   3
ATOM      3  N   UNL     1      16.649   7.893  21.221  0.00  0.00    -0.250 N 
ATOM      5  N   UNL     1      16.457   6.672  20.696  0.00  0.00    -0.065 NA
ATOM      6  N   UNL     1      15.156   6.411  20.766  0.00  0.00    -0.128 NA
ATOM     18  C   UNL     1      15.480   8.446  21.641  0.00  0.00    +0.140 A 
ATOM     20  C   UNL     1      14.543   7.488  21.343  0.00  0.00    +0.131 A 
BRANCH  20  22
ATOM      7  N   UNL     1      12.420   6.475  21.333  0.00  0.00    -0.253 NA
ATOM     22  C   UNL     1      13.141   7.589  21.592  0.00  0.00    +0.092 A 
ATOM     24  C   UNL     1      12.598   8.771  22.067  0.00  0.00    +0.030 A 
ATOM     25  C   UNL     1      11.226   8.814  22.291  0.00  0.00    +0.004 A 
ATOM     26  C   UNL     1      11.090   6.553  21.563  0.00  0.00    +0.111 A 
ATOM     27  C   UNL     1      10.451   7.688  22.038  0.00  0.00    +0.020 A 
ENDBRANCH  20  22
ENDBRANCH  15   3
ENDBRANCH  10  15
TORSDOF 6
ENDMDL
