MODEL 1
REMARK VINA RESULT:      -6.8      0.000      0.000
REMARK  Name = 51137889
REMARK  6 active torsions:
REMARK  status: ('A' for Active; 'I' for Inactive)
REMARK    1  A    between atoms: N_1  and  C_9
REMARK    2  A    between atoms: N_2  and  C_14
REMARK    3  A    between atoms: C_4  and  C_8
REMARK    4  A    between atoms: C_9  and  C_10
REMARK    5  A    between atoms: C_10  and  C_12
REMARK    6  A    between atoms: C_12  and  C_16
REMARK                            x       y       z     vdW  Elec       q    Type
REMARK                         _______ _______ _______ _____ _____    ______ ____
ROOT
ATOM      1  N   UNL     1      12.718   8.869  19.801  0.00  0.00    -0.302 NA
ATOM      4  C   UNL     1      12.022  10.096  21.675  0.00  0.00    +0.070 C 
ATOM      5  C   UNL     1      12.912  10.179  20.428  0.00  0.00    +0.095 C 
ATOM      6  C   UNL     1      10.955   9.045  21.323  0.00  0.00    +0.028 C 
ATOM      7  C   UNL     1      11.280   8.615  19.899  0.00  0.00    +0.085 C 
ENDROOT
BRANCH   4   8
ATOM      2  N   UNL     1      11.124  11.709  23.391  0.00  0.00    -0.330 N 
ATOM      3  N   UNL     1      11.272  12.472  21.309  0.00  0.00    -0.232 NA
ATOM      8  C   UNL     1      11.474  11.440  22.097  0.00  0.00    +0.115 A 
ATOM     11  C   UNL     1      10.667  13.002  23.442  0.00  0.00    +0.069 A 
ATOM     13  C   UNL     1      10.770  13.456  22.129  0.00  0.00    +0.089 A 
ATOM     14  C   UNL     1      11.218  10.798  24.510  0.00  0.00    +0.150 C 
ATOM     15  C   UNL     1      10.187  13.787  24.490  0.00  0.00    +0.028 A 
ATOM     17  C   UNL     1      10.374  14.770  21.827  0.00  0.00    +0.030 A 
ATOM     18  C   UNL     1       9.799  15.093  24.171  0.00  0.00    +0.002 A 
ATOM     19  C   UNL     1       9.889  15.577  22.864  0.00  0.00    +0.002 A 
ENDBRANCH   4   8
BRANCH   1   9
ATOM      9  C   UNL     1      13.195   8.835  18.427  0.00  0.00    +0.085 C 
BRANCH   9  10
ATOM     10  C   UNL     1      14.194   7.693  18.241  0.00  0.00    +0.020 C 
BRANCH  10  12
ATOM     12  C   UNL     1      14.416   6.936  19.552  0.00  0.00    +0.036 C 
BRANCH  12  16
ATOM     16  C   UNL     1      15.878   6.847  19.905  0.00  0.00    -0.047 A 
ATOM     20  C   UNL     1      16.715   5.983  19.200  0.00  0.00    +0.003 A 
ATOM     21  C   UNL     1      16.396   7.630  20.937  0.00  0.00    +0.003 A 
ATOM     22  C   UNL     1      18.069   5.901  19.526  0.00  0.00    +0.000 A 
ATOM     23  C   UNL     1      17.750   7.549  21.263  0.00  0.00    +0.000 A 
ATOM     24  C   UNL     1      18.586   6.685  20.557  0.00  0.00    +0.000 A 
ENDBRANCH  12  16
ENDBRANCH  10  12
ENDBRANCH   9  10
ENDBRANCH   1   9
TORSDOF 5
ENDMDL
MODEL 2
REMARK VINA RESULT:      -6.6      2.226      7.310
REMARK  Name = 51137889
REMARK  6 active torsions:
REMARK  status: ('A' for Active; 'I' for Inactive)
REMARK    1  A    between atoms: N_1  and  C_9
REMARK    2  A    between atoms: N_2  and  C_14
REMARK    3  A    between atoms: C_4  and  C_8
REMARK    4  A    between atoms: C_9  and  C_10
REMARK    5  A    between atoms: C_10  and  C_12
REMARK    6  A    between atoms: C_12  and  C_16
REMARK                            x       y       z     vdW  Elec       q    Type
REMARK                         _______ _______ _______ _____ _____    ______ ____
ROOT
ATOM      1  N   UNL     1      13.718  11.810  22.728  0.00  0.00    -0.302 NA
ATOM      4  C   UNL     1      15.639  10.764  21.883  0.00  0.00    +0.070 C 
ATOM      5  C   UNL     1      14.445  10.542  22.820  0.00  0.00    +0.095 C 
ATOM      6  C   UNL     1      15.163  11.843  20.894  0.00  0.00    +0.028 C 
ATOM      7  C   UNL     1      13.729  12.148  21.305  0.00  0.00    +0.085 C 
ENDROOT
BRANCH   4   8
ATOM      2  N   UNL     1      17.402   9.023  21.422  0.00  0.00    -0.330 N 
ATOM      3  N   UNL     1      15.426   8.696  20.461  0.00  0.00    -0.232 NA
ATOM      8  C   UNL     1      16.129   9.486  21.240  0.00  0.00    +0.115 A 
ATOM     11  C   UNL     1      17.529   7.855  20.714  0.00  0.00    +0.069 A 
ATOM     13  C   UNL     1      16.281   7.674  20.123  0.00  0.00    +0.089 A 
ATOM     14  C   UNL     1      18.435   9.647  22.219  0.00  0.00    +0.150 C 
ATOM     15  C   UNL     1      18.594   6.971  20.544  0.00  0.00    +0.028 A 
ATOM     17  C   UNL     1      16.066   6.547  19.310  0.00  0.00    +0.030 A 
ATOM     18  C   UNL     1      18.362   5.855  19.732  0.00  0.00    +0.002 A 
ATOM     19  C   UNL     1      17.122   5.645  19.125  0.00  0.00    +0.002 A 
ENDBRANCH   4   8
BRANCH   1   9
ATOM      9  C   UNL     1      12.369  11.717  23.266  0.00  0.00    +0.085 C 
BRANCH   9  10
ATOM     10  C   UNL     1      11.396  11.258  22.181  0.00  0.00    +0.020 C 
BRANCH  10  12
ATOM     12  C   UNL     1      10.890   9.841  22.458  0.00  0.00    +0.036 C 
BRANCH  12  16
ATOM     16  C   UNL     1      11.420   8.852  21.452  0.00  0.00    -0.047 A 
ATOM     20  C   UNL     1      11.680   7.537  21.836  0.00  0.00    +0.003 A 
ATOM     21  C   UNL     1      11.650   9.253  20.135  0.00  0.00    +0.003 A 
ATOM     22  C   UNL     1      12.170   6.622  20.904  0.00  0.00    +0.000 A 
ATOM     23  C   UNL     1      12.139   8.338  19.204  0.00  0.00    +0.000 A 
ATOM     24  C   UNL     1      12.399   7.023  19.587  0.00  0.00    +0.000 A 
ENDBRANCH  12  16
ENDBRANCH  10  12
ENDBRANCH   9  10
ENDBRANCH   1   9
TORSDOF 5
ENDMDL
MODEL 3
REMARK VINA RESULT:      -6.5     26.943     28.748
REMARK  Name = 51137889
REMARK  6 active torsions:
REMARK  status: ('A' for Active; 'I' for Inactive)
REMARK    1  A    between atoms: N_1  and  C_9
REMARK    2  A    between atoms: N_2  and  C_14
REMARK    3  A    between atoms: C_4  and  C_8
REMARK    4  A    between atoms: C_9  and  C_10
REMARK    5  A    between atoms: C_10  and  C_12
REMARK    6  A    between atoms: C_12  and  C_16
REMARK                            x       y       z     vdW  Elec       q    Type
REMARK                         _______ _______ _______ _____ _____    ______ ____
ROOT
ATOM      1  N   UNL     1      -2.979 -11.276  15.730  0.00  0.00    -0.302 NA
ATOM      4  C   UNL     1      -4.867 -11.336  17.120  0.00  0.00    +0.070 C 
ATOM      5  C   UNL     1      -3.876 -10.373  16.454  0.00  0.00    +0.095 C 
ATOM      6  C   UNL     1      -4.838 -12.597  16.237  0.00  0.00    +0.028 C 
ATOM      7  C   UNL     1      -3.861 -12.269  15.116  0.00  0.00    +0.085 C 
ENDROOT
BRANCH   4   8
ATOM      2  N   UNL     1      -7.141 -11.242  18.203  0.00  0.00    -0.330 N 
ATOM      3  N   UNL     1      -6.714  -9.681  16.680  0.00  0.00    -0.232 NA
ATOM      8  C   UNL     1      -6.239 -10.729  17.313  0.00  0.00    +0.115 A 
ATOM     11  C   UNL     1      -8.275 -10.472  18.140  0.00  0.00    +0.069 A 
ATOM     13  C   UNL     1      -7.983  -9.505  17.181  0.00  0.00    +0.089 A 
ATOM     14  C   UNL     1      -6.942 -12.389  19.060  0.00  0.00    +0.150 C 
ATOM     15  C   UNL     1      -9.493 -10.538  18.816  0.00  0.00    +0.028 A 
ATOM     17  C   UNL     1      -8.953  -8.537  16.868  0.00  0.00    +0.030 A 
ATOM     18  C   UNL     1     -10.446  -9.566  18.492  0.00  0.00    +0.002 A 
ATOM     19  C   UNL     1     -10.183  -8.584  17.535  0.00  0.00    +0.002 A 
ENDBRANCH   4   8
BRANCH   1   9
ATOM      9  C   UNL     1      -2.161 -10.579  14.750  0.00  0.00    +0.085 C 
BRANCH   9  10
ATOM     10  C   UNL     1      -2.265 -11.265  13.388  0.00  0.00    +0.020 C 
BRANCH  10  12
ATOM     12  C   UNL     1      -1.832 -10.323  12.262  0.00  0.00    +0.036 C 
BRANCH  12  16
ATOM     16  C   UNL     1      -2.775 -10.385  11.088  0.00  0.00    -0.047 A 
ATOM     20  C   UNL     1      -3.357 -11.599  10.725  0.00  0.00    +0.003 A 
ATOM     21  C   UNL     1      -3.066  -9.229  10.365  0.00  0.00    +0.003 A 
ATOM     22  C   UNL     1      -4.231 -11.657   9.638  0.00  0.00    +0.000 A 
ATOM     23  C   UNL     1      -3.939  -9.286   9.279  0.00  0.00    +0.000 A 
ATOM     24  C   UNL     1      -4.521 -10.500   8.916  0.00  0.00    +0.000 A 
ENDBRANCH  12  16
ENDBRANCH  10  12
ENDBRANCH   9  10
ENDBRANCH   1   9
TORSDOF 5
ENDMDL
MODEL 4
REMARK VINA RESULT:      -6.4     15.837     18.780
REMARK  Name = 51137889
REMARK  6 active torsions:
REMARK  status: ('A' for Active; 'I' for Inactive)
REMARK    1  A    between atoms: N_1  and  C_9
REMARK    2  A    between atoms: N_2  and  C_14
REMARK    3  A    between atoms: C_4  and  C_8
REMARK    4  A    between atoms: C_9  and  C_10
REMARK    5  A    between atoms: C_10  and  C_12
REMARK    6  A    between atoms: C_12  and  C_16
REMARK                            x       y       z     vdW  Elec       q    Type
REMARK                         _______ _______ _______ _____ _____    ______ ____
ROOT
ATOM      1  N   UNL     1      10.672   7.101   1.336  0.00  0.00    -0.302 NA
ATOM      4  C   UNL     1      10.227   7.456   3.611  0.00  0.00    +0.070 C 
ATOM      5  C   UNL     1       9.789   6.620   2.402  0.00  0.00    +0.095 C 
ATOM      6  C   UNL     1      11.680   7.857   3.302  0.00  0.00    +0.028 C 
ATOM      7  C   UNL     1      11.991   7.208   1.960  0.00  0.00    +0.085 C 
ENDROOT
BRANCH   4   8
ATOM      2  N   UNL     1       9.592   7.378   6.049  0.00  0.00    -0.330 N 
ATOM      3  N   UNL     1      10.257   5.460   5.146  0.00  0.00    -0.232 NA
ATOM      8  C   UNL     1      10.033   6.736   4.926  0.00  0.00    +0.115 A 
ATOM     11  C   UNL     1       9.524   6.455   7.061  0.00  0.00    +0.069 A 
ATOM     13  C   UNL     1       9.944   5.266   6.471  0.00  0.00    +0.089 A 
ATOM     14  C   UNL     1       9.253   8.780   6.156  0.00  0.00    +0.150 C 
ATOM     15  C   UNL     1       9.144   6.555   8.399  0.00  0.00    +0.028 A 
ATOM     17  C   UNL     1       9.994   4.096   7.250  0.00  0.00    +0.030 A 
ATOM     18  C   UNL     1       9.199   5.381   9.159  0.00  0.00    +0.002 A 
ATOM     19  C   UNL     1       9.617   4.173   8.596  0.00  0.00    +0.002 A 
ENDBRANCH   4   8
BRANCH   1   9
ATOM      9  C   UNL     1      10.676   6.219   0.179  0.00  0.00    +0.085 C 
BRANCH   9  10
ATOM     10  C   UNL     1      10.517   4.765   0.619  0.00  0.00    +0.020 C 
BRANCH  10  12
ATOM     12  C   UNL     1      11.318   3.824  -0.284  0.00  0.00    +0.036 C 
BRANCH  12  16
ATOM     16  C   UNL     1      12.783   3.823   0.071  0.00  0.00    -0.047 A 
ATOM     20  C   UNL     1      13.735   4.147  -0.895  0.00  0.00    +0.003 A 
ATOM     21  C   UNL     1      13.186   3.499   1.367  0.00  0.00    +0.003 A 
ATOM     22  C   UNL     1      15.091   4.146  -0.565  0.00  0.00    +0.000 A 
ATOM     23  C   UNL     1      14.541   3.498   1.696  0.00  0.00    +0.000 A 
ATOM     24  C   UNL     1      15.494   3.822   0.730  0.00  0.00    +0.000 A 
ENDBRANCH  12  16
ENDBRANCH  10  12
ENDBRANCH   9  10
ENDBRANCH   1   9
TORSDOF 5
ENDMDL
MODEL 5
REMARK VINA RESULT:      -6.3      2.102      3.823
REMARK  Name = 51137889
REMARK  6 active torsions:
REMARK  status: ('A' for Active; 'I' for Inactive)
REMARK    1  A    between atoms: N_1  and  C_9
REMARK    2  A    between atoms: N_2  and  C_14
REMARK    3  A    between atoms: C_4  and  C_8
REMARK    4  A    between atoms: C_9  and  C_10
REMARK    5  A    between atoms: C_10  and  C_12
REMARK    6  A    between atoms: C_12  and  C_16
REMARK                            x       y       z     vdW  Elec       q    Type
REMARK                         _______ _______ _______ _____ _____    ______ ____
ROOT
ATOM      1  N   UNL     1      12.829   7.743  21.816  0.00  0.00    -0.302 NA
ATOM      4  C   UNL     1      11.676   9.547  22.773  0.00  0.00    +0.070 C 
ATOM      5  C   UNL     1      13.045   9.135  22.216  0.00  0.00    +0.095 C 
ATOM      6  C   UNL     1      10.674   8.606  22.081  0.00  0.00    +0.028 C 
ATOM      7  C   UNL     1      11.521   7.739  21.159  0.00  0.00    +0.085 C 
ENDROOT
BRANCH   4   8
ATOM      2  N   UNL     1      11.136  11.845  23.656  0.00  0.00    -0.330 N 
ATOM      3  N   UNL     1      11.344  11.665  21.451  0.00  0.00    -0.232 NA
ATOM      8  C   UNL     1      11.388  11.021  22.596  0.00  0.00    +0.115 A 
ATOM     11  C   UNL     1      10.916  13.107  23.164  0.00  0.00    +0.069 A 
ATOM     13  C   UNL     1      11.052  12.967  21.785  0.00  0.00    +0.089 A 
ATOM     14  C   UNL     1      11.106  11.462  25.050  0.00  0.00    +0.150 C 
ATOM     15  C   UNL     1      10.619  14.318  23.787  0.00  0.00    +0.028 A 
ATOM     17  C   UNL     1      10.884  14.095  20.964  0.00  0.00    +0.030 A 
ATOM     18  C   UNL     1      10.456  15.431  22.953  0.00  0.00    +0.002 A 
ATOM     19  C   UNL     1      10.585  15.323  21.567  0.00  0.00    +0.002 A 
ENDBRANCH   4   8
BRANCH   1   9
ATOM      9  C   UNL     1      13.886   7.242  20.951  0.00  0.00    +0.085 C 
BRANCH   9  10
ATOM     10  C   UNL     1      13.396   7.165  19.506  0.00  0.00    +0.020 C 
BRANCH  10  12
ATOM     12  C   UNL     1      13.835   8.396  18.708  0.00  0.00    +0.036 C 
BRANCH  12  16
ATOM     16  C   UNL     1      12.873   8.709  17.592  0.00  0.00    -0.047 A 
ATOM     20  C   UNL     1      11.516   8.424  17.739  0.00  0.00    +0.003 A 
ATOM     21  C   UNL     1      13.339   9.287  16.410  0.00  0.00    +0.003 A 
ATOM     22  C   UNL     1      10.625   8.715  16.705  0.00  0.00    +0.000 A 
ATOM     23  C   UNL     1      12.449   9.578  15.377  0.00  0.00    +0.000 A 
ATOM     24  C   UNL     1      11.092   9.292  15.524  0.00  0.00    +0.000 A 
ENDBRANCH  12  16
ENDBRANCH  10  12
ENDBRANCH   9  10
ENDBRANCH   1   9
TORSDOF 5
ENDMDL
MODEL 6
REMARK VINA RESULT:      -6.3     28.373     30.225
REMARK  Name = 51137889
REMARK  6 active torsions:
REMARK  status: ('A' for Active; 'I' for Inactive)
REMARK    1  A    between atoms: N_1  and  C_9
REMARK    2  A    between atoms: N_2  and  C_14
REMARK    3  A    between atoms: C_4  and  C_8
REMARK    4  A    between atoms: C_9  and  C_10
REMARK    5  A    between atoms: C_10  and  C_12
REMARK    6  A    between atoms: C_12  and  C_16
REMARK                            x       y       z     vdW  Elec       q    Type
REMARK                         _______ _______ _______ _____ _____    ______ ____
ROOT
ATOM      1  N   UNL     1     -10.722  -8.167  17.076  0.00  0.00    -0.302 NA
ATOM      4  C   UNL     1     -12.513  -7.158  15.948  0.00  0.00    +0.070 C 
ATOM      5  C   UNL     1     -11.185  -6.845  16.648  0.00  0.00    +0.095 C 
ATOM      6  C   UNL     1     -12.379  -8.623  15.495  0.00  0.00    +0.028 C 
ATOM      7  C   UNL     1     -10.984  -9.045  15.936  0.00  0.00    +0.085 C 
ENDROOT
BRANCH   4   8
ATOM      2  N   UNL     1     -14.127  -5.931  14.451  0.00  0.00    -0.330 N 
ATOM      3  N   UNL     1     -11.972  -5.479  14.150  0.00  0.00    -0.232 NA
ATOM      8  C   UNL     1     -12.841  -6.180  14.843  0.00  0.00    +0.115 A 
ATOM     11  C   UNL     1     -14.084  -5.006  13.438  0.00  0.00    +0.069 A 
ATOM     13  C   UNL     1     -12.728  -4.741  13.270  0.00  0.00    +0.089 A 
ATOM     14  C   UNL     1     -15.322  -6.530  15.002  0.00  0.00    +0.150 C 
ATOM     15  C   UNL     1     -15.085  -4.399  12.679  0.00  0.00    +0.028 A 
ATOM     17  C   UNL     1     -12.328  -3.816  12.290  0.00  0.00    +0.030 A 
ATOM     18  C   UNL     1     -14.668  -3.481  11.708  0.00  0.00    +0.002 A 
ATOM     19  C   UNL     1     -13.316  -3.194  11.515  0.00  0.00    +0.002 A 
ENDBRANCH   4   8
BRANCH   1   9
ATOM      9  C   UNL     1      -9.320  -8.165  17.464  0.00  0.00    +0.085 C 
BRANCH   9  10
ATOM     10  C   UNL     1      -8.706  -9.547  17.239  0.00  0.00    +0.020 C 
BRANCH  10  12
ATOM     12  C   UNL     1      -7.249  -9.435  16.783  0.00  0.00    +0.036 C 
BRANCH  12  16
ATOM     16  C   UNL     1      -6.327 -10.248  17.654  0.00  0.00    -0.047 A 
ATOM     20  C   UNL     1      -5.089 -10.662  17.164  0.00  0.00    +0.003 A 
ATOM     21  C   UNL     1      -6.712 -10.587  18.952  0.00  0.00    +0.003 A 
ATOM     22  C   UNL     1      -4.235 -11.415  17.971  0.00  0.00    +0.000 A 
ATOM     23  C   UNL     1      -5.858 -11.339  19.758  0.00  0.00    +0.000 A 
ATOM     24  C   UNL     1      -4.620 -11.753  19.268  0.00  0.00    +0.000 A 
ENDBRANCH  12  16
ENDBRANCH  10  12
ENDBRANCH   9  10
ENDBRANCH   1   9
TORSDOF 5
ENDMDL
MODEL 7
REMARK VINA RESULT:      -6.2      2.291      4.216
REMARK  Name = 51137889
REMARK  6 active torsions:
REMARK  status: ('A' for Active; 'I' for Inactive)
REMARK    1  A    between atoms: N_1  and  C_9
REMARK    2  A    between atoms: N_2  and  C_14
REMARK    3  A    between atoms: C_4  and  C_8
REMARK    4  A    between atoms: C_9  and  C_10
REMARK    5  A    between atoms: C_10  and  C_12
REMARK    6  A    between atoms: C_12  and  C_16
REMARK                            x       y       z     vdW  Elec       q    Type
REMARK                         _______ _______ _______ _____ _____    ______ ____
ROOT
ATOM      1  N   UNL     1      15.465   6.289  19.529  0.00  0.00    -0.302 NA
ATOM      4  C   UNL     1      13.610   7.191  20.645  0.00  0.00    +0.070 C 
ATOM      5  C   UNL     1      15.106   6.897  20.812  0.00  0.00    +0.095 C 
ATOM      6  C   UNL     1      13.404   7.311  19.125  0.00  0.00    +0.028 C 
ATOM      7  C   UNL     1      14.787   7.108  18.523  0.00  0.00    +0.085 C 
ENDROOT
BRANCH   4   8
ATOM      2  N   UNL     1      11.886   8.488  21.948  0.00  0.00    -0.330 N 
ATOM      3  N   UNL     1      13.882   9.443  21.740  0.00  0.00    -0.232 NA
ATOM      8  C   UNL     1      13.153   8.391  21.444  0.00  0.00    +0.115 A 
ATOM     11  C   UNL     1      11.791   9.683  22.615  0.00  0.00    +0.069 A 
ATOM     13  C   UNL     1      13.050  10.260  22.470  0.00  0.00    +0.089 A 
ATOM     14  C   UNL     1      10.830   7.510  21.807  0.00  0.00    +0.150 C 
ATOM     15  C   UNL     1      10.745  10.290  23.310  0.00  0.00    +0.028 A 
ATOM     17  C   UNL     1      13.298  11.517  23.048  0.00  0.00    +0.030 A 
ATOM     18  C   UNL     1      11.009  11.541  23.878  0.00  0.00    +0.002 A 
ATOM     19  C   UNL     1      12.261  12.145  23.750  0.00  0.00    +0.002 A 
ENDBRANCH   4   8
BRANCH   1   9
ATOM      9  C   UNL     1      16.903   6.235  19.323  0.00  0.00    +0.085 C 
BRANCH   9  10
ATOM     10  C   UNL     1      17.637   6.388  20.655  0.00  0.00    +0.020 C 
BRANCH  10  12
ATOM     12  C   UNL     1      19.136   6.125  20.493  0.00  0.00    +0.036 C 
BRANCH  12  16
ATOM     16  C   UNL     1      19.908   6.519  21.725  0.00  0.00    -0.047 A 
ATOM     20  C   UNL     1      19.564   7.675  22.424  0.00  0.00    +0.003 A 
ATOM     21  C   UNL     1      20.967   5.726  22.168  0.00  0.00    +0.003 A 
ATOM     22  C   UNL     1      20.279   8.040  23.566  0.00  0.00    +0.000 A 
ATOM     23  C   UNL     1      21.682   6.090  23.309  0.00  0.00    +0.000 A 
ATOM     24  C   UNL     1      21.338   7.246  24.008  0.00  0.00    +0.000 A 
ENDBRANCH  12  16
ENDBRANCH  10  12
ENDBRANCH   9  10
ENDBRANCH   1   9
TORSDOF 5
ENDMDL
MODEL 8
REMARK VINA RESULT:      -6.2     27.312     29.422
REMARK  Name = 51137889
REMARK  6 active torsions:
REMARK  status: ('A' for Active; 'I' for Inactive)
REMARK    1  A    between atoms: N_1  and  C_9
REMARK    2  A    between atoms: N_2  and  C_14
REMARK    3  A    between atoms: C_4  and  C_8
REMARK    4  A    between atoms: C_9  and  C_10
REMARK    5  A    between atoms: C_10  and  C_12
REMARK    6  A    between atoms: C_12  and  C_16
REMARK                            x       y       z     vdW  Elec       q    Type
REMARK                         _______ _______ _______ _____ _____    ______ ____
ROOT
ATOM      1  N   UNL     1      -4.491 -12.321  16.893  0.00  0.00    -0.302 NA
ATOM      4  C   UNL     1      -3.602 -11.581  14.853  0.00  0.00    +0.070 C 
ATOM      5  C   UNL     1      -4.796 -12.329  15.460  0.00  0.00    +0.095 C 
ATOM      6  C   UNL     1      -3.075 -10.695  15.995  0.00  0.00    +0.028 C 
ATOM      7  C   UNL     1      -4.009 -10.967  17.167  0.00  0.00    +0.085 C 
ENDROOT
BRANCH   4   8
ATOM      2  N   UNL     1      -3.091 -10.749  12.529  0.00  0.00    -0.330 N 
ATOM      3  N   UNL     1      -5.085 -10.210  13.349  0.00  0.00    -0.232 NA
ATOM      8  C   UNL     1      -3.955 -10.838  13.585  0.00  0.00    +0.115 A 
ATOM     11  C   UNL     1      -3.706 -10.016  11.545  0.00  0.00    +0.069 A 
ATOM     13  C   UNL     1      -4.949  -9.692  12.082  0.00  0.00    +0.089 A 
ATOM     14  C   UNL     1      -1.767 -11.323  12.456  0.00  0.00    +0.150 C 
ATOM     15  C   UNL     1      -3.293  -9.621  10.273  0.00  0.00    +0.028 A 
ATOM     17  C   UNL     1      -5.847  -8.929  11.316  0.00  0.00    +0.030 A 
ATOM     18  C   UNL     1      -4.200  -8.862   9.525  0.00  0.00    +0.002 A 
ATOM     19  C   UNL     1      -5.454  -8.521  10.035  0.00  0.00    +0.002 A 
ENDBRANCH   4   8
BRANCH   1   9
ATOM      9  C   UNL     1      -5.644 -12.675  17.707  0.00  0.00    +0.085 C 
BRANCH   9  10
ATOM     10  C   UNL     1      -6.106 -11.469  18.525  0.00  0.00    +0.020 C 
BRANCH  10  12
ATOM     12  C   UNL     1      -7.551 -11.644  18.997  0.00  0.00    +0.036 C 
BRANCH  12  16
ATOM     16  C   UNL     1      -8.447 -10.555  18.466  0.00  0.00    -0.047 A 
ATOM     20  C   UNL     1      -9.776 -10.481  18.881  0.00  0.00    +0.003 A 
ATOM     21  C   UNL     1      -7.947  -9.621  17.558  0.00  0.00    +0.003 A 
ATOM     22  C   UNL     1     -10.606  -9.473  18.390  0.00  0.00    +0.000 A 
ATOM     23  C   UNL     1      -8.777  -8.613  17.068  0.00  0.00    +0.000 A 
ATOM     24  C   UNL     1     -10.106  -8.538  17.483  0.00  0.00    +0.000 A 
ENDBRANCH  12  16
ENDBRANCH  10  12
ENDBRANCH   9  10
ENDBRANCH   1   9
TORSDOF 5
ENDMDL
MODEL 9
REMARK VINA RESULT:      -6.2     28.660     31.670
REMARK  Name = 51137889
REMARK  6 active torsions:
REMARK  status: ('A' for Active; 'I' for Inactive)
REMARK    1  A    between atoms: N_1  and  C_9
REMARK    2  A    between atoms: N_2  and  C_14
REMARK    3  A    between atoms: C_4  and  C_8
REMARK    4  A    between atoms: C_9  and  C_10
REMARK    5  A    between atoms: C_10  and  C_12
REMARK    6  A    between atoms: C_12  and  C_16
REMARK                            x       y       z     vdW  Elec       q    Type
REMARK                         _______ _______ _______ _____ _____    ______ ____
ROOT
ATOM      1  N   UNL     1      -6.811  -7.521  39.251  0.00  0.00    -0.302 NA
ATOM      4  C   UNL     1      -4.627  -6.914  39.853  0.00  0.00    +0.070 C 
ATOM      5  C   UNL     1      -5.953  -6.337  39.341  0.00  0.00    +0.095 C 
ATOM      6  C   UNL     1      -5.023  -8.208  40.587  0.00  0.00    +0.028 C 
ATOM      7  C   UNL     1      -6.540  -8.275  40.475  0.00  0.00    +0.085 C 
ENDROOT
BRANCH   4   8
ATOM      2  N   UNL     1      -2.735  -5.285  40.196  0.00  0.00    -0.330 N 
ATOM      3  N   UNL     1      -4.099  -5.584  41.924  0.00  0.00    -0.232 NA
ATOM      8  C   UNL     1      -3.837  -5.929  40.684  0.00  0.00    +0.115 A 
ATOM     11  C   UNL     1      -2.253  -4.468  41.187  0.00  0.00    +0.069 A 
ATOM     13  C   UNL     1      -3.122  -4.674  42.256  0.00  0.00    +0.089 A 
ATOM     14  C   UNL     1      -2.173  -5.433  38.872  0.00  0.00    +0.150 C 
ATOM     15  C   UNL     1      -1.166  -3.597  41.240  0.00  0.00    +0.028 A 
ATOM     17  C   UNL     1      -2.908  -3.974  43.456  0.00  0.00    +0.030 A 
ATOM     18  C   UNL     1      -0.968  -2.908  42.442  0.00  0.00    +0.002 A 
ATOM     19  C   UNL     1      -1.822  -3.093  43.531  0.00  0.00    +0.002 A 
ENDBRANCH   4   8
BRANCH   1   9
ATOM      9  C   UNL     1      -8.218  -7.177  39.111  0.00  0.00    +0.085 C 
BRANCH   9  10
ATOM     10  C   UNL     1      -8.721  -6.479  40.374  0.00  0.00    +0.020 C 
BRANCH  10  12
ATOM     12  C   UNL     1     -10.058  -5.777  40.121  0.00  0.00    +0.036 C 
BRANCH  12  16
ATOM     16  C   UNL     1      -9.895  -4.282  40.034  0.00  0.00    -0.047 A 
ATOM     20  C   UNL     1     -10.588  -3.560  39.062  0.00  0.00    +0.003 A 
ATOM     21  C   UNL     1      -9.052  -3.619  40.926  0.00  0.00    +0.003 A 
ATOM     22  C   UNL     1     -10.438  -2.175  38.982  0.00  0.00    +0.000 A 
ATOM     23  C   UNL     1      -8.903  -2.235  40.846  0.00  0.00    +0.000 A 
ATOM     24  C   UNL     1      -9.595  -1.513  39.875  0.00  0.00    +0.000 A 
ENDBRANCH  12  16
ENDBRANCH  10  12
ENDBRANCH   9  10
ENDBRANCH   1   9
TORSDOF 5
ENDMDL
MODEL 10
REMARK VINA RESULT:      -6.0     27.830     30.572
REMARK  Name = 51137889
REMARK  6 active torsions:
REMARK  status: ('A' for Active; 'I' for Inactive)
REMARK    1  A    between atoms: N_1  and  C_9
REMARK    2  A    between atoms: N_2  and  C_14
REMARK    3  A    between atoms: C_4  and  C_8
REMARK    4  A    between atoms: C_9  and  C_10
REMARK    5  A    between atoms: C_10  and  C_12
REMARK    6  A    between atoms: C_12  and  C_16
REMARK                            x       y       z     vdW  Elec       q    Type
REMARK                         _______ _______ _______ _____ _____    ______ ____
ROOT
ATOM      1  N   UNL     1     -10.965  -8.483  15.551  0.00  0.00    -0.302 NA
ATOM      4  C   UNL     1      -9.547  -9.389  17.185  0.00  0.00    +0.070 C 
ATOM      5  C   UNL     1     -10.031  -9.595  15.744  0.00  0.00    +0.095 C 
ATOM      6  C   UNL     1      -9.745  -7.887  17.452  0.00  0.00    +0.028 C 
ATOM      7  C   UNL     1     -10.300  -7.326  16.149  0.00  0.00    +0.085 C 
ENDROOT
BRANCH   4   8
ATOM      2  N   UNL     1      -7.812 -10.680  18.480  0.00  0.00    -0.330 N 
ATOM      3  N   UNL     1      -7.101  -9.649  16.644  0.00  0.00    -0.232 NA
ATOM      8  C   UNL     1      -8.139  -9.893  17.411  0.00  0.00    +0.115 A 
ATOM     11  C   UNL     1      -6.472 -10.963  18.396  0.00  0.00    +0.069 A 
ATOM     13  C   UNL     1      -6.052 -10.308  17.242  0.00  0.00    +0.089 A 
ATOM     14  C   UNL     1      -8.712 -11.136  19.515  0.00  0.00    +0.150 C 
ATOM     15  C   UNL     1      -5.619 -11.712  19.207  0.00  0.00    +0.028 A 
ATOM     17  C   UNL     1      -4.703 -10.395  16.859  0.00  0.00    +0.030 A 
ATOM     18  C   UNL     1      -4.279 -11.788  18.810  0.00  0.00    +0.002 A 
ATOM     19  C   UNL     1      -3.828 -11.141  17.658  0.00  0.00    +0.002 A 
ENDBRANCH   4   8
BRANCH   1   9
ATOM      9  C   UNL     1     -11.295  -8.271  14.151  0.00  0.00    +0.085 C 
BRANCH   9  10
ATOM     10  C   UNL     1     -12.506  -7.347  14.025  0.00  0.00    +0.020 C 
BRANCH  10  12
ATOM     12  C   UNL     1     -12.957  -7.224  12.568  0.00  0.00    +0.036 C 
BRANCH  12  16
ATOM     16  C   UNL     1     -12.572  -5.894  11.974  0.00  0.00    -0.047 A 
ATOM     20  C   UNL     1     -12.133  -5.820  10.653  0.00  0.00    +0.003 A 
ATOM     21  C   UNL     1     -12.654  -4.735  12.747  0.00  0.00    +0.003 A 
ATOM     22  C   UNL     1     -11.777  -4.588  10.103  0.00  0.00    +0.000 A 
ATOM     23  C   UNL     1     -12.299  -3.504  12.197  0.00  0.00    +0.000 A 
ATOM     24  C   UNL     1     -11.860  -3.430  10.876  0.00  0.00    +0.000 A 
ENDBRANCH  12  16
ENDBRANCH  10  12
ENDBRANCH   9  10
ENDBRANCH   1   9
TORSDOF 5
ENDMDL
