MODEL 1
REMARK VINA RESULT:      -6.7      0.000      0.000
REMARK  Name = 11943039
REMARK  4 active torsions:
REMARK  status: ('A' for Active; 'I' for Inactive)
REMARK    1  A    between atoms: N_3  and  C_11
REMARK    2  A    between atoms: C_5  and  C_11
REMARK    3  A    between atoms: C_6  and  C_12
REMARK    4  A    between atoms: C_13  and  C_14
REMARK                            x       y       z     vdW  Elec       q    Type
REMARK                         _______ _______ _______ _____ _____    ______ ____
ROOT
ATOM     11  C   UNL     1      13.916   6.670  20.075  0.00  0.00    +0.123 C 
ENDROOT
BRANCH  11   5
ATOM      2  N   UNL     1      11.533   7.348  20.464  0.00  0.00    -0.297 NA
ATOM      4  C   UNL     1      12.145   9.299  22.071  0.00  0.00    -0.000 C 
ATOM      5  C   UNL     1      12.856   7.091  21.096  0.00  0.00    +0.074 C 
ATOM      6  C   UNL     1      11.776   9.839  20.669  0.00  0.00    +0.028 C 
ATOM      7  C   UNL     1      13.316   8.306  21.932  0.00  0.00    +0.024 C 
ATOM      8  C   UNL     1      10.928   8.511  22.589  0.00  0.00    +0.019 C 
ATOM      9  C   UNL     1      11.555   8.634  19.725  0.00  0.00    +0.092 C 
ATOM     10  C   UNL     1      10.525   7.456  21.545  0.00  0.00    +0.085 C 
BRANCH   6  12
ATOM     12  C   UNL     1      12.795  10.796  20.126  0.00  0.00    -0.030 C 
ATOM     20  C   UNL     1      13.151  10.859  18.839  0.00  0.00    +0.004 C 
ENDBRANCH   6  12
ENDBRANCH  11   5
BRANCH  11   3
ATOM      1  O   UNL     1      16.410   5.822  18.853  0.00  0.00    -0.276 OA
ATOM      3  N   UNL     1      15.223   6.697  20.657  0.00  0.00    -0.314 N 
ATOM     14  C   UNL     1      16.371   6.269  19.996  0.00  0.00    +0.216 C 
ATOM     21  H   UNL     1      15.305   7.043  21.609  0.00  0.00    +0.149 HD
BRANCH  14  13
ATOM     13  C   UNL     1      17.612   6.430  20.825  0.00  0.00    +0.075 C 
ATOM     15  C   UNL     1      18.817   5.859  20.075  0.00  0.00    +0.013 C 
ATOM     16  C   UNL     1      17.817   7.905  21.174  0.00  0.00    +0.013 C 
ATOM     17  C   UNL     1      20.117   6.086  20.842  0.00  0.00    +0.001 C 
ATOM     18  C   UNL     1      19.120   8.128  21.939  0.00  0.00    +0.001 C 
ATOM     19  C   UNL     1      20.318   7.558  21.186  0.00  0.00    +0.000 C 
ENDBRANCH  14  13
ENDBRANCH  11   3
TORSDOF 4
ENDMDL
MODEL 2
REMARK VINA RESULT:      -6.5      1.341      2.947
REMARK  Name = 11943039
REMARK  4 active torsions:
REMARK  status: ('A' for Active; 'I' for Inactive)
REMARK    1  A    between atoms: N_3  and  C_11
REMARK    2  A    between atoms: C_5  and  C_11
REMARK    3  A    between atoms: C_6  and  C_12
REMARK    4  A    between atoms: C_13  and  C_14
REMARK                            x       y       z     vdW  Elec       q    Type
REMARK                         _______ _______ _______ _____ _____    ______ ____
ROOT
ATOM     11  C   UNL     1      14.621   6.579  20.049  0.00  0.00    +0.123 C 
ENDROOT
BRANCH  11   5
ATOM      2  N   UNL     1      14.207   9.024  19.677  0.00  0.00    -0.297 NA
ATOM      4  C   UNL     1      11.932   8.656  18.471  0.00  0.00    -0.000 C 
ATOM      5  C   UNL     1      14.166   7.665  19.072  0.00  0.00    +0.074 C 
ATOM      6  C   UNL     1      11.710   9.126  19.928  0.00  0.00    +0.028 C 
ATOM      7  C   UNL     1      12.770   7.362  18.486  0.00  0.00    +0.024 C 
ATOM      8  C   UNL     1      12.769   9.740  17.766  0.00  0.00    +0.019 C 
ATOM      9  C   UNL     1      13.086   9.197  20.633  0.00  0.00    +0.092 C 
ATOM     10  C   UNL     1      14.040  10.015  18.587  0.00  0.00    +0.085 C 
BRANCH   6  12
ATOM     12  C   UNL     1      10.741   8.262  20.678  0.00  0.00    -0.030 C 
ATOM     20  C   UNL     1      11.035   7.619  21.813  0.00  0.00    +0.004 C 
ENDBRANCH   6  12
ENDBRANCH  11   5
BRANCH  11   3
ATOM      1  O   UNL     1      16.846   5.501  18.527  0.00  0.00    -0.276 OA
ATOM      3  N   UNL     1      16.015   6.705  20.341  0.00  0.00    -0.314 N 
ATOM     14  C   UNL     1      17.022   6.154  19.552  0.00  0.00    +0.216 C 
ATOM     21  H   UNL     1      16.274   7.222  21.177  0.00  0.00    +0.149 HD
BRANCH  14  13
ATOM     13  C   UNL     1      18.397   6.459  20.071  0.00  0.00    +0.075 C 
ATOM     15  C   UNL     1      18.304   7.037  21.485  0.00  0.00    +0.013 C 
ATOM     16  C   UNL     1      19.258   5.194  20.038  0.00  0.00    +0.013 C 
ATOM     17  C   UNL     1      19.686   7.274  22.088  0.00  0.00    +0.001 C 
ATOM     18  C   UNL     1      20.637   5.435  20.646  0.00  0.00    +0.001 C 
ATOM     19  C   UNL     1      20.539   6.010  22.056  0.00  0.00    +0.000 C 
ENDBRANCH  14  13
ENDBRANCH  11   3
TORSDOF 4
ENDMDL
MODEL 3
REMARK VINA RESULT:      -6.3     15.993     17.415
REMARK  Name = 11943039
REMARK  4 active torsions:
REMARK  status: ('A' for Active; 'I' for Inactive)
REMARK    1  A    between atoms: N_3  and  C_11
REMARK    2  A    between atoms: C_5  and  C_11
REMARK    3  A    between atoms: C_6  and  C_12
REMARK    4  A    between atoms: C_13  and  C_14
REMARK                            x       y       z     vdW  Elec       q    Type
REMARK                         _______ _______ _______ _____ _____    ______ ____
ROOT
ATOM     11  C   UNL     1      10.264   4.718   4.669  0.00  0.00    +0.123 C 
ENDROOT
BRANCH  11   5
ATOM      2  N   UNL     1      11.104   6.605   6.091  0.00  0.00    -0.297 NA
ATOM      4  C   UNL     1       8.905   6.806   7.466  0.00  0.00    -0.000 C 
ATOM      5  C   UNL     1       9.959   6.078   5.299  0.00  0.00    +0.074 C 
ATOM      6  C   UNL     1       9.997   6.075   8.282  0.00  0.00    +0.028 C 
ATOM      7  C   UNL     1       8.670   6.040   6.149  0.00  0.00    +0.024 C 
ATOM      8  C   UNL     1       9.464   8.194   7.100  0.00  0.00    +0.019 C 
ATOM      9  C   UNL     1      11.229   5.865   7.371  0.00  0.00    +0.092 C 
ATOM     10  C   UNL     1      10.826   8.026   6.406  0.00  0.00    +0.085 C 
BRANCH   6  12
ATOM     12  C   UNL     1       9.516   4.785   8.878  0.00  0.00    -0.030 C 
ATOM     20  C   UNL     1       9.040   4.667  10.121  0.00  0.00    +0.004 C 
ENDBRANCH   6  12
ENDBRANCH  11   5
BRANCH  11   3
ATOM      1  O   UNL     1      10.261   3.925   1.875  0.00  0.00    -0.276 OA
ATOM      3  N   UNL     1      11.343   4.819   3.735  0.00  0.00    -0.314 N 
ATOM     14  C   UNL     1      11.255   4.413   2.406  0.00  0.00    +0.216 C 
ATOM     21  H   UNL     1      12.221   5.202   4.074  0.00  0.00    +0.149 HD
BRANCH  14  13
ATOM     13  C   UNL     1      12.523   4.654   1.641  0.00  0.00    +0.075 C 
ATOM     15  C   UNL     1      13.417   3.414   1.709  0.00  0.00    +0.013 C 
ATOM     16  C   UNL     1      12.195   5.029   0.194  0.00  0.00    +0.013 C 
ATOM     17  C   UNL     1      14.677   3.580   0.865  0.00  0.00    +0.001 C 
ATOM     18  C   UNL     1      13.459   5.191  -0.648  0.00  0.00    +0.001 C 
ATOM     19  C   UNL     1      14.345   3.951  -0.577  0.00  0.00    +0.000 C 
ENDBRANCH  14  13
ENDBRANCH  11   3
TORSDOF 4
ENDMDL
MODEL 4
REMARK VINA RESULT:      -6.0     26.113     28.077
REMARK  Name = 11943039
REMARK  4 active torsions:
REMARK  status: ('A' for Active; 'I' for Inactive)
REMARK    1  A    between atoms: N_3  and  C_11
REMARK    2  A    between atoms: C_5  and  C_11
REMARK    3  A    between atoms: C_6  and  C_12
REMARK    4  A    between atoms: C_13  and  C_14
REMARK                            x       y       z     vdW  Elec       q    Type
REMARK                         _______ _______ _______ _____ _____    ______ ____
ROOT
ATOM     11  C   UNL     1      -5.066 -13.828  16.773  0.00  0.00    +0.123 C 
ENDROOT
BRANCH  11   5
ATOM      2  N   UNL     1      -6.846 -12.650  18.090  0.00  0.00    -0.297 NA
ATOM      4  C   UNL     1      -5.359 -10.584  18.623  0.00  0.00    -0.000 C 
ATOM      5  C   UNL     1      -5.409 -13.030  18.033  0.00  0.00    +0.074 C 
ATOM      6  C   UNL     1      -6.368 -10.256  17.497  0.00  0.00    +0.028 C 
ATOM      7  C   UNL     1      -4.501 -11.790  18.191  0.00  0.00    +0.024 C 
ATOM      8  C   UNL     1      -6.177 -11.015  19.855  0.00  0.00    +0.019 C 
ATOM      9  C   UNL     1      -7.128 -11.553  17.131  0.00  0.00    +0.092 C 
ATOM     10  C   UNL     1      -7.134 -12.152  19.456  0.00  0.00    +0.085 C 
BRANCH   6  12
ATOM     12  C   UNL     1      -5.721  -9.630  16.298  0.00  0.00    -0.030 C 
ATOM     20  C   UNL     1      -5.870 -10.078  15.047  0.00  0.00    +0.004 C 
ENDBRANCH   6  12
ENDBRANCH  11   5
BRANCH  11   3
ATOM      1  O   UNL     1      -4.029 -14.612  14.177  0.00  0.00    -0.276 OA
ATOM      3  N   UNL     1      -4.093 -13.140  15.982  0.00  0.00    -0.314 N 
ATOM     14  C   UNL     1      -3.650 -13.588  14.741  0.00  0.00    +0.216 C 
ATOM     21  H   UNL     1      -3.705 -12.281  16.361  0.00  0.00    +0.149 HD
BRANCH  14  13
ATOM     13  C   UNL     1      -2.647 -12.665  14.115  0.00  0.00    +0.075 C 
ATOM     15  C   UNL     1      -3.070 -12.331  12.682  0.00  0.00    +0.013 C 
ATOM     16  C   UNL     1      -2.502 -11.401  14.964  0.00  0.00    +0.013 C 
ATOM     17  C   UNL     1      -2.127 -11.318  12.038  0.00  0.00    +0.001 C 
ATOM     18  C   UNL     1      -1.560 -10.389  14.315  0.00  0.00    +0.001 C 
ATOM     19  C   UNL     1      -1.987 -10.059  12.888  0.00  0.00    +0.000 C 
ENDBRANCH  14  13
ENDBRANCH  11   3
TORSDOF 4
ENDMDL
MODEL 5
REMARK VINA RESULT:      -5.9     26.358     27.913
REMARK  Name = 11943039
REMARK  4 active torsions:
REMARK  status: ('A' for Active; 'I' for Inactive)
REMARK    1  A    between atoms: N_3  and  C_11
REMARK    2  A    between atoms: C_5  and  C_11
REMARK    3  A    between atoms: C_6  and  C_12
REMARK    4  A    between atoms: C_13  and  C_14
REMARK                            x       y       z     vdW  Elec       q    Type
REMARK                         _______ _______ _______ _____ _____    ______ ____
ROOT
ATOM     11  C   UNL     1      -2.772 -10.734  15.659  0.00  0.00    +0.123 C 
ENDROOT
BRANCH  11   5
ATOM      2  N   UNL     1      -4.099 -11.709  17.551  0.00  0.00    -0.297 NA
ATOM      4  C   UNL     1      -6.343 -10.640  16.787  0.00  0.00    -0.000 C 
ATOM      5  C   UNL     1      -3.831 -10.493  16.737  0.00  0.00    +0.074 C 
ATOM      6  C   UNL     1      -6.297 -12.141  16.416  0.00  0.00    +0.028 C 
ATOM      7  C   UNL     1      -5.139  -9.928  16.140  0.00  0.00    +0.024 C 
ATOM      8  C   UNL     1      -6.171 -10.545  18.315  0.00  0.00    +0.019 C 
ATOM      9  C   UNL     1      -4.894 -12.688  16.769  0.00  0.00    +0.092 C 
ATOM     10  C   UNL     1      -4.899 -11.303  18.731  0.00  0.00    +0.085 C 
BRANCH   6  12
ATOM     12  C   UNL     1      -6.652 -12.398  14.981  0.00  0.00    -0.030 C 
ATOM     20  C   UNL     1      -5.881 -13.081  14.130  0.00  0.00    +0.004 C 
ENDBRANCH   6  12
ENDBRANCH  11   5
BRANCH  11   3
ATOM      1  O   UNL     1      -1.907 -11.893  13.141  0.00  0.00    -0.276 OA
ATOM      3  N   UNL     1      -3.304 -10.478  14.356  0.00  0.00    -0.314 N 
ATOM     14  C   UNL     1      -2.827 -11.081  13.195  0.00  0.00    +0.216 C 
ATOM     21  H   UNL     1      -4.066  -9.811  14.284  0.00  0.00    +0.149 HD
BRANCH  14  13
ATOM     13  C   UNL     1      -3.578 -10.654  11.968  0.00  0.00    +0.075 C 
ATOM     15  C   UNL     1      -4.849  -9.903  12.372  0.00  0.00    +0.013 C 
ATOM     16  C   UNL     1      -2.679  -9.793  11.079  0.00  0.00    +0.013 C 
ATOM     17  C   UNL     1      -5.598  -9.368  11.154  0.00  0.00    +0.001 C 
ATOM     18  C   UNL     1      -3.432  -9.257   9.864  0.00  0.00    +0.001 C 
ATOM     19  C   UNL     1      -4.698  -8.509  10.272  0.00  0.00    +0.000 C 
ENDBRANCH  14  13
ENDBRANCH  11   3
TORSDOF 4
ENDMDL
MODEL 6
REMARK VINA RESULT:      -5.9     17.299     19.167
REMARK  Name = 11943039
REMARK  4 active torsions:
REMARK  status: ('A' for Active; 'I' for Inactive)
REMARK    1  A    between atoms: N_3  and  C_11
REMARK    2  A    between atoms: C_5  and  C_11
REMARK    3  A    between atoms: C_6  and  C_12
REMARK    4  A    between atoms: C_13  and  C_14
REMARK                            x       y       z     vdW  Elec       q    Type
REMARK                         _______ _______ _______ _____ _____    ______ ____
ROOT
ATOM     11  C   UNL     1      10.673   5.208   2.447  0.00  0.00    +0.123 C 
ENDROOT
BRANCH  11   5
ATOM      2  N   UNL     1      12.969   5.663   1.547  0.00  0.00    -0.297 NA
ATOM      4  C   UNL     1      13.407   3.190   0.871  0.00  0.00    -0.000 C 
ATOM      5  C   UNL     1      12.132   4.754   2.376  0.00  0.00    +0.074 C 
ATOM      6  C   UNL     1      13.056   4.043  -0.371  0.00  0.00    +0.028 C 
ATOM      7  C   UNL     1      12.255   3.293   1.890  0.00  0.00    +0.024 C 
ATOM      8  C   UNL     1      14.654   3.822   1.517  0.00  0.00    +0.019 C 
ATOM      9  C   UNL     1      12.674   5.465   0.106  0.00  0.00    +0.092 C 
ATOM     10  C   UNL     1      14.391   5.314   1.778  0.00  0.00    +0.085 C 
BRANCH   6  12
ATOM     12  C   UNL     1      11.979   3.429  -1.215  0.00  0.00    -0.030 C 
ATOM     20  C   UNL     1      12.186   2.441  -2.091  0.00  0.00    +0.004 C 
ENDBRANCH   6  12
ENDBRANCH  11   5
BRANCH  11   3
ATOM      1  O   UNL     1       8.943   7.181   3.691  0.00  0.00    -0.276 OA
ATOM      3  N   UNL     1      10.211   5.229   3.801  0.00  0.00    -0.314 N 
ATOM     14  C   UNL     1       9.379   6.218   4.318  0.00  0.00    +0.216 C 
ATOM     21  H   UNL     1      10.520   4.479   4.412  0.00  0.00    +0.149 HD
BRANCH  14  13
ATOM     13  C   UNL     1       9.025   5.985   5.757  0.00  0.00    +0.075 C 
ATOM     15  C   UNL     1       9.935   4.906   6.348  0.00  0.00    +0.013 C 
ATOM     16  C   UNL     1       9.132   7.296   6.539  0.00  0.00    +0.013 C 
ATOM     17  C   UNL     1       9.673   4.702   7.838  0.00  0.00    +0.001 C 
ATOM     18  C   UNL     1       8.873   7.088   8.029  0.00  0.00    +0.001 C 
ATOM     19  C   UNL     1       9.783   6.011   8.613  0.00  0.00    +0.000 C 
ENDBRANCH  14  13
ENDBRANCH  11   3
TORSDOF 4
ENDMDL
MODEL 7
REMARK VINA RESULT:      -5.8     25.759     27.993
REMARK  Name = 11943039
REMARK  4 active torsions:
REMARK  status: ('A' for Active; 'I' for Inactive)
REMARK    1  A    between atoms: N_3  and  C_11
REMARK    2  A    between atoms: C_5  and  C_11
REMARK    3  A    between atoms: C_6  and  C_12
REMARK    4  A    between atoms: C_13  and  C_14
REMARK                            x       y       z     vdW  Elec       q    Type
REMARK                         _______ _______ _______ _____ _____    ______ ____
ROOT
ATOM     11  C   UNL     1      -6.815  -9.964  15.041  0.00  0.00    +0.123 C 
ENDROOT
BRANCH  11   5
ATOM      2  N   UNL     1      -6.013 -10.497  17.357  0.00  0.00    -0.297 NA
ATOM      4  C   UNL     1      -4.575 -12.529  16.602  0.00  0.00    -0.000 C 
ATOM      5  C   UNL     1      -6.546 -11.052  16.083  0.00  0.00    +0.074 C 
ATOM      6  C   UNL     1      -3.681 -11.297  16.878  0.00  0.00    +0.028 C 
ATOM      7  C   UNL     1      -5.620 -12.158  15.530  0.00  0.00    +0.024 C 
ATOM      8  C   UNL     1      -5.338 -12.838  17.904  0.00  0.00    +0.019 C 
ATOM      9  C   UNL     1      -4.597 -10.090  17.189  0.00  0.00    +0.092 C 
ATOM     10  C   UNL     1      -6.066 -11.570  18.379  0.00  0.00    +0.085 C 
BRANCH   6  12
ATOM     12  C   UNL     1      -2.730 -11.004  15.756  0.00  0.00    -0.030 C 
ATOM     20  C   UNL     1      -1.492 -10.530  15.929  0.00  0.00    +0.004 C 
ENDBRANCH   6  12
ENDBRANCH  11   5
BRANCH  11   3
ATOM      1  O   UNL     1      -7.364  -9.190  12.297  0.00  0.00    -0.276 OA
ATOM      3  N   UNL     1      -5.960 -10.122  13.906  0.00  0.00    -0.314 N 
ATOM     14  C   UNL     1      -6.304  -9.720  12.618  0.00  0.00    +0.216 C 
ATOM     21  H   UNL     1      -5.056 -10.560  14.058  0.00  0.00    +0.149 HD
BRANCH  14  13
ATOM     13  C   UNL     1      -5.215  -9.979  11.619  0.00  0.00    +0.075 C 
ATOM     15  C   UNL     1      -4.997  -8.737  10.752  0.00  0.00    +0.013 C 
ATOM     16  C   UNL     1      -3.930 -10.387  12.343  0.00  0.00    +0.013 C 
ATOM     17  C   UNL     1      -3.833  -8.923   9.783  0.00  0.00    +0.001 C 
ATOM     18  C   UNL     1      -2.767 -10.569  11.371  0.00  0.00    +0.001 C 
ATOM     19  C   UNL     1      -2.555  -9.328  10.510  0.00  0.00    +0.000 C 
ENDBRANCH  14  13
ENDBRANCH  11   3
TORSDOF 4
ENDMDL
MODEL 8
REMARK VINA RESULT:      -5.8     11.650     13.708
REMARK  Name = 11943039
REMARK  4 active torsions:
REMARK  status: ('A' for Active; 'I' for Inactive)
REMARK    1  A    between atoms: N_3  and  C_11
REMARK    2  A    between atoms: C_5  and  C_11
REMARK    3  A    between atoms: C_6  and  C_12
REMARK    4  A    between atoms: C_13  and  C_14
REMARK                            x       y       z     vdW  Elec       q    Type
REMARK                         _______ _______ _______ _____ _____    ______ ____
ROOT
ATOM     11  C   UNL     1      18.944  -3.000  26.411  0.00  0.00    +0.123 C 
ENDROOT
BRANCH  11   5
ATOM      2  N   UNL     1      17.070  -2.140  24.983  0.00  0.00    -0.297 NA
ATOM      4  C   UNL     1      18.129  -2.963  22.755  0.00  0.00    -0.000 C 
ATOM      5  C   UNL     1      18.546  -2.256  25.134  0.00  0.00    +0.074 C 
ATOM      6  C   UNL     1      16.985  -3.905  23.199  0.00  0.00    +0.028 C 
ATOM      7  C   UNL     1      19.182  -2.892  23.879  0.00  0.00    +0.024 C 
ATOM      8  C   UNL     1      17.524  -1.555  22.598  0.00  0.00    +0.019 C 
ATOM      9  C   UNL     1      16.487  -3.446  24.590  0.00  0.00    +0.092 C 
ATOM     10  C   UNL     1      16.797  -1.168  23.897  0.00  0.00    +0.085 C 
BRANCH   6  12
ATOM     12  C   UNL     1      17.386  -5.350  23.197  0.00  0.00    -0.030 C 
ATOM     20  C   UNL     1      17.389  -6.127  24.285  0.00  0.00    +0.004 C 
ENDBRANCH   6  12
ENDBRANCH  11   5
BRANCH  11   3
ATOM      1  O   UNL     1      17.663  -4.538  28.515  0.00  0.00    -0.276 OA
ATOM      3  N   UNL     1      18.222  -2.497  27.540  0.00  0.00    -0.314 N 
ATOM     14  C   UNL     1      17.637  -3.310  28.507  0.00  0.00    +0.216 C 
ATOM     21  H   UNL     1      18.131  -1.489  27.626  0.00  0.00    +0.149 HD
BRANCH  14  13
ATOM     13  C   UNL     1      16.964  -2.526  29.594  0.00  0.00    +0.075 C 
ATOM     15  C   UNL     1      16.296  -3.480  30.588  0.00  0.00    +0.013 C 
ATOM     16  C   UNL     1      17.982  -1.618  30.288  0.00  0.00    +0.013 C 
ATOM     17  C   UNL     1      15.679  -2.727  31.763  0.00  0.00    +0.001 C 
ATOM     18  C   UNL     1      17.361  -0.870  31.465  0.00  0.00    +0.001 C 
ATOM     19  C   UNL     1      16.698  -1.826  32.452  0.00  0.00    +0.000 C 
ENDBRANCH  14  13
ENDBRANCH  11   3
TORSDOF 4
ENDMDL
MODEL 9
REMARK VINA RESULT:      -5.7     32.884     34.615
REMARK  Name = 11943039
REMARK  4 active torsions:
REMARK  status: ('A' for Active; 'I' for Inactive)
REMARK    1  A    between atoms: N_3  and  C_11
REMARK    2  A    between atoms: C_5  and  C_11
REMARK    3  A    between atoms: C_6  and  C_12
REMARK    4  A    between atoms: C_13  and  C_14
REMARK                            x       y       z     vdW  Elec       q    Type
REMARK                         _______ _______ _______ _____ _____    ______ ____
ROOT
ATOM     11  C   UNL     1       3.895 -16.699  -2.602  0.00  0.00    +0.123 C 
ENDROOT
BRANCH  11   5
ATOM      2  N   UNL     1       4.000 -17.294  -0.169  0.00  0.00    -0.297 NA
ATOM      4  C   UNL     1       4.691 -14.904   0.588  0.00  0.00    -0.000 C 
ATOM      5  C   UNL     1       4.671 -16.581  -1.288  0.00  0.00    +0.074 C 
ATOM      6  C   UNL     1       3.193 -15.158   0.877  0.00  0.00    +0.028 C 
ATOM      7  C   UNL     1       4.951 -15.108  -0.918  0.00  0.00    +0.024 C 
ATOM      8  C   UNL     1       5.490 -15.981   1.345  0.00  0.00    +0.019 C 
ATOM      9  C   UNL     1       2.809 -16.535   0.286  0.00  0.00    +0.092 C 
ATOM     10  C   UNL     1       4.956 -17.372   0.962  0.00  0.00    +0.085 C 
BRANCH   6  12
ATOM     12  C   UNL     1       2.305 -14.063   0.365  0.00  0.00    -0.030 C 
ATOM     20  C   UNL     1       1.315 -14.251  -0.513  0.00  0.00    +0.004 C 
ENDBRANCH   6  12
ENDBRANCH  11   5
BRANCH  11   3
ATOM      1  O   UNL     1       1.587 -15.695  -4.050  0.00  0.00    -0.276 OA
ATOM      3  N   UNL     1       3.749 -15.419  -3.225  0.00  0.00    -0.314 N 
ATOM     14  C   UNL     1       2.601 -15.017  -3.902  0.00  0.00    +0.216 C 
ATOM     21  H   UNL     1       4.536 -14.779  -3.170  0.00  0.00    +0.149 HD
BRANCH  14  13
ATOM     13  C   UNL     1       2.703 -13.619  -4.437  0.00  0.00    +0.075 C 
ATOM     15  C   UNL     1       2.776 -13.650  -5.966  0.00  0.00    +0.013 C 
ATOM     16  C   UNL     1       1.515 -12.787  -3.951  0.00  0.00    +0.013 C 
ATOM     17  C   UNL     1       2.786 -12.244  -6.558  0.00  0.00    +0.001 C 
ATOM     18  C   UNL     1       1.527 -11.382  -4.548  0.00  0.00    +0.001 C 
ATOM     19  C   UNL     1       1.599 -11.419  -6.072  0.00  0.00    +0.000 C 
ENDBRANCH  14  13
ENDBRANCH  11   3
TORSDOF 4
ENDMDL
MODEL 10
REMARK VINA RESULT:      -5.7     26.221     27.972
REMARK  Name = 11943039
REMARK  4 active torsions:
REMARK  status: ('A' for Active; 'I' for Inactive)
REMARK    1  A    between atoms: N_3  and  C_11
REMARK    2  A    between atoms: C_5  and  C_11
REMARK    3  A    between atoms: C_6  and  C_12
REMARK    4  A    between atoms: C_13  and  C_14
REMARK                            x       y       z     vdW  Elec       q    Type
REMARK                         _______ _______ _______ _____ _____    ______ ____
ROOT
ATOM     11  C   UNL     1     -13.746  10.713  19.060  0.00  0.00    +0.123 C 
ENDROOT
BRANCH  11   5
ATOM      2  N   UNL     1     -12.934   9.008  17.411  0.00  0.00    -0.297 NA
ATOM      4  C   UNL     1     -10.534   8.901  18.406  0.00  0.00    -0.000 C 
ATOM      5  C   UNL     1     -12.620  10.278  18.119  0.00  0.00    +0.074 C 
ATOM      6  C   UNL     1     -11.364   7.671  18.845  0.00  0.00    +0.028 C 
ATOM      7  C   UNL     1     -11.265  10.183  18.853  0.00  0.00    +0.024 C 
ATOM      8  C   UNL     1     -10.500   8.900  16.866  0.00  0.00    +0.019 C 
ATOM      9  C   UNL     1     -12.814   7.856  18.339  0.00  0.00    +0.092 C 
ATOM     10  C   UNL     1     -11.939   8.831  16.327  0.00  0.00    +0.085 C 
BRANCH   6  12
ATOM     12  C   UNL     1     -11.314   7.432  20.325  0.00  0.00    -0.030 C 
ATOM     20  C   UNL     1     -12.111   6.575  20.971  0.00  0.00    +0.004 C 
ENDBRANCH   6  12
ENDBRANCH  11   5
BRANCH  11   3
ATOM      1  O   UNL     1     -14.732   8.997  21.185  0.00  0.00    -0.276 OA
ATOM      3  N   UNL     1     -13.312  10.681  20.423  0.00  0.00    -0.314 N 
ATOM     14  C   UNL     1     -13.842   9.821  21.382  0.00  0.00    +0.216 C 
ATOM     21  H   UNL     1     -12.582  11.331  20.698  0.00  0.00    +0.149 HD
BRANCH  14  13
ATOM     13  C   UNL     1     -13.191   9.976  22.724  0.00  0.00    +0.075 C 
ATOM     15  C   UNL     1     -12.321  11.235  22.738  0.00  0.00    +0.013 C 
ATOM     16  C   UNL     1     -14.258  10.021  23.819  0.00  0.00    +0.013 C 
ATOM     17  C   UNL     1     -11.712  11.484  24.115  0.00  0.00    +0.001 C 
ATOM     18  C   UNL     1     -13.645  10.274  25.195  0.00  0.00    +0.001 C 
ATOM     19  C   UNL     1     -12.780  11.531  25.203  0.00  0.00    +0.000 C 
ENDBRANCH  14  13
ENDBRANCH  11   3
TORSDOF 4
ENDMDL
