MODEL 1
REMARK VINA RESULT:      -6.4      0.000      0.000
REMARK  Name = 7127894
REMARK  11 active torsions:
REMARK  status: ('A' for Active; 'I' for Inactive)
REMARK    1  A    between atoms: S_1  and  C_24
REMARK    2  A    between atoms: S_1  and  C_27
REMARK    3  A    between atoms: O_4  and  C_15
REMARK    4  A    between atoms: O_5  and  C_16
REMARK    5  A    between atoms: N_11  and  C_17
REMARK    6  A    between atoms: N_12  and  C_22
REMARK    7  A    between atoms: N_13  and  C_28
REMARK    8  A    between atoms: C_19  and  C_21
REMARK    9  A    between atoms: C_22  and  C_23
REMARK   10  A    between atoms: C_22  and  C_26
REMARK   11  A    between atoms: C_23  and  C_24
REMARK                            x       y       z     vdW  Elec       q    Type
REMARK                         _______ _______ _______ _____ _____    ______ ____
ROOT
ATOM     15  C   UNL     1      13.595   3.776   1.293  0.00  0.00    +0.167 C 
ATOM     16  C   UNL     1      14.000   3.746  -0.186  0.00  0.00    +0.149 C 
ATOM     17  C   UNL     1      12.542   4.866   1.568  0.00  0.00    +0.129 C 
ATOM     18  C   UNL     1      12.788   3.562  -1.115  0.00  0.00    +0.074 C 
ATOM     19  C   UNL     1      11.570   4.316  -0.662  0.00  0.00    +0.015 C 
ATOM     20  C   UNL     1      11.450   4.913   0.535  0.00  0.00    +0.006 C 
ENDROOT
BRANCH  17  11
ATOM      7  O   UNL     1      11.453   6.945   3.210  0.00  0.00    -0.252 OA
ATOM     11  N   UNL     1      11.944   4.711   2.872  0.00  0.00    -0.290 N 
ATOM     13  N   UNL     1      10.918   5.333   4.830  0.00  0.00    -0.267 N 
ATOM     25  C   UNL     1      11.433   5.784   3.611  0.00  0.00    +0.304 C 
ATOM     34  H   UNL     1      11.939   3.789   3.298  0.00  0.00    +0.151 HD
ATOM     38  H   UNL     1      10.979   4.334   5.011  0.00  0.00    +0.156 HD
BRANCH  13  28
ATOM      2  F   UNL     1      12.418   6.355   6.932  0.00  0.00    -0.203 F 
ATOM      3  F   UNL     1       8.558   8.319   8.833  0.00  0.00    -0.205 F 
ATOM     28  C   UNL     1      10.317   6.098   5.856  0.00  0.00    +0.070 A 
ATOM     29  C   UNL     1      11.100   6.590   6.888  0.00  0.00    +0.147 A 
ATOM     30  C   UNL     1       8.954   6.339   5.808  0.00  0.00    +0.029 A 
ATOM     31  C   UNL     1      10.504   7.344   7.898  0.00  0.00    +0.078 A 
ATOM     32  C   UNL     1       8.356   7.093   6.818  0.00  0.00    +0.040 A 
ATOM     33  C   UNL     1       9.132   7.596   7.864  0.00  0.00    +0.126 A 
ENDBRANCH  13  28
ENDBRANCH  17  11
BRANCH  19  21
ATOM      6  O   UNL     1       9.334   4.797  -1.201  0.00  0.00    -0.271 OA
ATOM     12  N   UNL     1      10.777   4.088  -2.890  0.00  0.00    -0.300 N 
ATOM     21  C   UNL     1      10.442   4.430  -1.591  0.00  0.00    +0.241 C 
ATOM     35  H   UNL     1      11.714   3.779  -3.118  0.00  0.00    +0.150 HD
BRANCH  12  22
ATOM     22  C   UNL     1       9.831   4.119  -3.983  0.00  0.00    +0.160 C 
BRANCH  22  26
ATOM     10  O   UNL     1       9.113   1.867  -3.425  0.00  0.00    -0.274 OA
ATOM     14  N   UNL     1       9.429   2.401  -5.635  0.00  0.00    -0.328 N 
ATOM     26  C   UNL     1       9.435   2.681  -4.285  0.00  0.00    +0.231 C 
ATOM     39  H   UNL     1       9.656   3.094  -6.341  0.00  0.00    +0.145 HD
ATOM     40  H   UNL     1       9.174   1.479  -5.973  0.00  0.00    +0.145 HD
ENDBRANCH  22  26
BRANCH  22  23
ATOM     23  C   UNL     1      10.416   4.789  -5.228  0.00  0.00    +0.054 C 
BRANCH  23  24
ATOM     24  C   UNL     1      11.919   5.004  -5.119  0.00  0.00    +0.168 C 
BRANCH  24   1
ATOM      1  S   UNL     1      12.811   3.591  -5.689  0.00  0.00    -0.034 S 
ATOM      8  O   UNL     1      12.994   2.686  -4.568  0.00  0.00    -0.175 OA
ATOM      9  O   UNL     1      12.193   3.130  -6.920  0.00  0.00    -0.175 OA
ATOM     27  C   UNL     1      14.408   4.256  -6.107  0.00  0.00    +0.194 C 
ENDBRANCH  24   1
ENDBRANCH  23  24
ENDBRANCH  22  23
ENDBRANCH  12  22
ENDBRANCH  19  21
BRANCH  15   4
ATOM      4  O   UNL     1      13.066   2.496   1.651  0.00  0.00    -0.387 OA
ATOM     36  H   UNL     1      12.190   2.620   2.051  0.00  0.00    +0.210 HD
ENDBRANCH  15   4
BRANCH  16   5
ATOM      5  O   UNL     1      14.702   4.940  -0.527  0.00  0.00    -0.389 OA
ATOM     37  H   UNL     1      15.648   4.721  -0.568  0.00  0.00    +0.210 HD
ENDBRANCH  16   5
TORSDOF 10
ENDMDL
MODEL 2
REMARK VINA RESULT:      -6.4     18.099     22.218
REMARK  Name = 7127894
REMARK  11 active torsions:
REMARK  status: ('A' for Active; 'I' for Inactive)
REMARK    1  A    between atoms: S_1  and  C_24
REMARK    2  A    between atoms: S_1  and  C_27
REMARK    3  A    between atoms: O_4  and  C_15
REMARK    4  A    between atoms: O_5  and  C_16
REMARK    5  A    between atoms: N_11  and  C_17
REMARK    6  A    between atoms: N_12  and  C_22
REMARK    7  A    between atoms: N_13  and  C_28
REMARK    8  A    between atoms: C_19  and  C_21
REMARK    9  A    between atoms: C_22  and  C_23
REMARK   10  A    between atoms: C_22  and  C_26
REMARK   11  A    between atoms: C_23  and  C_24
REMARK                            x       y       z     vdW  Elec       q    Type
REMARK                         _______ _______ _______ _____ _____    ______ ____
ROOT
ATOM     15  C   UNL     1      17.883   9.961  21.680  0.00  0.00    +0.167 C 
ATOM     16  C   UNL     1      16.462  10.538  21.688  0.00  0.00    +0.149 C 
ATOM     17  C   UNL     1      17.869   8.427  21.537  0.00  0.00    +0.129 C 
ATOM     18  C   UNL     1      15.663  10.127  20.440  0.00  0.00    +0.074 C 
ATOM     19  C   UNL     1      15.920   8.712  20.007  0.00  0.00    +0.015 C 
ATOM     20  C   UNL     1      16.900   7.935  20.497  0.00  0.00    +0.006 C 
ENDROOT
BRANCH  17  11
ATOM      7  O   UNL     1      19.143   6.173  22.762  0.00  0.00    -0.252 OA
ATOM     11  N   UNL     1      19.181   7.908  21.234  0.00  0.00    -0.290 N 
ATOM     13  N   UNL     1      21.009   6.527  21.383  0.00  0.00    -0.267 N 
ATOM     25  C   UNL     1      19.732   6.797  21.882  0.00  0.00    +0.304 C 
ATOM     34  H   UNL     1      19.754   8.402  20.557  0.00  0.00    +0.151 HD
ATOM     38  H   UNL     1      21.354   7.143  20.650  0.00  0.00    +0.156 HD
BRANCH  13  28
ATOM      2  F   UNL     1      20.671   3.925  20.476  0.00  0.00    -0.203 F 
ATOM      3  F   UNL     1      24.468   2.500  22.909  0.00  0.00    -0.205 F 
ATOM     28  C   UNL     1      21.894   5.495  21.771  0.00  0.00    +0.070 A 
ATOM     29  C   UNL     1      21.691   4.208  21.297  0.00  0.00    +0.147 A 
ATOM     30  C   UNL     1      22.947   5.791  22.621  0.00  0.00    +0.029 A 
ATOM     31  C   UNL     1      22.564   3.193  21.683  0.00  0.00    +0.078 A 
ATOM     32  C   UNL     1      23.821   4.775  23.008  0.00  0.00    +0.040 A 
ATOM     33  C   UNL     1      23.629   3.476  22.538  0.00  0.00    +0.126 A 
ENDBRANCH  13  28
ENDBRANCH  17  11
BRANCH  19  21
ATOM      6  O   UNL     1      15.198   6.971  18.603  0.00  0.00    -0.271 OA
ATOM     12  N   UNL     1      14.045   8.998  18.577  0.00  0.00    -0.300 N 
ATOM     21  C   UNL     1      15.033   8.125  18.998  0.00  0.00    +0.241 C 
ATOM     35  H   UNL     1      13.996   9.940  18.946  0.00  0.00    +0.150 HD
BRANCH  12  22
ATOM     22  C   UNL     1      13.053   8.647  17.585  0.00  0.00    +0.160 C 
BRANCH  22  26
ATOM     10  O   UNL     1      13.913  10.605  16.433  0.00  0.00    -0.274 OA
ATOM     14  N   UNL     1      11.927   9.699  15.722  0.00  0.00    -0.328 N 
ATOM     26  C   UNL     1      13.028   9.763  16.550  0.00  0.00    +0.231 C 
ATOM     39  H   UNL     1      11.223   8.973  15.799  0.00  0.00    +0.145 HD
ATOM     40  H   UNL     1      11.795  10.380  14.981  0.00  0.00    +0.145 HD
ENDBRANCH  22  26
BRANCH  22  23
ATOM     23  C   UNL     1      11.666   8.457  18.204  0.00  0.00    +0.054 C 
BRANCH  23  24
ATOM     24  C   UNL     1      11.615   8.898  19.660  0.00  0.00    +0.168 C 
BRANCH  24   1
ATOM      1  S   UNL     1      11.565   7.509  20.749  0.00  0.00    -0.034 S 
ATOM      8  O   UNL     1      10.335   7.577  21.518  0.00  0.00    -0.175 OA
ATOM      9  O   UNL     1      11.893   6.319  19.981  0.00  0.00    -0.175 OA
ATOM     27  C   UNL     1      12.915   7.816  21.866  0.00  0.00    +0.194 C 
ENDBRANCH  24   1
ENDBRANCH  23  24
ENDBRANCH  22  23
ENDBRANCH  12  22
ENDBRANCH  19  21
BRANCH  15   4
ATOM      4  O   UNL     1      18.608  10.537  20.591  0.00  0.00    -0.387 OA
ATOM     36  H   UNL     1      18.701   9.872  19.889  0.00  0.00    +0.210 HD
ENDBRANCH  15   4
BRANCH  16   5
ATOM      5  O   UNL     1      15.773  10.129  22.868  0.00  0.00    -0.389 OA
ATOM     37  H   UNL     1      15.175  10.852  23.123  0.00  0.00    +0.210 HD
ENDBRANCH  16   5
TORSDOF 10
ENDMDL
MODEL 3
REMARK VINA RESULT:      -6.4     25.637     28.376
REMARK  Name = 7127894
REMARK  11 active torsions:
REMARK  status: ('A' for Active; 'I' for Inactive)
REMARK    1  A    between atoms: S_1  and  C_24
REMARK    2  A    between atoms: S_1  and  C_27
REMARK    3  A    between atoms: O_4  and  C_15
REMARK    4  A    between atoms: O_5  and  C_16
REMARK    5  A    between atoms: N_11  and  C_17
REMARK    6  A    between atoms: N_12  and  C_22
REMARK    7  A    between atoms: N_13  and  C_28
REMARK    8  A    between atoms: C_19  and  C_21
REMARK    9  A    between atoms: C_22  and  C_23
REMARK   10  A    between atoms: C_22  and  C_26
REMARK   11  A    between atoms: C_23  and  C_24
REMARK                            x       y       z     vdW  Elec       q    Type
REMARK                         _______ _______ _______ _____ _____    ______ ____
ROOT
ATOM     15  C   UNL     1      -8.211 -10.350  18.242  0.00  0.00    +0.167 C 
ATOM     16  C   UNL     1      -7.155 -10.928  19.190  0.00  0.00    +0.149 C 
ATOM     17  C   UNL     1      -7.569  -9.493  17.134  0.00  0.00    +0.129 C 
ATOM     18  C   UNL     1      -6.086 -11.741  18.440  0.00  0.00    +0.074 C 
ATOM     19  C   UNL     1      -5.694 -11.137  17.122  0.00  0.00    +0.015 C 
ATOM     20  C   UNL     1      -6.344 -10.124  16.529  0.00  0.00    +0.006 C 
ENDROOT
BRANCH  17  11
ATOM      7  O   UNL     1      -9.943  -7.907  17.357  0.00  0.00    -0.252 OA
ATOM     11  N   UNL     1      -8.508  -9.193  16.080  0.00  0.00    -0.290 N 
ATOM     13  N   UNL     1     -10.366  -8.288  15.080  0.00  0.00    -0.267 N 
ATOM     25  C   UNL     1      -9.648  -8.406  16.274  0.00  0.00    +0.304 C 
ATOM     34  H   UNL     1      -8.364  -9.614  15.168  0.00  0.00    +0.151 HD
ATOM     38  H   UNL     1      -9.983  -8.765  14.267  0.00  0.00    +0.156 HD
BRANCH  13  28
ATOM      2  F   UNL     1     -10.436  -5.512  15.138  0.00  0.00    -0.203 F 
ATOM      3  F   UNL     1     -15.074  -5.533  14.207  0.00  0.00    -0.205 F 
ATOM     28  C   UNL     1     -11.569  -7.580  14.856  0.00  0.00    +0.070 A 
ATOM     29  C   UNL     1     -11.563  -6.195  14.894  0.00  0.00    +0.147 A 
ATOM     30  C   UNL     1     -12.733  -8.289  14.604  0.00  0.00    +0.029 A 
ATOM     31  C   UNL     1     -12.752  -5.500  14.673  0.00  0.00    +0.078 A 
ATOM     32  C   UNL     1     -13.922  -7.595  14.383  0.00  0.00    +0.040 A 
ATOM     33  C   UNL     1     -13.932  -6.200  14.418  0.00  0.00    +0.126 A 
ENDBRANCH  13  28
ENDBRANCH  17  11
BRANCH  19  21
ATOM      6  O   UNL     1      -4.070 -12.787  16.718  0.00  0.00    -0.271 OA
ATOM     12  N   UNL     1      -3.990 -10.800  15.501  0.00  0.00    -0.300 N 
ATOM     21  C   UNL     1      -4.511 -11.672  16.441  0.00  0.00    +0.241 C 
ATOM     35  H   UNL     1      -4.410  -9.890  15.351  0.00  0.00    +0.150 HD
BRANCH  12  22
ATOM     22  C   UNL     1      -2.823 -11.104  14.703  0.00  0.00    +0.160 C 
BRANCH  22  26
ATOM     10  O   UNL     1      -1.038  -9.464  14.870  0.00  0.00    -0.274 OA
ATOM     14  N   UNL     1      -1.315 -10.961  16.589  0.00  0.00    -0.328 N 
ATOM     26  C   UNL     1      -1.631 -10.422  15.359  0.00  0.00    +0.231 C 
ATOM     39  H   UNL     1      -1.839 -11.725  17.003  0.00  0.00    +0.145 HD
ATOM     40  H   UNL     1      -0.546 -10.591  17.136  0.00  0.00    +0.145 HD
ENDBRANCH  22  26
BRANCH  22  23
ATOM     23  C   UNL     1      -2.980 -10.635  13.255  0.00  0.00    +0.054 C 
BRANCH  23  24
ATOM     24  C   UNL     1      -4.421 -10.282  12.913  0.00  0.00    +0.168 C 
BRANCH  24   1
ATOM      1  S   UNL     1      -4.591  -9.867  11.205  0.00  0.00    -0.034 S 
ATOM      8  O   UNL     1      -5.160 -11.011  10.514  0.00  0.00    -0.175 OA
ATOM      9  O   UNL     1      -5.219  -8.560  11.116  0.00  0.00    -0.175 OA
ATOM     27  C   UNL     1      -2.907  -9.692  10.656  0.00  0.00    +0.194 C 
ENDBRANCH  24   1
ENDBRANCH  23  24
ENDBRANCH  22  23
ENDBRANCH  12  22
ENDBRANCH  19  21
BRANCH  15   4
ATOM      4  O   UNL     1      -8.939 -11.430  17.650  0.00  0.00    -0.387 OA
ATOM     36  H   UNL     1      -8.442 -12.253  17.783  0.00  0.00    +0.210 HD
ENDBRANCH  15   4
BRANCH  16   5
ATOM      5  O   UNL     1      -6.538  -9.879  19.936  0.00  0.00    -0.389 OA
ATOM     37  H   UNL     1      -6.143  -9.261  19.299  0.00  0.00    +0.210 HD
ENDBRANCH  16   5
TORSDOF 10
ENDMDL
MODEL 4
REMARK VINA RESULT:      -6.4     26.086     29.113
REMARK  Name = 7127894
REMARK  11 active torsions:
REMARK  status: ('A' for Active; 'I' for Inactive)
REMARK    1  A    between atoms: S_1  and  C_24
REMARK    2  A    between atoms: S_1  and  C_27
REMARK    3  A    between atoms: O_4  and  C_15
REMARK    4  A    between atoms: O_5  and  C_16
REMARK    5  A    between atoms: N_11  and  C_17
REMARK    6  A    between atoms: N_12  and  C_22
REMARK    7  A    between atoms: N_13  and  C_28
REMARK    8  A    between atoms: C_19  and  C_21
REMARK    9  A    between atoms: C_22  and  C_23
REMARK   10  A    between atoms: C_22  and  C_26
REMARK   11  A    between atoms: C_23  and  C_24
REMARK                            x       y       z     vdW  Elec       q    Type
REMARK                         _______ _______ _______ _____ _____    ______ ____
ROOT
ATOM     15  C   UNL     1      -4.137 -10.975  16.415  0.00  0.00    +0.167 C 
ATOM     16  C   UNL     1      -4.092 -11.677  17.778  0.00  0.00    +0.149 C 
ATOM     17  C   UNL     1      -5.528 -11.095  15.763  0.00  0.00    +0.129 C 
ATOM     18  C   UNL     1      -5.177 -11.153  18.735  0.00  0.00    +0.074 C 
ATOM     19  C   UNL     1      -6.486 -10.869  18.055  0.00  0.00    +0.015 C 
ATOM     20  C   UNL     1      -6.660 -10.848  16.724  0.00  0.00    +0.006 C 
ENDROOT
BRANCH  17  11
ATOM      7  O   UNL     1      -5.221 -11.766  12.995  0.00  0.00    -0.252 OA
ATOM     11  N   UNL     1      -5.668 -10.202  14.639  0.00  0.00    -0.290 N 
ATOM     13  N   UNL     1      -5.698  -9.535  12.442  0.00  0.00    -0.267 N 
ATOM     25  C   UNL     1      -5.502 -10.612  13.311  0.00  0.00    +0.304 C 
ATOM     34  H   UNL     1      -5.845  -9.218  14.819  0.00  0.00    +0.151 HD
ATOM     38  H   UNL     1      -5.926  -8.639  12.866  0.00  0.00    +0.156 HD
BRANCH  13  28
ATOM      2  F   UNL     1      -3.250  -9.408  11.136  0.00  0.00    -0.203 F 
ATOM      3  F   UNL     1      -5.403  -9.525   6.926  0.00  0.00    -0.205 F 
ATOM     28  C   UNL     1      -5.620  -9.533  11.030  0.00  0.00    +0.070 A 
ATOM     29  C   UNL     1      -4.379  -9.468  10.416  0.00  0.00    +0.147 A 
ATOM     30  C   UNL     1      -6.788  -9.595  10.288  0.00  0.00    +0.029 A 
ATOM     31  C   UNL     1      -4.305  -9.465   9.023  0.00  0.00    +0.078 A 
ATOM     32  C   UNL     1      -6.715  -9.592   8.895  0.00  0.00    +0.040 A 
ATOM     33  C   UNL     1      -5.473  -9.527   8.263  0.00  0.00    +0.126 A 
ENDBRANCH  13  28
ENDBRANCH  17  11
BRANCH  19  21
ATOM      6  O   UNL     1      -7.618 -10.786  20.112  0.00  0.00    -0.271 OA
ATOM     12  N   UNL     1      -8.759 -10.188  18.169  0.00  0.00    -0.300 N 
ATOM     21  C   UNL     1      -7.661 -10.617  18.894  0.00  0.00    +0.241 C 
ATOM     35  H   UNL     1      -8.708 -10.093  17.161  0.00  0.00    +0.150 HD
BRANCH  12  22
ATOM     22  C   UNL     1     -10.034  -9.878  18.777  0.00  0.00    +0.160 C 
BRANCH  22  26
ATOM     10  O   UNL     1     -11.137 -11.990  18.303  0.00  0.00    -0.274 OA
ATOM     14  N   UNL     1     -10.726 -11.435  20.493  0.00  0.00    -0.328 N 
ATOM     26  C   UNL     1     -10.702 -11.198  19.134  0.00  0.00    +0.231 C 
ATOM     39  H   UNL     1     -10.325 -10.793  21.168  0.00  0.00    +0.145 HD
ATOM     40  H   UNL     1     -11.135 -12.285  20.864  0.00  0.00    +0.145 HD
ENDBRANCH  22  26
BRANCH  22  23
ATOM     23  C   UNL     1     -10.929  -9.058  17.845  0.00  0.00    +0.054 C 
BRANCH  23  24
ATOM     24  C   UNL     1     -10.279  -7.748  17.421  0.00  0.00    +0.168 C 
BRANCH  24   1
ATOM      1  S   UNL     1     -10.470  -7.470  15.688  0.00  0.00    -0.034 S 
ATOM      8  O   UNL     1     -10.275  -6.054  15.430  0.00  0.00    -0.175 OA
ATOM      9  O   UNL     1      -9.685  -8.466  14.979  0.00  0.00    -0.175 OA
ATOM     27  C   UNL     1     -12.187  -7.836  15.401  0.00  0.00    +0.194 C 
ENDBRANCH  24   1
ENDBRANCH  23  24
ENDBRANCH  22  23
ENDBRANCH  12  22
ENDBRANCH  19  21
BRANCH  15   4
ATOM      4  O   UNL     1      -3.812  -9.594  16.598  0.00  0.00    -0.387 OA
ATOM     36  H   UNL     1      -2.887  -9.525  16.886  0.00  0.00    +0.210 HD
ENDBRANCH  15   4
BRANCH  16   5
ATOM      5  O   UNL     1      -4.228 -13.086  17.608  0.00  0.00    -0.389 OA
ATOM     37  H   UNL     1      -3.419 -13.501  17.953  0.00  0.00    +0.210 HD
ENDBRANCH  16   5
TORSDOF 10
ENDMDL
MODEL 5
REMARK VINA RESULT:      -6.2     26.294     29.006
REMARK  Name = 7127894
REMARK  11 active torsions:
REMARK  status: ('A' for Active; 'I' for Inactive)
REMARK    1  A    between atoms: S_1  and  C_24
REMARK    2  A    between atoms: S_1  and  C_27
REMARK    3  A    between atoms: O_4  and  C_15
REMARK    4  A    between atoms: O_5  and  C_16
REMARK    5  A    between atoms: N_11  and  C_17
REMARK    6  A    between atoms: N_12  and  C_22
REMARK    7  A    between atoms: N_13  and  C_28
REMARK    8  A    between atoms: C_19  and  C_21
REMARK    9  A    between atoms: C_22  and  C_23
REMARK   10  A    between atoms: C_22  and  C_26
REMARK   11  A    between atoms: C_23  and  C_24
REMARK                            x       y       z     vdW  Elec       q    Type
REMARK                         _______ _______ _______ _____ _____    ______ ____
ROOT
ATOM     15  C   UNL     1      -7.866 -10.561  18.290  0.00  0.00    +0.167 C 
ATOM     16  C   UNL     1      -6.792 -11.086  19.250  0.00  0.00    +0.149 C 
ATOM     17  C   UNL     1      -7.297  -9.495  17.334  0.00  0.00    +0.129 C 
ATOM     18  C   UNL     1      -5.568 -11.641  18.501  0.00  0.00    +0.074 C 
ATOM     19  C   UNL     1      -5.194 -10.835  17.290  0.00  0.00    +0.015 C 
ATOM     20  C   UNL     1      -5.956  -9.864  16.761  0.00  0.00    +0.006 C 
ENDROOT
BRANCH  17  11
ATOM      7  O   UNL     1      -9.733  -7.996  17.487  0.00  0.00    -0.252 OA
ATOM     11  N   UNL     1      -8.206  -9.212  16.249  0.00  0.00    -0.290 N 
ATOM     13  N   UNL     1     -10.055  -8.358  15.191  0.00  0.00    -0.267 N 
ATOM     25  C   UNL     1      -9.380  -8.468  16.410  0.00  0.00    +0.304 C 
ATOM     34  H   UNL     1      -8.013  -9.615  15.337  0.00  0.00    +0.151 HD
ATOM     38  H   UNL     1      -9.626  -8.810  14.387  0.00  0.00    +0.156 HD
BRANCH  13  28
ATOM      2  F   UNL     1     -10.232  -5.589  15.306  0.00  0.00    -0.203 F 
ATOM      3  F   UNL     1     -14.822  -5.757  14.175  0.00  0.00    -0.205 F 
ATOM     28  C   UNL     1     -11.274  -7.690  14.930  0.00  0.00    +0.070 A 
ATOM     29  C   UNL     1     -11.321  -6.307  14.998  0.00  0.00    +0.147 A 
ATOM     30  C   UNL     1     -12.399  -8.434  14.614  0.00  0.00    +0.029 A 
ATOM     31  C   UNL     1     -12.525  -5.651  14.742  0.00  0.00    +0.078 A 
ATOM     32  C   UNL     1     -13.603  -7.779  14.357  0.00  0.00    +0.040 A 
ATOM     33  C   UNL     1     -13.666  -6.387  14.421  0.00  0.00    +0.126 A 
ENDBRANCH  13  28
ENDBRANCH  17  11
BRANCH  19  21
ATOM      6  O   UNL     1      -2.847 -10.947  17.258  0.00  0.00    -0.271 OA
ATOM     12  N   UNL     1      -4.033 -11.543  15.342  0.00  0.00    -0.300 N 
ATOM     21  C   UNL     1      -3.904 -11.107  16.649  0.00  0.00    +0.241 C 
ATOM     35  H   UNL     1      -4.948 -11.629  14.913  0.00  0.00    +0.150 HD
BRANCH  12  22
ATOM     22  C   UNL     1      -2.901 -11.872  14.504  0.00  0.00    +0.160 C 
BRANCH  22  26
ATOM     10  O   UNL     1      -2.929 -10.253  12.693  0.00  0.00    -0.274 OA
ATOM     14  N   UNL     1      -1.579  -9.848  14.506  0.00  0.00    -0.328 N 
ATOM     26  C   UNL     1      -2.482 -10.599  13.783  0.00  0.00    +0.231 C 
ATOM     39  H   UNL     1      -1.248 -10.123  15.424  0.00  0.00    +0.145 HD
ATOM     40  H   UNL     1      -1.225  -8.970  14.141  0.00  0.00    +0.145 HD
ENDBRANCH  22  26
BRANCH  22  23
ATOM     23  C   UNL     1      -3.235 -12.975  13.497  0.00  0.00    +0.054 C 
BRANCH  23  24
ATOM     24  C   UNL     1      -4.516 -13.718  13.853  0.00  0.00    +0.168 C 
BRANCH  24   1
ATOM      1  S   UNL     1      -4.207 -15.003  15.024  0.00  0.00    -0.034 S 
ATOM      8  O   UNL     1      -2.846 -15.472  14.835  0.00  0.00    -0.175 OA
ATOM      9  O   UNL     1      -4.659 -14.547  16.328  0.00  0.00    -0.175 OA
ATOM     27  C   UNL     1      -5.301 -16.304  14.502  0.00  0.00    +0.194 C 
ENDBRANCH  24   1
ENDBRANCH  23  24
ENDBRANCH  22  23
ENDBRANCH  12  22
ENDBRANCH  19  21
BRANCH  15   4
ATOM      4  O   UNL     1      -8.382 -11.658  17.531  0.00  0.00    -0.387 OA
ATOM     36  H   UNL     1      -8.006 -12.483  17.878  0.00  0.00    +0.210 HD
ENDBRANCH  15   4
BRANCH  16   5
ATOM      5  O   UNL     1      -6.390 -10.055  20.149  0.00  0.00    -0.389 OA
ATOM     37  H   UNL     1      -6.874  -9.248  19.905  0.00  0.00    +0.210 HD
ENDBRANCH  16   5
TORSDOF 10
ENDMDL
MODEL 6
REMARK VINA RESULT:      -6.2     25.740     28.322
REMARK  Name = 7127894
REMARK  11 active torsions:
REMARK  status: ('A' for Active; 'I' for Inactive)
REMARK    1  A    between atoms: S_1  and  C_24
REMARK    2  A    between atoms: S_1  and  C_27
REMARK    3  A    between atoms: O_4  and  C_15
REMARK    4  A    between atoms: O_5  and  C_16
REMARK    5  A    between atoms: N_11  and  C_17
REMARK    6  A    between atoms: N_12  and  C_22
REMARK    7  A    between atoms: N_13  and  C_28
REMARK    8  A    between atoms: C_19  and  C_21
REMARK    9  A    between atoms: C_22  and  C_23
REMARK   10  A    between atoms: C_22  and  C_26
REMARK   11  A    between atoms: C_23  and  C_24
REMARK                            x       y       z     vdW  Elec       q    Type
REMARK                         _______ _______ _______ _____ _____    ______ ____
ROOT
ATOM     15  C   UNL     1      -6.943 -11.201  17.861  0.00  0.00    +0.167 C 
ATOM     16  C   UNL     1      -5.836 -11.921  18.639  0.00  0.00    +0.149 C 
ATOM     17  C   UNL     1      -6.446  -9.865  17.277  0.00  0.00    +0.129 C 
ATOM     18  C   UNL     1      -4.579 -12.149  17.781  0.00  0.00    +0.074 C 
ATOM     19  C   UNL     1      -4.261 -10.995  16.872  0.00  0.00    +0.015 C 
ATOM     20  C   UNL     1      -5.085  -9.961  16.644  0.00  0.00    +0.006 C 
ENDROOT
BRANCH  17  11
ATOM      7  O   UNL     1      -9.027  -8.745  17.817  0.00  0.00    -0.252 OA
ATOM     11  N   UNL     1      -7.373  -9.328  16.310  0.00  0.00    -0.290 N 
ATOM     13  N   UNL     1      -9.297  -8.356  15.518  0.00  0.00    -0.267 N 
ATOM     25  C   UNL     1      -8.621  -8.797  16.658  0.00  0.00    +0.304 C 
ATOM     34  H   UNL     1      -7.134  -9.385  15.325  0.00  0.00    +0.151 HD
ATOM     38  H   UNL     1      -8.818  -8.471  14.628  0.00  0.00    +0.156 HD
BRANCH  13  28
ATOM      2  F   UNL     1     -11.572  -9.887  15.083  0.00  0.00    -0.203 F 
ATOM      3  F   UNL     1     -14.295  -6.021  15.224  0.00  0.00    -0.205 F 
ATOM     28  C   UNL     1     -10.577  -7.761  15.443  0.00  0.00    +0.070 A 
ATOM     29  C   UNL     1     -11.689  -8.559  15.224  0.00  0.00    +0.147 A 
ATOM     30  C   UNL     1     -10.694  -6.388  15.588  0.00  0.00    +0.029 A 
ATOM     31  C   UNL     1     -12.950  -7.970  15.150  0.00  0.00    +0.078 A 
ATOM     32  C   UNL     1     -11.956  -5.797  15.514  0.00  0.00    +0.040 A 
ATOM     33  C   UNL     1     -13.084  -6.588  15.295  0.00  0.00    +0.126 A 
ENDBRANCH  13  28
ENDBRANCH  17  11
BRANCH  19  21
ATOM      6  O   UNL     1      -1.920 -10.792  16.837  0.00  0.00    -0.271 OA
ATOM     12  N   UNL     1      -3.049 -11.200  14.838  0.00  0.00    -0.300 N 
ATOM     21  C   UNL     1      -2.957 -10.982  16.202  0.00  0.00    +0.241 C 
ATOM     35  H   UNL     1      -3.952 -11.330  14.396  0.00  0.00    +0.150 HD
BRANCH  12  22
ATOM     22  C   UNL     1      -1.898 -11.229  13.964  0.00  0.00    +0.160 C 
BRANCH  22  26
ATOM     10  O   UNL     1      -1.461 -10.136  11.839  0.00  0.00    -0.274 OA
ATOM     14  N   UNL     1      -3.635 -10.296  12.563  0.00  0.00    -0.328 N 
ATOM     26  C   UNL     1      -2.275 -10.488  12.689  0.00  0.00    +0.231 C 
ATOM     39  H   UNL     1      -4.301 -10.630  13.251  0.00  0.00    +0.145 HD
ATOM     40  H   UNL     1      -4.019  -9.823  11.753  0.00  0.00    +0.145 HD
ENDBRANCH  22  26
BRANCH  22  23
ATOM     23  C   UNL     1      -1.457 -12.659  13.645  0.00  0.00    +0.054 C 
BRANCH  23  24
ATOM     24  C   UNL     1      -2.488 -13.694  14.076  0.00  0.00    +0.168 C 
BRANCH  24   1
ATOM      1  S   UNL     1      -3.663 -14.000  12.794  0.00  0.00    -0.034 S 
ATOM      8  O   UNL     1      -4.804 -13.127  13.005  0.00  0.00    -0.175 OA
ATOM      9  O   UNL     1      -2.958 -14.004  11.524  0.00  0.00    -0.175 OA
ATOM     27  C   UNL     1      -4.195 -15.667  13.117  0.00  0.00    +0.194 C 
ENDBRANCH  24   1
ENDBRANCH  23  24
ENDBRANCH  22  23
ENDBRANCH  12  22
ENDBRANCH  19  21
BRANCH  15   4
ATOM      4  O   UNL     1      -7.388 -12.051  16.800  0.00  0.00    -0.387 OA
ATOM     36  H   UNL     1      -7.598 -11.503  16.026  0.00  0.00    +0.210 HD
ENDBRANCH  15   4
BRANCH  16   5
ATOM      5  O   UNL     1      -5.500 -11.183  19.812  0.00  0.00    -0.389 OA
ATOM     37  H   UNL     1      -5.229 -11.822  20.493  0.00  0.00    +0.210 HD
ENDBRANCH  16   5
TORSDOF 10
ENDMDL
MODEL 7
REMARK VINA RESULT:      -6.1     19.595     23.532
REMARK  Name = 7127894
REMARK  11 active torsions:
REMARK  status: ('A' for Active; 'I' for Inactive)
REMARK    1  A    between atoms: S_1  and  C_24
REMARK    2  A    between atoms: S_1  and  C_27
REMARK    3  A    between atoms: O_4  and  C_15
REMARK    4  A    between atoms: O_5  and  C_16
REMARK    5  A    between atoms: N_11  and  C_17
REMARK    6  A    between atoms: N_12  and  C_22
REMARK    7  A    between atoms: N_13  and  C_28
REMARK    8  A    between atoms: C_19  and  C_21
REMARK    9  A    between atoms: C_22  and  C_23
REMARK   10  A    between atoms: C_22  and  C_26
REMARK   11  A    between atoms: C_23  and  C_24
REMARK                            x       y       z     vdW  Elec       q    Type
REMARK                         _______ _______ _______ _____ _____    ______ ____
ROOT
ATOM     15  C   UNL     1      20.708   7.864  21.706  0.00  0.00    +0.167 C 
ATOM     16  C   UNL     1      19.744   9.025  21.973  0.00  0.00    +0.149 C 
ATOM     17  C   UNL     1      20.058   6.504  22.026  0.00  0.00    +0.129 C 
ATOM     18  C   UNL     1      18.423   8.870  21.199  0.00  0.00    +0.074 C 
ATOM     19  C   UNL     1      17.929   7.453  21.141  0.00  0.00    +0.015 C 
ATOM     20  C   UNL     1      18.648   6.383  21.516  0.00  0.00    +0.006 C 
ENDROOT
BRANCH  17  11
ATOM      7  O   UNL     1      21.822   4.804  23.510  0.00  0.00    -0.252 OA
ATOM     11  N   UNL     1      20.837   5.405  21.507  0.00  0.00    -0.290 N 
ATOM     13  N   UNL     1      22.301   3.636  21.531  0.00  0.00    -0.267 N 
ATOM     25  C   UNL     1      21.678   4.621  22.304  0.00  0.00    +0.304 C 
ATOM     34  H   UNL     1      20.816   5.225  20.508  0.00  0.00    +0.151 HD
ATOM     38  H   UNL     1      22.072   3.620  20.540  0.00  0.00    +0.156 HD
BRANCH  13  28
ATOM      2  F   UNL     1      24.213   2.607  19.800  0.00  0.00    -0.203 F 
ATOM      3  F   UNL     1      25.881  -0.223  23.203  0.00  0.00    -0.205 F 
ATOM     28  C   UNL     1      23.219   2.649  21.957  0.00  0.00    +0.070 A 
ATOM     29  C   UNL     1      24.158   2.160  21.063  0.00  0.00    +0.147 A 
ATOM     30  C   UNL     1      23.159   2.189  23.262  0.00  0.00    +0.029 A 
ATOM     31  C   UNL     1      25.061   1.186  21.485  0.00  0.00    +0.078 A 
ATOM     32  C   UNL     1      24.062   1.214  23.686  0.00  0.00    +0.040 A 
ATOM     33  C   UNL     1      25.014   0.712  22.797  0.00  0.00    +0.126 A 
ENDBRANCH  13  28
ENDBRANCH  17  11
BRANCH  19  21
ATOM      6  O   UNL     1      16.121   6.073  20.549  0.00  0.00    -0.271 OA
ATOM     12  N   UNL     1      15.884   8.386  20.370  0.00  0.00    -0.300 N 
ATOM     21  C   UNL     1      16.564   7.216  20.661  0.00  0.00    +0.241 C 
ATOM     35  H   UNL     1      16.336   9.286  20.477  0.00  0.00    +0.150 HD
BRANCH  12  22
ATOM     22  C   UNL     1      14.524   8.407  19.880  0.00  0.00    +0.160 C 
BRANCH  22  26
ATOM     10  O   UNL     1      14.463   7.900  17.505  0.00  0.00    -0.274 OA
ATOM     14  N   UNL     1      14.725  10.087  18.153  0.00  0.00    -0.328 N 
ATOM     26  C   UNL     1      14.579   8.737  18.395  0.00  0.00    +0.231 C 
ATOM     39  H   UNL     1      14.777  10.775  18.896  0.00  0.00    +0.145 HD
ATOM     40  H   UNL     1      14.766  10.442  17.203  0.00  0.00    +0.145 HD
ENDBRANCH  22  26
BRANCH  22  23
ATOM     23  C   UNL     1      13.661   9.427  20.626  0.00  0.00    +0.054 C 
BRANCH  23  24
ATOM     24  C   UNL     1      13.138   8.887  21.949  0.00  0.00    +0.168 C 
BRANCH  24   1
ATOM      1  S   UNL     1      11.673   7.930  21.716  0.00  0.00    -0.034 S 
ATOM      8  O   UNL     1      12.063   6.550  21.485  0.00  0.00    -0.175 OA
ATOM      9  O   UNL     1      10.737   8.267  22.776  0.00  0.00    -0.175 OA
ATOM     27  C   UNL     1      11.008   8.563  20.193  0.00  0.00    +0.194 C 
ENDBRANCH  24   1
ENDBRANCH  23  24
ENDBRANCH  22  23
ENDBRANCH  12  22
ENDBRANCH  19  21
BRANCH  15   4
ATOM      4  O   UNL     1      21.098   7.896  20.330  0.00  0.00    -0.387 OA
ATOM     36  H   UNL     1      21.645   8.684  20.177  0.00  0.00    +0.210 HD
ENDBRANCH  15   4
BRANCH  16   5
ATOM      5  O   UNL     1      19.482   9.134  23.371  0.00  0.00    -0.389 OA
ATOM     37  H   UNL     1      19.193   8.261  23.684  0.00  0.00    +0.210 HD
ENDBRANCH  16   5
TORSDOF 10
ENDMDL
MODEL 8
REMARK VINA RESULT:      -6.0     26.466     29.130
REMARK  Name = 7127894
REMARK  11 active torsions:
REMARK  status: ('A' for Active; 'I' for Inactive)
REMARK    1  A    between atoms: S_1  and  C_24
REMARK    2  A    between atoms: S_1  and  C_27
REMARK    3  A    between atoms: O_4  and  C_15
REMARK    4  A    between atoms: O_5  and  C_16
REMARK    5  A    between atoms: N_11  and  C_17
REMARK    6  A    between atoms: N_12  and  C_22
REMARK    7  A    between atoms: N_13  and  C_28
REMARK    8  A    between atoms: C_19  and  C_21
REMARK    9  A    between atoms: C_22  and  C_23
REMARK   10  A    between atoms: C_22  and  C_26
REMARK   11  A    between atoms: C_23  and  C_24
REMARK                            x       y       z     vdW  Elec       q    Type
REMARK                         _______ _______ _______ _____ _____    ______ ____
ROOT
ATOM     15  C   UNL     1     -11.536  -6.776  16.141  0.00  0.00    +0.167 C 
ATOM     16  C   UNL     1     -12.970  -6.322  15.841  0.00  0.00    +0.149 C 
ATOM     17  C   UNL     1     -11.111  -7.941  15.227  0.00  0.00    +0.129 C 
ATOM     18  C   UNL     1     -13.158  -5.936  14.364  0.00  0.00    +0.074 C 
ATOM     19  C   UNL     1     -12.418  -6.835  13.415  0.00  0.00    +0.015 C 
ATOM     20  C   UNL     1     -11.503  -7.744  13.789  0.00  0.00    +0.006 C 
ENDROOT
BRANCH  17  11
ATOM      7  O   UNL     1      -9.723  -9.494  17.195  0.00  0.00    -0.252 OA
ATOM     11  N   UNL     1      -9.688  -8.178  15.294  0.00  0.00    -0.290 N 
ATOM     13  N   UNL     1      -7.704  -9.005  16.102  0.00  0.00    -0.267 N 
ATOM     25  C   UNL     1      -9.088  -8.953  16.293  0.00  0.00    +0.304 C 
ATOM     34  H   UNL     1      -9.088  -7.720  14.616  0.00  0.00    +0.151 HD
ATOM     38  H   UNL     1      -7.333  -8.500  15.301  0.00  0.00    +0.156 HD
BRANCH  13  28
ATOM      2  F   UNL     1      -5.245  -9.749  15.047  0.00  0.00    -0.203 F 
ATOM      3  F   UNL     1      -3.959 -11.647  19.185  0.00  0.00    -0.205 F 
ATOM     28  C   UNL     1      -6.744  -9.681  16.889  0.00  0.00    +0.070 A 
ATOM     29  C   UNL     1      -5.528 -10.035  16.326  0.00  0.00    +0.147 A 
ATOM     30  C   UNL     1      -7.039  -9.976  18.210  0.00  0.00    +0.029 A 
ATOM     31  C   UNL     1      -4.583 -10.702  17.104  0.00  0.00    +0.078 A 
ATOM     32  C   UNL     1      -6.094 -10.643  18.990  0.00  0.00    +0.040 A 
ATOM     33  C   UNL     1      -4.866 -11.006  18.437  0.00  0.00    +0.126 A 
ENDBRANCH  13  28
ENDBRANCH  17  11
BRANCH  19  21
ATOM      6  O   UNL     1     -13.351  -7.617  11.405  0.00  0.00    -0.271 OA
ATOM     12  N   UNL     1     -12.236  -5.570  11.412  0.00  0.00    -0.300 N 
ATOM     21  C   UNL     1     -12.723  -6.732  11.985  0.00  0.00    +0.241 C 
ATOM     35  H   UNL     1     -11.712  -4.901  11.965  0.00  0.00    +0.150 HD
BRANCH  12  22
ATOM     22  C   UNL     1     -12.410  -5.245  10.014  0.00  0.00    +0.160 C 
BRANCH  22  26
ATOM     10  O   UNL     1     -10.436  -4.105   9.175  0.00  0.00    -0.274 OA
ATOM     14  N   UNL     1     -10.479  -6.401   9.130  0.00  0.00    -0.328 N 
ATOM     26  C   UNL     1     -11.025  -5.161   9.388  0.00  0.00    +0.231 C 
ATOM     39  H   UNL     1     -10.957  -7.268   9.350  0.00  0.00    +0.145 HD
ATOM     40  H   UNL     1      -9.554  -6.485   8.721  0.00  0.00    +0.145 HD
ENDBRANCH  22  26
BRANCH  22  23
ATOM     23  C   UNL     1     -13.168  -3.930   9.820  0.00  0.00    +0.054 C 
BRANCH  23  24
ATOM     24  C   UNL     1     -14.613  -4.150   9.395  0.00  0.00    +0.168 C 
BRANCH  24   1
ATOM      1  S   UNL     1     -15.728  -3.845  10.729  0.00  0.00    -0.034 S 
ATOM      8  O   UNL     1     -16.712  -2.872  10.287  0.00  0.00    -0.175 OA
ATOM      9  O   UNL     1     -16.146  -5.126  11.273  0.00  0.00    -0.175 OA
ATOM     27  C   UNL     1     -14.701  -3.054  11.948  0.00  0.00    +0.194 C 
ENDBRANCH  24   1
ENDBRANCH  23  24
ENDBRANCH  22  23
ENDBRANCH  12  22
ENDBRANCH  19  21
BRANCH  15   4
ATOM      4  O   UNL     1     -10.652  -5.669  15.949  0.00  0.00    -0.387 OA
ATOM     36  H   UNL     1      -9.846  -5.984  15.508  0.00  0.00    +0.210 HD
ENDBRANCH  15   4
BRANCH  16   5
ATOM      5  O   UNL     1     -13.895  -7.345  16.202  0.00  0.00    -0.389 OA
ATOM     37  H   UNL     1     -14.222  -7.748  15.380  0.00  0.00    +0.210 HD
ENDBRANCH  16   5
TORSDOF 10
ENDMDL
MODEL 9
REMARK VINA RESULT:      -6.0      1.736      2.275
REMARK  Name = 7127894
REMARK  11 active torsions:
REMARK  status: ('A' for Active; 'I' for Inactive)
REMARK    1  A    between atoms: S_1  and  C_24
REMARK    2  A    between atoms: S_1  and  C_27
REMARK    3  A    between atoms: O_4  and  C_15
REMARK    4  A    between atoms: O_5  and  C_16
REMARK    5  A    between atoms: N_11  and  C_17
REMARK    6  A    between atoms: N_12  and  C_22
REMARK    7  A    between atoms: N_13  and  C_28
REMARK    8  A    between atoms: C_19  and  C_21
REMARK    9  A    between atoms: C_22  and  C_23
REMARK   10  A    between atoms: C_22  and  C_26
REMARK   11  A    between atoms: C_23  and  C_24
REMARK                            x       y       z     vdW  Elec       q    Type
REMARK                         _______ _______ _______ _____ _____    ______ ____
ROOT
ATOM     15  C   UNL     1      13.641   3.708   1.326  0.00  0.00    +0.167 C 
ATOM     16  C   UNL     1      14.024   3.639  -0.157  0.00  0.00    +0.149 C 
ATOM     17  C   UNL     1      12.626   4.835   1.596  0.00  0.00    +0.129 C 
ATOM     18  C   UNL     1      12.793   3.476  -1.065  0.00  0.00    +0.074 C 
ATOM     19  C   UNL     1      11.606   4.276  -0.610  0.00  0.00    +0.015 C 
ATOM     20  C   UNL     1      11.520   4.898   0.577  0.00  0.00    +0.006 C 
ENDROOT
BRANCH  17  11
ATOM      7  O   UNL     1      11.516   6.960   3.164  0.00  0.00    -0.252 OA
ATOM     11  N   UNL     1      12.041   4.723   2.911  0.00  0.00    -0.290 N 
ATOM     13  N   UNL     1      11.023   5.406   4.852  0.00  0.00    -0.267 N 
ATOM     25  C   UNL     1      11.519   5.816   3.611  0.00  0.00    +0.304 C 
ATOM     34  H   UNL     1      12.056   3.819   3.373  0.00  0.00    +0.151 HD
ATOM     38  H   UNL     1      11.102   4.416   5.072  0.00  0.00    +0.156 HD
BRANCH  13  28
ATOM      2  F   UNL     1       8.261   5.565   5.089  0.00  0.00    -0.203 F 
ATOM      3  F   UNL     1       8.668   8.520   8.759  0.00  0.00    -0.205 F 
ATOM     28  C   UNL     1      10.418   6.201   5.852  0.00  0.00    +0.070 A 
ATOM     29  C   UNL     1       9.035   6.255   5.937  0.00  0.00    +0.147 A 
ATOM     30  C   UNL     1      11.221   6.914   6.727  0.00  0.00    +0.029 A 
ATOM     31  C   UNL     1       8.442   7.041   6.923  0.00  0.00    +0.078 A 
ATOM     32  C   UNL     1      10.628   7.701   7.714  0.00  0.00    +0.040 A 
ATOM     33  C   UNL     1       9.238   7.765   7.812  0.00  0.00    +0.126 A 
ENDBRANCH  13  28
ENDBRANCH  17  11
BRANCH  19  21
ATOM      6  O   UNL     1       9.418   4.933  -1.159  0.00  0.00    -0.271 OA
ATOM     12  N   UNL     1      10.725   3.889  -2.783  0.00  0.00    -0.300 N 
ATOM     21  C   UNL     1      10.468   4.407  -1.525  0.00  0.00    +0.241 C 
ATOM     35  H   UNL     1      11.618   3.457  -2.991  0.00  0.00    +0.150 HD
BRANCH  12  22
ATOM     22  C   UNL     1       9.756   3.901  -3.855  0.00  0.00    +0.160 C 
BRANCH  22  26
ATOM     10  O   UNL     1       9.133   1.612  -3.334  0.00  0.00    -0.274 OA
ATOM     14  N   UNL     1       9.417   2.197  -5.536  0.00  0.00    -0.328 N 
ATOM     26  C   UNL     1       9.418   2.454  -4.181  0.00  0.00    +0.231 C 
ATOM     39  H   UNL     1       9.612   2.911  -6.230  0.00  0.00    +0.145 HD
ATOM     40  H   UNL     1       9.198   1.271  -5.889  0.00  0.00    +0.145 HD
ENDBRANCH  22  26
BRANCH  22  23
ATOM     23  C   UNL     1      10.283   4.623  -5.097  0.00  0.00    +0.054 C 
BRANCH  23  24
ATOM     24  C   UNL     1       9.368   5.755  -5.543  0.00  0.00    +0.168 C 
BRANCH  24   1
ATOM      1  S   UNL     1       8.646   5.413  -7.117  0.00  0.00    -0.034 S 
ATOM      8  O   UNL     1       9.400   4.338  -7.740  0.00  0.00    -0.175 OA
ATOM      9  O   UNL     1       7.208   5.304  -6.943  0.00  0.00    -0.175 OA
ATOM     27  C   UNL     1       8.963   6.898  -8.044  0.00  0.00    +0.194 C 
ENDBRANCH  24   1
ENDBRANCH  23  24
ENDBRANCH  22  23
ENDBRANCH  12  22
ENDBRANCH  19  21
BRANCH  15   4
ATOM      4  O   UNL     1      13.078   2.453   1.716  0.00  0.00    -0.387 OA
ATOM     36  H   UNL     1      13.282   2.294   2.652  0.00  0.00    +0.210 HD
ENDBRANCH  15   4
BRANCH  16   5
ATOM      5  O   UNL     1      14.756   4.805  -0.530  0.00  0.00    -0.389 OA
ATOM     37  H   UNL     1      14.538   5.004  -1.456  0.00  0.00    +0.210 HD
ENDBRANCH  16   5
TORSDOF 10
ENDMDL
MODEL 10
REMARK VINA RESULT:      -6.0     24.856     27.676
REMARK  Name = 7127894
REMARK  11 active torsions:
REMARK  status: ('A' for Active; 'I' for Inactive)
REMARK    1  A    between atoms: S_1  and  C_24
REMARK    2  A    between atoms: S_1  and  C_27
REMARK    3  A    between atoms: O_4  and  C_15
REMARK    4  A    between atoms: O_5  and  C_16
REMARK    5  A    between atoms: N_11  and  C_17
REMARK    6  A    between atoms: N_12  and  C_22
REMARK    7  A    between atoms: N_13  and  C_28
REMARK    8  A    between atoms: C_19  and  C_21
REMARK    9  A    between atoms: C_22  and  C_23
REMARK   10  A    between atoms: C_22  and  C_26
REMARK   11  A    between atoms: C_23  and  C_24
REMARK                            x       y       z     vdW  Elec       q    Type
REMARK                         _______ _______ _______ _____ _____    ______ ____
ROOT
ATOM     15  C   UNL     1      -2.928 -11.984  11.855  0.00  0.00    +0.167 C 
ATOM     16  C   UNL     1      -2.179 -12.975  12.753  0.00  0.00    +0.149 C 
ATOM     17  C   UNL     1      -4.233 -11.500  12.515  0.00  0.00    +0.129 C 
ATOM     18  C   UNL     1      -1.886 -12.389  14.145  0.00  0.00    +0.074 C 
ATOM     19  C   UNL     1      -3.010 -11.552  14.687  0.00  0.00    +0.015 C 
ATOM     20  C   UNL     1      -4.073 -11.153  13.970  0.00  0.00    +0.006 C 
ENDROOT
BRANCH  17  11
ATOM      7  O   UNL     1      -6.108 -11.559  10.350  0.00  0.00    -0.252 OA
ATOM     11  N   UNL     1      -4.789 -10.361  11.824  0.00  0.00    -0.290 N 
ATOM     13  N   UNL     1      -6.066  -9.212  10.299  0.00  0.00    -0.267 N 
ATOM     25  C   UNL     1      -5.704 -10.477  10.771  0.00  0.00    +0.304 C 
ATOM     34  H   UNL     1      -4.463  -9.433  12.076  0.00  0.00    +0.151 HD
ATOM     38  H   UNL     1      -5.639  -8.412  10.760  0.00  0.00    +0.156 HD
BRANCH  13  28
ATOM      2  F   UNL     1      -5.326  -9.508   7.639  0.00  0.00    -0.203 F 
ATOM      3  F   UNL     1      -9.570  -7.984   6.209  0.00  0.00    -0.205 F 
ATOM     28  C   UNL     1      -6.961  -8.899   9.251  0.00  0.00    +0.070 A 
ATOM     29  C   UNL     1      -6.554  -9.060   7.935  0.00  0.00    +0.147 A 
ATOM     30  C   UNL     1      -8.229  -8.436   9.560  0.00  0.00    +0.029 A 
ATOM     31  C   UNL     1      -7.439  -8.750   6.904  0.00  0.00    +0.078 A 
ATOM     32  C   UNL     1      -9.115  -8.126   8.528  0.00  0.00    +0.040 A 
ATOM     33  C   UNL     1      -8.720  -8.283   7.200  0.00  0.00    +0.126 A 
ENDBRANCH  13  28
ENDBRANCH  17  11
BRANCH  19  21
ATOM      6  O   UNL     1      -1.933 -10.692  16.590  0.00  0.00    -0.271 OA
ATOM     12  N   UNL     1      -4.157 -11.369  16.760  0.00  0.00    -0.300 N 
ATOM     21  C   UNL     1      -2.960 -11.157  16.098  0.00  0.00    +0.241 C 
ATOM     35  H   UNL     1      -4.950 -11.775  16.277  0.00  0.00    +0.150 HD
BRANCH  12  22
ATOM     22  C   UNL     1      -4.351 -11.059  18.159  0.00  0.00    +0.160 C 
BRANCH  22  26
ATOM     10  O   UNL     1      -3.301 -12.251  19.997  0.00  0.00    -0.274 OA
ATOM     14  N   UNL     1      -4.451 -13.461  18.420  0.00  0.00    -0.328 N 
ATOM     26  C   UNL     1      -3.955 -12.292  18.958  0.00  0.00    +0.231 C 
ATOM     39  H   UNL     1      -5.026 -13.479  17.585  0.00  0.00    +0.145 HD
ATOM     40  H   UNL     1      -4.267 -14.354  18.862  0.00  0.00    +0.145 HD
ENDBRANCH  22  26
BRANCH  22  23
ATOM     23  C   UNL     1      -5.798 -10.663  18.463  0.00  0.00    +0.054 C 
BRANCH  23  24
ATOM     24  C   UNL     1      -6.589 -10.343  17.202  0.00  0.00    +0.168 C 
BRANCH  24   1
ATOM      1  S   UNL     1      -7.701 -11.652  16.794  0.00  0.00    -0.034 S 
ATOM      8  O   UNL     1      -6.993 -12.912  16.940  0.00  0.00    -0.175 OA
ATOM      9  O   UNL     1      -8.952 -11.420  17.495  0.00  0.00    -0.175 OA
ATOM     27  C   UNL     1      -8.004 -11.406  15.058  0.00  0.00    +0.194 C 
ENDBRANCH  24   1
ENDBRANCH  23  24
ENDBRANCH  22  23
ENDBRANCH  12  22
ENDBRANCH  19  21
BRANCH  15   4
ATOM      4  O   UNL     1      -2.078 -10.863  11.596  0.00  0.00    -0.387 OA
ATOM     36  H   UNL     1      -1.987 -10.344  12.411  0.00  0.00    +0.210 HD
ENDBRANCH  15   4
BRANCH  16   5
ATOM      5  O   UNL     1      -2.923 -14.185  12.878  0.00  0.00    -0.389 OA
ATOM     37  H   UNL     1      -3.427 -14.304  12.055  0.00  0.00    +0.210 HD
ENDBRANCH  16   5
TORSDOF 10
ENDMDL
