MODEL 1
REMARK VINA RESULT:      -7.3      0.000      0.000
REMARK  Name = 75536610
REMARK  7 active torsions:
REMARK  status: ('A' for Active; 'I' for Inactive)
REMARK    1  A    between atoms: O_4  and  C_9
REMARK    2  A    between atoms: N_6  and  C_8
REMARK    3  A    between atoms: N_6  and  C_13
REMARK    4  A    between atoms: N_7  and  C_12
REMARK    5  A    between atoms: C_10  and  C_12
REMARK    6  A    between atoms: C_13  and  C_14
REMARK    7  A    between atoms: C_15  and  C_18
REMARK                            x       y       z     vdW  Elec       q    Type
REMARK                         _______ _______ _______ _____ _____    ______ ____
ROOT
ATOM      3  O   UNL     1      10.550   8.517  20.051  0.00  0.00    -0.371 OA
ATOM      8  C   UNL     1      12.402   7.206  19.349  0.00  0.00    +0.111 C 
ATOM      9  C   UNL     1      12.273   7.112  20.859  0.00  0.00    +0.164 C 
ATOM     10  C   UNL     1      10.820   7.524  21.054  0.00  0.00    +0.165 C 
ATOM     11  C   UNL     1      11.585   8.454  19.054  0.00  0.00    +0.181 C 
ENDROOT
BRANCH   9   4
ATOM      4  O   UNL     1      12.522   5.809  21.348  0.00  0.00    -0.388 OA
ATOM     26  H   UNL     1      12.998   5.311  20.664  0.00  0.00    +0.210 HD
ENDBRANCH   9   4
BRANCH   8   6
ATOM      6  N   UNL     1      13.777   7.307  18.887  0.00  0.00    -0.305 NA
ATOM     25  H   UNL     1      13.800   7.860  18.030  0.00  0.00    +0.123 HD
BRANCH   6  13
ATOM     13  C   UNL     1      14.621   7.949  19.888  0.00  0.00    +0.119 C 
BRANCH  13  14
ATOM      2  F   UNL     1      16.465   8.518  21.961  0.00  0.00    -0.205 F 
ATOM     14  C   UNL     1      15.967   7.283  19.995  0.00  0.00    +0.002 A 
ATOM     16  C   UNL     1      16.828   7.611  21.043  0.00  0.00    +0.128 A 
ATOM     17  C   UNL     1      16.354   6.339  19.045  0.00  0.00    +0.008 A 
ATOM     19  C   UNL     1      18.075   6.994  21.141  0.00  0.00    +0.038 A 
ATOM     20  C   UNL     1      17.601   5.721  19.142  0.00  0.00    +0.000 A 
ATOM     21  C   UNL     1      18.462   6.048  20.190  0.00  0.00    +0.003 A 
ENDBRANCH  13  14
ENDBRANCH   6  13
ENDBRANCH   8   6
BRANCH  10  12
ATOM     12  C   UNL     1      10.540   8.097  22.432  0.00  0.00    +0.138 C 
BRANCH  12   7
ATOM      5  O   UNL     1      12.620  10.047  22.770  0.00  0.00    -0.270 OA
ATOM      7  N   UNL     1      10.393   9.523  22.383  0.00  0.00    -0.308 N 
ATOM     15  C   UNL     1      11.461  10.397  22.559  0.00  0.00    +0.251 C 
ATOM     27  H   UNL     1       9.458   9.885  22.226  0.00  0.00    +0.149 HD
BRANCH  15  18
ATOM      1  S   UNL     1      10.553  12.624  23.914  0.00  0.00    -0.092 S 
ATOM     18  C   UNL     1      11.140  11.847  22.505  0.00  0.00    +0.074 A 
ATOM     22  C   UNL     1      11.243  12.715  21.441  0.00  0.00    +0.021 A 
ATOM     23  C   UNL     1      10.836  14.036  21.786  0.00  0.00    +0.008 A 
ATOM     24  C   UNL     1      10.437  14.127  23.103  0.00  0.00    +0.046 A 
ENDBRANCH  15  18
ENDBRANCH  12   7
ENDBRANCH  10  12
TORSDOF 7
ENDMDL
MODEL 2
REMARK VINA RESULT:      -6.4     26.678     29.323
REMARK  Name = 75536610
REMARK  7 active torsions:
REMARK  status: ('A' for Active; 'I' for Inactive)
REMARK    1  A    between atoms: O_4  and  C_9
REMARK    2  A    between atoms: N_6  and  C_8
REMARK    3  A    between atoms: N_6  and  C_13
REMARK    4  A    between atoms: N_7  and  C_12
REMARK    5  A    between atoms: C_10  and  C_12
REMARK    6  A    between atoms: C_13  and  C_14
REMARK    7  A    between atoms: C_15  and  C_18
REMARK                            x       y       z     vdW  Elec       q    Type
REMARK                         _______ _______ _______ _____ _____    ______ ____
ROOT
ATOM      3  O   UNL     1     -17.533   5.409  24.417  0.00  0.00    -0.371 OA
ATOM      8  C   UNL     1     -16.004   4.287  22.988  0.00  0.00    +0.111 C 
ATOM      9  C   UNL     1     -15.684   3.934  24.429  0.00  0.00    +0.164 C 
ATOM     10  C   UNL     1     -17.004   4.267  25.111  0.00  0.00    +0.165 C 
ATOM     11  C   UNL     1     -16.840   5.544  23.163  0.00  0.00    +0.181 C 
ENDROOT
BRANCH   9   4
ATOM      4  O   UNL     1     -15.334   2.574  24.593  0.00  0.00    -0.388 OA
ATOM     26  H   UNL     1     -15.290   2.161  23.715  0.00  0.00    +0.210 HD
ENDBRANCH   9   4
BRANCH   8   6
ATOM      6  N   UNL     1     -14.824   4.502  22.165  0.00  0.00    -0.305 NA
ATOM     25  H   UNL     1     -15.109   4.576  21.188  0.00  0.00    +0.123 HD
BRANCH   6  13
ATOM     13  C   UNL     1     -14.132   5.727  22.550  0.00  0.00    +0.119 C 
BRANCH  13  14
ATOM      2  F   UNL     1     -15.649   7.149  20.626  0.00  0.00    -0.205 F 
ATOM     14  C   UNL     1     -13.514   6.417  21.363  0.00  0.00    +0.002 A 
ATOM     16  C   UNL     1     -14.321   7.100  20.453  0.00  0.00    +0.128 A 
ATOM     17  C   UNL     1     -12.133   6.372  21.174  0.00  0.00    +0.008 A 
ATOM     19  C   UNL     1     -13.747   7.739  19.354  0.00  0.00    +0.038 A 
ATOM     20  C   UNL     1     -11.558   7.011  20.075  0.00  0.00    +0.000 A 
ATOM     21  C   UNL     1     -12.364   7.694  19.165  0.00  0.00    +0.003 A 
ENDBRANCH  13  14
ENDBRANCH   6  13
ENDBRANCH   8   6
BRANCH  10  12
ATOM     12  C   UNL     1     -16.851   4.590  26.587  0.00  0.00    +0.138 C 
BRANCH  12   7
ATOM      5  O   UNL     1     -16.825   4.135  29.422  0.00  0.00    -0.270 OA
ATOM      7  N   UNL     1     -16.157   3.543  27.280  0.00  0.00    -0.308 N 
ATOM     15  C   UNL     1     -16.200   3.398  28.663  0.00  0.00    +0.251 C 
ATOM     27  H   UNL     1     -15.607   2.903  26.717  0.00  0.00    +0.149 HD
BRANCH  15  18
ATOM      1  S   UNL     1     -14.111   2.629  30.294  0.00  0.00    -0.092 S 
ATOM     18  C   UNL     1     -15.406   2.278  29.231  0.00  0.00    +0.074 A 
ATOM     22  C   UNL     1     -15.553   0.924  29.026  0.00  0.00    +0.021 A 
ATOM     23  C   UNL     1     -14.591   0.164  29.752  0.00  0.00    +0.008 A 
ATOM     24  C   UNL     1     -13.743   0.968  30.484  0.00  0.00    +0.046 A 
ENDBRANCH  15  18
ENDBRANCH  12   7
ENDBRANCH  10  12
TORSDOF 7
ENDMDL
MODEL 3
REMARK VINA RESULT:      -6.3     25.724     28.287
REMARK  Name = 75536610
REMARK  7 active torsions:
REMARK  status: ('A' for Active; 'I' for Inactive)
REMARK    1  A    between atoms: O_4  and  C_9
REMARK    2  A    between atoms: N_6  and  C_8
REMARK    3  A    between atoms: N_6  and  C_13
REMARK    4  A    between atoms: N_7  and  C_12
REMARK    5  A    between atoms: C_10  and  C_12
REMARK    6  A    between atoms: C_13  and  C_14
REMARK    7  A    between atoms: C_15  and  C_18
REMARK                            x       y       z     vdW  Elec       q    Type
REMARK                         _______ _______ _______ _____ _____    ______ ____
ROOT
ATOM      3  O   UNL     1     -16.230   5.219  22.105  0.00  0.00    -0.371 OA
ATOM      8  C   UNL     1     -13.873   5.104  21.837  0.00  0.00    +0.111 C 
ATOM      9  C   UNL     1     -14.200   5.159  23.318  0.00  0.00    +0.164 C 
ATOM     10  C   UNL     1     -15.651   4.700  23.314  0.00  0.00    +0.165 C 
ATOM     11  C   UNL     1     -15.166   5.618  21.224  0.00  0.00    +0.181 C 
ENDROOT
BRANCH   9   4
ATOM      4  O   UNL     1     -13.379   4.305  24.090  0.00  0.00    -0.388 OA
ATOM     26  H   UNL     1     -13.016   3.619  23.506  0.00  0.00    +0.210 HD
ENDBRANCH   9   4
BRANCH   8   6
ATOM      6  N   UNL     1     -12.714   5.901  21.466  0.00  0.00    -0.305 NA
ATOM     25  H   UNL     1     -12.328   5.540  20.593  0.00  0.00    +0.123 HD
BRANCH   6  13
ATOM     13  C   UNL     1     -13.079   7.301  21.278  0.00  0.00    +0.119 C 
BRANCH  13  14
ATOM      2  F   UNL     1     -12.183   9.971  21.577  0.00  0.00    -0.205 F 
ATOM     14  C   UNL     1     -12.182   7.983  20.279  0.00  0.00    +0.002 A 
ATOM     16  C   UNL     1     -11.779   9.302  20.488  0.00  0.00    +0.128 A 
ATOM     17  C   UNL     1     -11.756   7.295  19.144  0.00  0.00    +0.008 A 
ATOM     19  C   UNL     1     -10.949   9.933  19.562  0.00  0.00    +0.038 A 
ATOM     20  C   UNL     1     -10.926   7.925  18.216  0.00  0.00    +0.000 A 
ATOM     21  C   UNL     1     -10.522   9.244  18.425  0.00  0.00    +0.003 A 
ENDBRANCH  13  14
ENDBRANCH   6  13
ENDBRANCH   8   6
BRANCH  10  12
ATOM     12  C   UNL     1     -16.440   5.193  24.514  0.00  0.00    +0.138 C 
BRANCH  12   7
ATOM      5  O   UNL     1     -17.810   2.935  25.641  0.00  0.00    -0.270 OA
ATOM      7  N   UNL     1     -16.079   4.480  25.705  0.00  0.00    -0.308 N 
ATOM     15  C   UNL     1     -16.804   3.391  26.180  0.00  0.00    +0.251 C 
ATOM     27  H   UNL     1     -15.264   4.810  26.211  0.00  0.00    +0.149 HD
BRANCH  15  18
ATOM      1  S   UNL     1     -16.659   1.128  27.752  0.00  0.00    -0.092 S 
ATOM     18  C   UNL     1     -16.315   2.776  27.441  0.00  0.00    +0.074 A 
ATOM     22  C   UNL     1     -15.589   3.354  28.459  0.00  0.00    +0.021 A 
ATOM     23  C   UNL     1     -15.310   2.432  29.508  0.00  0.00    +0.008 A 
ATOM     24  C   UNL     1     -15.835   1.183  29.252  0.00  0.00    +0.046 A 
ENDBRANCH  15  18
ENDBRANCH  12   7
ENDBRANCH  10  12
TORSDOF 7
ENDMDL
MODEL 4
REMARK VINA RESULT:      -6.2      4.787      7.134
REMARK  Name = 75536610
REMARK  7 active torsions:
REMARK  status: ('A' for Active; 'I' for Inactive)
REMARK    1  A    between atoms: O_4  and  C_9
REMARK    2  A    between atoms: N_6  and  C_8
REMARK    3  A    between atoms: N_6  and  C_13
REMARK    4  A    between atoms: N_7  and  C_12
REMARK    5  A    between atoms: C_10  and  C_12
REMARK    6  A    between atoms: C_13  and  C_14
REMARK    7  A    between atoms: C_15  and  C_18
REMARK                            x       y       z     vdW  Elec       q    Type
REMARK                         _______ _______ _______ _____ _____    ______ ____
ROOT
ATOM      3  O   UNL     1      18.582   7.016  21.815  0.00  0.00    -0.371 OA
ATOM      8  C   UNL     1      19.866   5.814  20.219  0.00  0.00    +0.111 C 
ATOM      9  C   UNL     1      18.392   5.557  19.964  0.00  0.00    +0.164 C 
ATOM     10  C   UNL     1      17.760   6.750  20.666  0.00  0.00    +0.165 C 
ATOM     11  C   UNL     1      19.838   6.335  21.647  0.00  0.00    +0.181 C 
ENDROOT
BRANCH   9   4
ATOM      4  O   UNL     1      18.073   5.526  18.587  0.00  0.00    -0.388 OA
ATOM     26  H   UNL     1      18.736   4.981  18.131  0.00  0.00    +0.210 HD
ENDBRANCH   9   4
BRANCH   8   6
ATOM      6  N   UNL     1      20.699   4.633  20.064  0.00  0.00    -0.305 NA
ATOM     25  H   UNL     1      21.323   4.768  19.268  0.00  0.00    +0.123 HD
BRANCH   6  13
ATOM     13  C   UNL     1      21.502   4.396  21.258  0.00  0.00    +0.119 C 
BRANCH  13  14
ATOM      2  F   UNL     1      23.614   6.002  20.265  0.00  0.00    -0.205 F 
ATOM     14  C   UNL     1      22.862   3.847  20.919  0.00  0.00    +0.002 A 
ATOM     16  C   UNL     1      23.858   4.694  20.432  0.00  0.00    +0.128 A 
ATOM     17  C   UNL     1      23.126   2.488  21.090  0.00  0.00    +0.008 A 
ATOM     19  C   UNL     1      25.117   4.184  20.118  0.00  0.00    +0.038 A 
ATOM     20  C   UNL     1      24.385   1.976  20.775  0.00  0.00    +0.000 A 
ATOM     21  C   UNL     1      25.381   2.824  20.289  0.00  0.00    +0.003 A 
ENDBRANCH  13  14
ENDBRANCH   6  13
ENDBRANCH   8   6
BRANCH  10  12
ATOM     12  C   UNL     1      16.329   6.499  21.107  0.00  0.00    +0.138 C 
BRANCH  12   7
ATOM      5  O   UNL     1      13.639   7.369  21.614  0.00  0.00    -0.270 OA
ATOM      7  N   UNL     1      15.392   6.993  20.139  0.00  0.00    -0.308 N 
ATOM     15  C   UNL     1      14.103   7.394  20.475  0.00  0.00    +0.251 C 
ATOM     27  H   UNL     1      15.702   7.029  19.174  0.00  0.00    +0.149 HD
BRANCH  15  18
ATOM      1  S   UNL     1      13.922   7.986  17.786  0.00  0.00    -0.092 S 
ATOM     18  C   UNL     1      13.245   7.857  19.354  0.00  0.00    +0.074 A 
ATOM     22  C   UNL     1      11.917   8.222  19.375  0.00  0.00    +0.021 A 
ATOM     23  C   UNL     1      11.448   8.612  18.088  0.00  0.00    +0.008 A 
ATOM     24  C   UNL     1      12.436   8.530  17.130  0.00  0.00    +0.046 A 
ENDBRANCH  15  18
ENDBRANCH  12   7
ENDBRANCH  10  12
TORSDOF 7
ENDMDL
MODEL 5
REMARK VINA RESULT:      -6.2     26.723     29.479
REMARK  Name = 75536610
REMARK  7 active torsions:
REMARK  status: ('A' for Active; 'I' for Inactive)
REMARK    1  A    between atoms: O_4  and  C_9
REMARK    2  A    between atoms: N_6  and  C_8
REMARK    3  A    between atoms: N_6  and  C_13
REMARK    4  A    between atoms: N_7  and  C_12
REMARK    5  A    between atoms: C_10  and  C_12
REMARK    6  A    between atoms: C_13  and  C_14
REMARK    7  A    between atoms: C_15  and  C_18
REMARK                            x       y       z     vdW  Elec       q    Type
REMARK                         _______ _______ _______ _____ _____    ______ ____
ROOT
ATOM      3  O   UNL     1     -17.812   5.435  24.893  0.00  0.00    -0.371 OA
ATOM      8  C   UNL     1     -16.516   3.821  26.056  0.00  0.00    +0.111 C 
ATOM      9  C   UNL     1     -15.987   3.953  24.640  0.00  0.00    +0.164 C 
ATOM     10  C   UNL     1     -16.532   5.320  24.250  0.00  0.00    +0.165 C 
ATOM     11  C   UNL     1     -17.902   4.431  25.918  0.00  0.00    +0.181 C 
ENDROOT
BRANCH   9   4
ATOM      4  O   UNL     1     -14.575   3.911  24.578  0.00  0.00    -0.388 OA
ATOM     26  H   UNL     1     -14.309   3.044  24.230  0.00  0.00    +0.210 HD
ENDBRANCH   9   4
BRANCH   8   6
ATOM      6  N   UNL     1     -16.546   2.450  26.542  0.00  0.00    -0.305 NA
ATOM     25  H   UNL     1     -15.609   2.053  26.476  0.00  0.00    +0.123 HD
BRANCH   6  13
ATOM     13  C   UNL     1     -16.986   2.396  27.931  0.00  0.00    +0.119 C 
BRANCH  13  14
ATOM      2  F   UNL     1     -15.320   4.318  29.175  0.00  0.00    -0.205 F 
ATOM     14  C   UNL     1     -15.861   2.028  28.861  0.00  0.00    +0.002 A 
ATOM     16  C   UNL     1     -15.077   3.027  29.439  0.00  0.00    +0.128 A 
ATOM     17  C   UNL     1     -15.601   0.688  29.142  0.00  0.00    +0.008 A 
ATOM     19  C   UNL     1     -14.034   2.685  30.300  0.00  0.00    +0.038 A 
ATOM     20  C   UNL     1     -14.557   0.344  30.003  0.00  0.00    +0.000 A 
ATOM     21  C   UNL     1     -13.774   1.343  30.582  0.00  0.00    +0.003 A 
ENDBRANCH  13  14
ENDBRANCH   6  13
ENDBRANCH   8   6
BRANCH  10  12
ATOM     12  C   UNL     1     -16.693   5.496  22.751  0.00  0.00    +0.138 C 
BRANCH  12   7
ATOM      5  O   UNL     1     -14.187   4.530  21.735  0.00  0.00    -0.270 OA
ATOM      7  N   UNL     1     -15.629   6.287  22.202  0.00  0.00    -0.308 N 
ATOM     15  C   UNL     1     -14.443   5.732  21.731  0.00  0.00    +0.251 C 
ATOM     27  H   UNL     1     -15.767   7.292  22.179  0.00  0.00    +0.149 HD
BRANCH  15  18
ATOM      1  S   UNL     1     -13.905   8.293  20.855  0.00  0.00    -0.092 S 
ATOM     18  C   UNL     1     -13.430   6.688  21.215  0.00  0.00    +0.074 A 
ATOM     22  C   UNL     1     -12.092   6.477  20.966  0.00  0.00    +0.021 A 
ATOM     23  C   UNL     1     -11.448   7.648  20.473  0.00  0.00    +0.008 A 
ATOM     24  C   UNL     1     -12.319   8.711  20.364  0.00  0.00    +0.046 A 
ENDBRANCH  15  18
ENDBRANCH  12   7
ENDBRANCH  10  12
TORSDOF 7
ENDMDL
MODEL 6
REMARK VINA RESULT:      -6.2     27.258     28.809
REMARK  Name = 75536610
REMARK  7 active torsions:
REMARK  status: ('A' for Active; 'I' for Inactive)
REMARK    1  A    between atoms: O_4  and  C_9
REMARK    2  A    between atoms: N_6  and  C_8
REMARK    3  A    between atoms: N_6  and  C_13
REMARK    4  A    between atoms: N_7  and  C_12
REMARK    5  A    between atoms: C_10  and  C_12
REMARK    6  A    between atoms: C_13  and  C_14
REMARK    7  A    between atoms: C_15  and  C_18
REMARK                            x       y       z     vdW  Elec       q    Type
REMARK                         _______ _______ _______ _____ _____    ______ ____
ROOT
ATOM      3  O   UNL     1     -11.206  -8.045  14.647  0.00  0.00    -0.371 OA
ATOM      8  C   UNL     1      -9.383  -8.879  15.921  0.00  0.00    +0.111 C 
ATOM      9  C   UNL     1      -9.799  -7.530  16.477  0.00  0.00    +0.164 C 
ATOM     10  C   UNL     1     -11.219  -7.416  15.939  0.00  0.00    +0.165 C 
ATOM     11  C   UNL     1     -10.014  -8.842  14.538  0.00  0.00    +0.181 C 
ENDROOT
BRANCH   9   4
ATOM      4  O   UNL     1      -9.765  -7.488  17.890  0.00  0.00    -0.388 OA
ATOM     26  H   UNL     1      -8.837  -7.440  18.173  0.00  0.00    +0.210 HD
ENDBRANCH   9   4
BRANCH   8   6
ATOM      6  N   UNL     1      -7.943  -9.075  15.882  0.00  0.00    -0.305 NA
ATOM     25  H   UNL     1      -7.488  -8.174  15.737  0.00  0.00    +0.123 HD
BRANCH   6  13
ATOM     13  C   UNL     1      -7.458  -9.654  17.130  0.00  0.00    +0.119 C 
BRANCH  13  14
ATOM      2  F   UNL     1      -6.009 -10.764  19.295  0.00  0.00    -0.205 F 
ATOM     14  C   UNL     1      -6.052 -10.175  16.996  0.00  0.00    +0.002 A 
ATOM     16  C   UNL     1      -5.395 -10.708  18.105  0.00  0.00    +0.128 A 
ATOM     17  C   UNL     1      -5.405 -10.122  15.761  0.00  0.00    +0.008 A 
ATOM     19  C   UNL     1      -4.092 -11.190  17.979  0.00  0.00    +0.038 A 
ATOM     20  C   UNL     1      -4.102 -10.603  15.635  0.00  0.00    +0.000 A 
ATOM     21  C   UNL     1      -3.445 -11.137  16.744  0.00  0.00    +0.003 A 
ENDBRANCH  13  14
ENDBRANCH   6  13
ENDBRANCH   8   6
BRANCH  10  12
ATOM     12  C   UNL     1     -11.697  -5.981  15.807  0.00  0.00    +0.138 C 
BRANCH  12   7
ATOM      5  O   UNL     1     -13.836  -5.310  14.013  0.00  0.00    -0.270 OA
ATOM      7  N   UNL     1     -11.568  -5.511  14.458  0.00  0.00    -0.308 N 
ATOM     15  C   UNL     1     -12.664  -5.208  13.657  0.00  0.00    +0.251 C 
ATOM     27  H   UNL     1     -10.626  -5.415  14.092  0.00  0.00    +0.149 HD
BRANCH  15  18
ATOM      1  S   UNL     1     -12.266  -5.918  11.020  0.00  0.00    -0.092 S 
ATOM     18  C   UNL     1     -12.363  -4.756  12.274  0.00  0.00    +0.074 A 
ATOM     22  C   UNL     1     -12.134  -3.478  11.814  0.00  0.00    +0.021 A 
ATOM     23  C   UNL     1     -11.877  -3.452  10.413  0.00  0.00    +0.008 A 
ATOM     24  C   UNL     1     -11.919  -4.712   9.855  0.00  0.00    +0.046 A 
ENDBRANCH  15  18
ENDBRANCH  12   7
ENDBRANCH  10  12
TORSDOF 7
ENDMDL
MODEL 7
REMARK VINA RESULT:      -6.1     26.274     27.843
REMARK  Name = 75536610
REMARK  7 active torsions:
REMARK  status: ('A' for Active; 'I' for Inactive)
REMARK    1  A    between atoms: O_4  and  C_9
REMARK    2  A    between atoms: N_6  and  C_8
REMARK    3  A    between atoms: N_6  and  C_13
REMARK    4  A    between atoms: N_7  and  C_12
REMARK    5  A    between atoms: C_10  and  C_12
REMARK    6  A    between atoms: C_13  and  C_14
REMARK    7  A    between atoms: C_15  and  C_18
REMARK                            x       y       z     vdW  Elec       q    Type
REMARK                         _______ _______ _______ _____ _____    ______ ____
ROOT
ATOM      3  O   UNL     1      -4.964 -11.770  15.856  0.00  0.00    -0.371 OA
ATOM      8  C   UNL     1      -2.974 -11.195  14.694  0.00  0.00    +0.111 C 
ATOM      9  C   UNL     1      -2.842 -10.766  16.143  0.00  0.00    +0.164 C 
ATOM     10  C   UNL     1      -3.893 -11.645  16.806  0.00  0.00    +0.165 C 
ATOM     11  C   UNL     1      -4.480 -11.361  14.564  0.00  0.00    +0.181 C 
ENDROOT
BRANCH   9   4
ATOM      4  O   UNL     1      -1.550 -11.002  16.667  0.00  0.00    -0.388 OA
ATOM     26  H   UNL     1      -1.460 -11.953  16.842  0.00  0.00    +0.210 HD
ENDBRANCH   9   4
BRANCH   8   6
ATOM      6  N   UNL     1      -2.427 -10.235  13.749  0.00  0.00    -0.305 NA
ATOM     25  H   UNL     1      -1.690  -9.700  14.208  0.00  0.00    +0.123 HD
BRANCH   6  13
ATOM     13  C   UNL     1      -1.866 -10.908  12.582  0.00  0.00    +0.119 C 
BRANCH  13  14
ATOM      2  F   UNL     1      -3.257 -13.020  11.308  0.00  0.00    -0.205 F 
ATOM     14  C   UNL     1      -2.718 -10.709  11.358  0.00  0.00    +0.002 A 
ATOM     16  C   UNL     1      -3.376 -11.794  10.779  0.00  0.00    +0.128 A 
ATOM     17  C   UNL     1      -2.849  -9.437  10.801  0.00  0.00    +0.008 A 
ATOM     19  C   UNL     1      -4.165 -11.608   9.644  0.00  0.00    +0.038 A 
ATOM     20  C   UNL     1      -3.638  -9.249   9.665  0.00  0.00    +0.000 A 
ATOM     21  C   UNL     1      -4.296 -10.335   9.087  0.00  0.00    +0.003 A 
ENDBRANCH  13  14
ENDBRANCH   6  13
ENDBRANCH   8   6
BRANCH  10  12
ATOM     12  C   UNL     1      -4.425 -11.068  18.106  0.00  0.00    +0.138 C 
BRANCH  12   7
ATOM      5  O   UNL     1      -6.335 -11.206  20.246  0.00  0.00    -0.270 OA
ATOM      7  N   UNL     1      -5.831 -10.795  18.018  0.00  0.00    -0.308 N 
ATOM     15  C   UNL     1      -6.686 -10.887  19.112  0.00  0.00    +0.251 C 
ATOM     27  H   UNL     1      -6.194 -10.538  17.106  0.00  0.00    +0.149 HD
BRANCH  15  18
ATOM      1  S   UNL     1      -8.544  -9.659  17.483  0.00  0.00    -0.092 S 
ATOM     18  C   UNL     1      -8.120 -10.596  18.851  0.00  0.00    +0.074 A 
ATOM     22  C   UNL     1      -9.225 -10.981  19.577  0.00  0.00    +0.021 A 
ATOM     23  C   UNL     1     -10.437 -10.502  19.002  0.00  0.00    +0.008 A 
ATOM     24  C   UNL     1     -10.212  -9.767  17.858  0.00  0.00    +0.046 A 
ENDBRANCH  15  18
ENDBRANCH  12   7
ENDBRANCH  10  12
TORSDOF 7
ENDMDL
MODEL 8
REMARK VINA RESULT:      -6.1      5.080      7.460
REMARK  Name = 75536610
REMARK  7 active torsions:
REMARK  status: ('A' for Active; 'I' for Inactive)
REMARK    1  A    between atoms: O_4  and  C_9
REMARK    2  A    between atoms: N_6  and  C_8
REMARK    3  A    between atoms: N_6  and  C_13
REMARK    4  A    between atoms: N_7  and  C_12
REMARK    5  A    between atoms: C_10  and  C_12
REMARK    6  A    between atoms: C_13  and  C_14
REMARK    7  A    between atoms: C_15  and  C_18
REMARK                            x       y       z     vdW  Elec       q    Type
REMARK                         _______ _______ _______ _____ _____    ______ ____
ROOT
ATOM      3  O   UNL     1      19.050   7.172  21.763  0.00  0.00    -0.371 OA
ATOM      8  C   UNL     1      20.277   5.767  20.293  0.00  0.00    +0.111 C 
ATOM      9  C   UNL     1      18.798   5.458  20.153  0.00  0.00    +0.164 C 
ATOM     10  C   UNL     1      18.179   6.733  20.708  0.00  0.00    +0.165 C 
ATOM     11  C   UNL     1      20.309   6.489  21.630  0.00  0.00    +0.181 C 
ENDROOT
BRANCH   9   4
ATOM      4  O   UNL     1      18.413   5.224  18.812  0.00  0.00    -0.388 OA
ATOM     26  H   UNL     1      18.781   4.369  18.533  0.00  0.00    +0.210 HD
ENDBRANCH   9   4
BRANCH   8   6
ATOM      6  N   UNL     1      21.125   4.586  20.267  0.00  0.00    -0.305 NA
ATOM     25  H   UNL     1      21.983   4.804  19.759  0.00  0.00    +0.123 HD
BRANCH   6  13
ATOM     13  C   UNL     1      21.471   4.158  21.617  0.00  0.00    +0.119 C 
BRANCH  13  14
ATOM      2  F   UNL     1      22.198   2.625  23.886  0.00  0.00    -0.205 F 
ATOM     14  C   UNL     1      22.625   3.191  21.620  0.00  0.00    +0.002 A 
ATOM     16  C   UNL     1      22.929   2.468  22.773  0.00  0.00    +0.128 A 
ATOM     17  C   UNL     1      23.392   3.021  20.468  0.00  0.00    +0.008 A 
ATOM     19  C   UNL     1      23.999   1.574  22.774  0.00  0.00    +0.038 A 
ATOM     20  C   UNL     1      24.463   2.127  20.467  0.00  0.00    +0.000 A 
ATOM     21  C   UNL     1      24.767   1.403  21.621  0.00  0.00    +0.003 A 
ENDBRANCH  13  14
ENDBRANCH   6  13
ENDBRANCH   8   6
BRANCH  10  12
ATOM     12  C   UNL     1      16.776   6.531  21.252  0.00  0.00    +0.138 C 
BRANCH  12   7
ATOM      5  O   UNL     1      15.752   6.206  18.588  0.00  0.00    -0.270 OA
ATOM      7  N   UNL     1      15.831   7.382  20.588  0.00  0.00    -0.308 N 
ATOM     15  C   UNL     1      15.388   7.148  19.289  0.00  0.00    +0.251 C 
ATOM     27  H   UNL     1      15.497   8.189  21.103  0.00  0.00    +0.149 HD
BRANCH  15  18
ATOM      1  S   UNL     1      12.785   7.692  18.553  0.00  0.00    -0.092 S 
ATOM     18  C   UNL     1      14.428   8.137  18.735  0.00  0.00    +0.074 A 
ATOM     22  C   UNL     1      14.663   9.428  18.317  0.00  0.00    +0.021 A 
ATOM     23  C   UNL     1      13.479  10.062  17.843  0.00  0.00    +0.008 A 
ATOM     24  C   UNL     1      12.382   9.229  17.916  0.00  0.00    +0.046 A 
ENDBRANCH  15  18
ENDBRANCH  12   7
ENDBRANCH  10  12
TORSDOF 7
ENDMDL
MODEL 9
REMARK VINA RESULT:      -6.1      5.334      9.202
REMARK  Name = 75536610
REMARK  7 active torsions:
REMARK  status: ('A' for Active; 'I' for Inactive)
REMARK    1  A    between atoms: O_4  and  C_9
REMARK    2  A    between atoms: N_6  and  C_8
REMARK    3  A    between atoms: N_6  and  C_13
REMARK    4  A    between atoms: N_7  and  C_12
REMARK    5  A    between atoms: C_10  and  C_12
REMARK    6  A    between atoms: C_13  and  C_14
REMARK    7  A    between atoms: C_15  and  C_18
REMARK                            x       y       z     vdW  Elec       q    Type
REMARK                         _______ _______ _______ _____ _____    ______ ____
ROOT
ATOM      3  O   UNL     1      16.944   7.062  21.635  0.00  0.00    -0.371 OA
ATOM      8  C   UNL     1      15.258   6.366  20.114  0.00  0.00    +0.111 C 
ATOM      9  C   UNL     1      16.589   6.419  19.387  0.00  0.00    +0.164 C 
ATOM     10  C   UNL     1      17.563   6.345  20.554  0.00  0.00    +0.165 C 
ATOM     11  C   UNL     1      15.547   7.225  21.335  0.00  0.00    +0.181 C 
ENDROOT
BRANCH   9   4
ATOM      4  O   UNL     1      16.762   5.342  18.486  0.00  0.00    -0.388 OA
ATOM     26  H   UNL     1      17.713   5.223  18.332  0.00  0.00    +0.210 HD
ENDBRANCH   9   4
BRANCH   8   6
ATOM      6  N   UNL     1      14.142   6.862  19.325  0.00  0.00    -0.305 NA
ATOM     25  H   UNL     1      13.429   7.234  19.953  0.00  0.00    +0.123 HD
BRANCH   6  13
ATOM     13  C   UNL     1      14.570   7.919  18.416  0.00  0.00    +0.119 C 
BRANCH  13  14
ATOM      2  F   UNL     1      14.955   9.653  16.210  0.00  0.00    -0.205 F 
ATOM     14  C   UNL     1      13.443   8.393  17.538  0.00  0.00    +0.002 A 
ATOM     16  C   UNL     1      13.703   9.248  16.467  0.00  0.00    +0.128 A 
ATOM     17  C   UNL     1      12.138   7.977  17.797  0.00  0.00    +0.008 A 
ATOM     19  C   UNL     1      12.658   9.687  15.654  0.00  0.00    +0.038 A 
ATOM     20  C   UNL     1      11.091   8.416  16.985  0.00  0.00    +0.000 A 
ATOM     21  C   UNL     1      11.351   9.271  15.913  0.00  0.00    +0.003 A 
ENDBRANCH  13  14
ENDBRANCH   6  13
ENDBRANCH   8   6
BRANCH  10  12
ATOM     12  C   UNL     1      18.918   6.955  20.244  0.00  0.00    +0.138 C 
BRANCH  12   7
ATOM      5  O   UNL     1      20.833   6.473  22.329  0.00  0.00    -0.270 OA
ATOM      7  N   UNL     1      19.951   5.959  20.245  0.00  0.00    -0.308 N 
ATOM     15  C   UNL     1      20.839   5.795  21.304  0.00  0.00    +0.251 C 
ATOM     27  H   UNL     1      20.024   5.370  19.422  0.00  0.00    +0.149 HD
BRANCH  15  18
ATOM      1  S   UNL     1      23.411   5.158  20.531  0.00  0.00    -0.092 S 
ATOM     18  C   UNL     1      21.867   4.735  21.141  0.00  0.00    +0.074 A 
ATOM     22  C   UNL     1      21.771   3.389  21.416  0.00  0.00    +0.021 A 
ATOM     23  C   UNL     1      22.980   2.695  21.124  0.00  0.00    +0.008 A 
ATOM     24  C   UNL     1      23.956   3.538  20.636  0.00  0.00    +0.046 A 
ENDBRANCH  15  18
ENDBRANCH  12   7
ENDBRANCH  10  12
TORSDOF 7
ENDMDL
MODEL 10
REMARK VINA RESULT:      -6.1      5.656     10.008
REMARK  Name = 75536610
REMARK  7 active torsions:
REMARK  status: ('A' for Active; 'I' for Inactive)
REMARK    1  A    between atoms: O_4  and  C_9
REMARK    2  A    between atoms: N_6  and  C_8
REMARK    3  A    between atoms: N_6  and  C_13
REMARK    4  A    between atoms: N_7  and  C_12
REMARK    5  A    between atoms: C_10  and  C_12
REMARK    6  A    between atoms: C_13  and  C_14
REMARK    7  A    between atoms: C_15  and  C_18
REMARK                            x       y       z     vdW  Elec       q    Type
REMARK                         _______ _______ _______ _____ _____    ______ ____
ROOT
ATOM      3  O   UNL     1      18.253   7.036  21.707  0.00  0.00    -0.371 OA
ATOM      8  C   UNL     1      16.565   6.538  20.113  0.00  0.00    +0.111 C 
ATOM      9  C   UNL     1      17.926   6.324  19.476  0.00  0.00    +0.164 C 
ATOM     10  C   UNL     1      18.804   6.161  20.708  0.00  0.00    +0.165 C 
ATOM     11  C   UNL     1      16.924   7.411  21.304  0.00  0.00    +0.181 C 
ENDROOT
BRANCH   9   4
ATOM      4  O   UNL     1      17.966   5.180  18.645  0.00  0.00    -0.388 OA
ATOM     26  H   UNL     1      17.117   5.111  18.177  0.00  0.00    +0.210 HD
ENDBRANCH   9   4
BRANCH   8   6
ATOM      6  N   UNL     1      15.597   7.162  19.225  0.00  0.00    -0.305 NA
ATOM     25  H   UNL     1      15.820   6.912  18.261  0.00  0.00    +0.123 HD
BRANCH   6  13
ATOM     13  C   UNL     1      14.242   6.713  19.527  0.00  0.00    +0.119 C 
BRANCH  13  14
ATOM      2  F   UNL     1      11.662   6.335  20.631  0.00  0.00    -0.205 F 
ATOM     14  C   UNL     1      13.358   7.853  19.957  0.00  0.00    +0.002 A 
ATOM     16  C   UNL     1      12.096   7.595  20.493  0.00  0.00    +0.128 A 
ATOM     17  C   UNL     1      13.802   9.167  19.819  0.00  0.00    +0.008 A 
ATOM     19  C   UNL     1      11.278   8.653  20.891  0.00  0.00    +0.038 A 
ATOM     20  C   UNL     1      12.984  10.226  20.216  0.00  0.00    +0.000 A 
ATOM     21  C   UNL     1      11.722   9.969  20.753  0.00  0.00    +0.003 A 
ENDBRANCH  13  14
ENDBRANCH   6  13
ENDBRANCH   8   6
BRANCH  10  12
ATOM     12  C   UNL     1      20.259   6.517  20.460  0.00  0.00    +0.138 C 
BRANCH  12   7
ATOM      5  O   UNL     1      23.129   6.479  20.521  0.00  0.00    -0.270 OA
ATOM      7  N   UNL     1      21.098   5.356  20.525  0.00  0.00    -0.308 N 
ATOM     15  C   UNL     1      22.488   5.431  20.551  0.00  0.00    +0.251 C 
ATOM     27  H   UNL     1      20.636   4.453  20.539  0.00  0.00    +0.149 HD
BRANCH  15  18
ATOM      1  S   UNL     1      24.760   4.023  19.864  0.00  0.00    -0.092 S 
ATOM     18  C   UNL     1      23.215   4.136  20.593  0.00  0.00    +0.074 A 
ATOM     22  C   UNL     1      22.820   2.943  21.156  0.00  0.00    +0.021 A 
ATOM     23  C   UNL     1      23.800   1.922  20.989  0.00  0.00    +0.008 A 
ATOM     24  C   UNL     1      24.906   2.375  20.302  0.00  0.00    +0.046 A 
ENDBRANCH  15  18
ENDBRANCH  12   7
ENDBRANCH  10  12
TORSDOF 7
ENDMDL
