MODEL 1
REMARK VINA RESULT:      -7.5      0.000      0.000
REMARK  Name = 100630278
REMARK  3 active torsions:
REMARK  status: ('A' for Active; 'I' for Inactive)
REMARK    1  A    between atoms: N_9  and  C_29
REMARK    2  A    between atoms: C_10  and  C_15
REMARK    3  A    between atoms: C_15  and  C_17
REMARK                            x       y       z     vdW  Elec       q    Type
REMARK                         _______ _______ _______ _____ _____    ______ ____
ROOT
ATOM      2  O   UNL     1      21.427  10.394  23.042  0.00  0.00    -0.274 OA
ATOM      4  O   UNL     1      19.618   6.043  20.602  0.00  0.00    -0.488 OA
ATOM      6  N   UNL     1      22.535   8.371  22.850  0.00  0.00    -0.300 N 
ATOM      8  N   UNL     1      19.413   7.776  22.931  0.00  0.00    -0.304 NA
ATOM     10  C   UNL     1      23.744   7.019  20.567  0.00  0.00    +0.008 C 
ATOM     11  C   UNL     1      22.515   6.458  21.343  0.00  0.00    +0.032 C 
ATOM     12  C   UNL     1      23.799   8.555  20.747  0.00  0.00    +0.023 C 
ATOM     13  C   UNL     1      22.548   6.905  22.817  0.00  0.00    +0.115 C 
ATOM     14  C   UNL     1      23.707   8.980  22.215  0.00  0.00    +0.108 C 
ATOM     16  C   UNL     1      22.341   4.968  21.226  0.00  0.00    -0.023 C 
ATOM     18  C   UNL     1      21.450   9.169  23.209  0.00  0.00    +0.229 C 
ATOM     19  C   UNL     1      21.297   4.277  20.734  0.00  0.00    +0.010 C 
ATOM     20  C   UNL     1      20.251   8.515  23.871  0.00  0.00    +0.178 C 
ATOM     23  C   UNL     1      19.961   4.724  20.196  0.00  0.00    +0.256 C 
ATOM     26  C   UNL     1      18.969   8.538  21.767  0.00  0.00    +0.120 C 
ATOM     27  C   UNL     1      18.001   7.743  20.907  0.00  0.00    +0.010 A 
ATOM     28  C   UNL     1      18.355   6.502  20.325  0.00  0.00    +0.125 A 
ATOM     29  C   UNL     1      15.810   7.586  19.861  0.00  0.00    +0.030 A 
ATOM     30  C   UNL     1      16.723   8.270  20.662  0.00  0.00    +0.031 A 
ATOM     33  C   UNL     1      17.432   5.829  19.517  0.00  0.00    +0.048 A 
ATOM     34  C   UNL     1      16.166   6.368  19.289  0.00  0.00    +0.027 A 
ATOM     37  H   UNL     1      18.601   7.418  23.434  0.00  0.00    +0.123 HD
ENDROOT
BRANCH  29   9
ATOM      5  O   UNL     1      11.993   9.074  18.917  0.00  0.00    -0.377 OA
ATOM      9  N   UNL     1      14.541   8.125  19.629  0.00  0.00    -0.326 N 
ATOM     31  C   UNL     1      13.400   7.203  19.550  0.00  0.00    +0.133 C 
ATOM     32  C   UNL     1      14.401   9.358  18.846  0.00  0.00    +0.133 C 
ATOM     35  C   UNL     1      12.104   7.964  19.807  0.00  0.00    +0.178 C 
ATOM     36  C   UNL     1      13.052  10.005  19.138  0.00  0.00    +0.178 C 
ENDBRANCH  29   9
BRANCH  10  15
ATOM     15  C   UNL     1      25.086   6.383  20.950  0.00  0.00    +0.100 C 
BRANCH  15  17
ATOM      1  O   UNL     1      25.293   4.474  19.559  0.00  0.00    -0.276 OA
ATOM      3  O   UNL     1      27.793   7.850  16.948  0.00  0.00    -0.377 OA
ATOM      7  N   UNL     1      26.566   6.326  18.977  0.00  0.00    -0.297 N 
ATOM     17  C   UNL     1      25.653   5.635  19.770  0.00  0.00    +0.216 C 
ATOM     21  C   UNL     1      27.162   5.676  17.809  0.00  0.00    +0.136 C 
ATOM     22  C   UNL     1      27.112   7.657  19.269  0.00  0.00    +0.136 C 
ATOM     24  C   UNL     1      27.149   6.618  16.613  0.00  0.00    +0.179 C 
ATOM     25  C   UNL     1      27.106   8.517  18.011  0.00  0.00    +0.179 C 
ENDBRANCH  15  17
ENDBRANCH  10  15
TORSDOF 3
ENDMDL
MODEL 2
REMARK VINA RESULT:      -7.1     14.953     19.189
REMARK  Name = 100630278
REMARK  3 active torsions:
REMARK  status: ('A' for Active; 'I' for Inactive)
REMARK    1  A    between atoms: N_9  and  C_29
REMARK    2  A    between atoms: C_10  and  C_15
REMARK    3  A    between atoms: C_15  and  C_17
REMARK                            x       y       z     vdW  Elec       q    Type
REMARK                         _______ _______ _______ _____ _____    ______ ____
ROOT
ATOM      2  O   UNL     1      11.115   5.809   7.633  0.00  0.00    -0.274 OA
ATOM      4  O   UNL     1       8.714  10.240   5.973  0.00  0.00    -0.488 OA
ATOM      6  N   UNL     1       9.806   6.029   5.738  0.00  0.00    -0.300 N 
ATOM      8  N   UNL     1       8.727   8.076   7.918  0.00  0.00    -0.304 NA
ATOM     10  C   UNL     1      10.250   7.413   3.211  0.00  0.00    +0.008 C 
ATOM     11  C   UNL     1       9.138   7.816   4.225  0.00  0.00    +0.032 C 
ATOM     12  C   UNL     1      11.384   6.682   3.968  0.00  0.00    +0.023 C 
ATOM     13  C   UNL     1       8.655   6.589   5.022  0.00  0.00    +0.115 C 
ATOM     14  C   UNL     1      10.866   5.543   4.850  0.00  0.00    +0.108 C 
ATOM     16  C   UNL     1       7.982   8.557   3.608  0.00  0.00    -0.023 C 
ATOM     18  C   UNL     1      10.044   6.133   7.107  0.00  0.00    +0.229 C 
ATOM     19  C   UNL     1       7.526   9.791   3.889  0.00  0.00    +0.010 C 
ATOM     20  C   UNL     1       8.927   6.632   8.006  0.00  0.00    +0.178 C 
ATOM     23  C   UNL     1       7.954  10.810   4.915  0.00  0.00    +0.256 C 
ATOM     26  C   UNL     1       9.925   8.881   8.138  0.00  0.00    +0.120 C 
ATOM     27  C   UNL     1       9.609  10.368   8.159  0.00  0.00    +0.010 A 
ATOM     28  C   UNL     1       9.015  11.026   7.057  0.00  0.00    +0.125 A 
ATOM     29  C   UNL     1       9.694  12.485   9.353  0.00  0.00    +0.030 A 
ATOM     30  C   UNL     1       9.944  11.115   9.300  0.00  0.00    +0.031 A 
ATOM     33  C   UNL     1       8.776  12.404   7.120  0.00  0.00    +0.048 A 
ATOM     34  C   UNL     1       9.112  13.128   8.265  0.00  0.00    +0.027 A 
ATOM     37  H   UNL     1       8.007   8.344   8.590  0.00  0.00    +0.123 HD
ENDROOT
BRANCH  29   9
ATOM      5  O   UNL     1      10.464  14.599  12.905  0.00  0.00    -0.377 OA
ATOM      9  N   UNL     1      10.032  13.214  10.498  0.00  0.00    -0.326 N 
ATOM     31  C   UNL     1      10.247  12.478  11.751  0.00  0.00    +0.133 C 
ATOM     32  C   UNL     1       9.548  14.590  10.659  0.00  0.00    +0.133 C 
ATOM     35  C   UNL     1      11.075  13.325  12.711  0.00  0.00    +0.178 C 
ATOM     36  C   UNL     1      10.411  15.325  11.677  0.00  0.00    +0.178 C 
ENDBRANCH  29   9
BRANCH  10  15
ATOM     15  C   UNL     1       9.761   6.571   2.027  0.00  0.00    +0.100 C 
BRANCH  15  17
ATOM      1  O   UNL     1      11.004   7.620   0.302  0.00  0.00    -0.276 OA
ATOM      3  O   UNL     1      13.347   3.280   0.680  0.00  0.00    -0.377 OA
ATOM      7  N   UNL     1      11.467   5.380   0.699  0.00  0.00    -0.297 N 
ATOM     17  C   UNL     1      10.797   6.579   0.931  0.00  0.00    +0.216 C 
ATOM     21  C   UNL     1      12.490   5.301  -0.343  0.00  0.00    +0.136 C 
ATOM     22  C   UNL     1      11.158   4.095   1.338  0.00  0.00    +0.136 C 
ATOM     24  C   UNL     1      13.718   4.565   0.173  0.00  0.00    +0.179 C 
ATOM     25  C   UNL     1      12.442   3.404   1.781  0.00  0.00    +0.179 C 
ENDBRANCH  15  17
ENDBRANCH  10  15
TORSDOF 3
ENDMDL
MODEL 3
REMARK VINA RESULT:      -7.0      1.742      2.419
REMARK  Name = 100630278
REMARK  3 active torsions:
REMARK  status: ('A' for Active; 'I' for Inactive)
REMARK    1  A    between atoms: N_9  and  C_29
REMARK    2  A    between atoms: C_10  and  C_15
REMARK    3  A    between atoms: C_15  and  C_17
REMARK                            x       y       z     vdW  Elec       q    Type
REMARK                         _______ _______ _______ _____ _____    ______ ____
ROOT
ATOM      2  O   UNL     1      20.102  12.352  21.293  0.00  0.00    -0.274 OA
ATOM      4  O   UNL     1      18.872   7.210  20.843  0.00  0.00    -0.488 OA
ATOM      6  N   UNL     1      21.458  10.565  21.862  0.00  0.00    -0.300 N 
ATOM      8  N   UNL     1      18.436   9.685  22.309  0.00  0.00    -0.304 NA
ATOM     10  C   UNL     1      22.842   8.573  20.243  0.00  0.00    +0.008 C 
ATOM     11  C   UNL     1      21.688   8.224  21.230  0.00  0.00    +0.032 C 
ATOM     12  C   UNL     1      22.701  10.050  19.802  0.00  0.00    +0.023 C 
ATOM     13  C   UNL     1      21.657   9.218  22.407  0.00  0.00    +0.115 C 
ATOM     14  C   UNL     1      22.547  11.007  20.987  0.00  0.00    +0.108 C 
ATOM     16  C   UNL     1      21.705   6.800  21.717  0.00  0.00    -0.023 C 
ATOM     18  C   UNL     1      20.279  11.305  21.927  0.00  0.00    +0.229 C 
ATOM     19  C   UNL     1      20.760   5.853  21.583  0.00  0.00    +0.010 C 
ATOM     20  C   UNL     1      19.168  10.829  22.845  0.00  0.00    +0.178 C 
ATOM     23  C   UNL     1      19.381   5.888  20.973  0.00  0.00    +0.256 C 
ATOM     26  C   UNL     1      17.906   9.866  20.960  0.00  0.00    +0.120 C 
ATOM     27  C   UNL     1      17.051   8.687  20.526  0.00  0.00    +0.010 A 
ATOM     28  C   UNL     1      17.562   7.369  20.464  0.00  0.00    +0.125 A 
ATOM     29  C   UNL     1      14.904   7.872  19.725  0.00  0.00    +0.030 A 
ATOM     30  C   UNL     1      15.718   8.920  20.151  0.00  0.00    +0.031 A 
ATOM     33  C   UNL     1      16.737   6.327  20.027  0.00  0.00    +0.048 A 
ATOM     34  C   UNL     1      15.414   6.578  19.662  0.00  0.00    +0.027 A 
ATOM     37  H   UNL     1      17.672   9.462  22.948  0.00  0.00    +0.123 HD
ENDROOT
BRANCH  29   9
ATOM      5  O   UNL     1      10.863   8.349  18.666  0.00  0.00    -0.377 OA
ATOM      9  N   UNL     1      13.579   8.120  19.356  0.00  0.00    -0.326 N 
ATOM     31  C   UNL     1      12.536   7.989  20.384  0.00  0.00    +0.133 C 
ATOM     32  C   UNL     1      13.137   7.851  17.983  0.00  0.00    +0.133 C 
ATOM     35  C   UNL     1      11.295   8.765  19.961  0.00  0.00    +0.178 C 
ATOM     36  C   UNL     1      11.863   8.633  17.687  0.00  0.00    +0.178 C 
ENDBRANCH  29   9
BRANCH  10  15
ATOM     15  C   UNL     1      24.251   8.304  20.784  0.00  0.00    +0.100 C 
BRANCH  15  17
ATOM      1  O   UNL     1      25.413   8.309  18.718  0.00  0.00    -0.276 OA
ATOM      3  O   UNL     1      26.869   3.989  20.637  0.00  0.00    -0.377 OA
ATOM      7  N   UNL     1      25.470   6.334  19.937  0.00  0.00    -0.297 N 
ATOM     17  C   UNL     1      25.095   7.657  19.716  0.00  0.00    +0.216 C 
ATOM     21  C   UNL     1      26.294   5.632  18.953  0.00  0.00    +0.136 C 
ATOM     22  C   UNL     1      25.007   5.491  21.046  0.00  0.00    +0.136 C 
ATOM     24  C   UNL     1      27.411   4.865  19.646  0.00  0.00    +0.179 C 
ATOM     25  C   UNL     1      26.177   4.725  21.650  0.00  0.00    +0.179 C 
ENDBRANCH  15  17
ENDBRANCH  10  15
TORSDOF 3
ENDMDL
MODEL 4
REMARK VINA RESULT:      -6.9      2.478      3.019
REMARK  Name = 100630278
REMARK  3 active torsions:
REMARK  status: ('A' for Active; 'I' for Inactive)
REMARK    1  A    between atoms: N_9  and  C_29
REMARK    2  A    between atoms: C_10  and  C_15
REMARK    3  A    between atoms: C_15  and  C_17
REMARK                            x       y       z     vdW  Elec       q    Type
REMARK                         _______ _______ _______ _____ _____    ______ ____
ROOT
ATOM      2  O   UNL     1      19.988  12.364  21.791  0.00  0.00    -0.274 OA
ATOM      4  O   UNL     1      19.003   7.276  20.653  0.00  0.00    -0.488 OA
ATOM      6  N   UNL     1      21.543  10.652  21.719  0.00  0.00    -0.300 N 
ATOM      8  N   UNL     1      18.757   9.410  22.615  0.00  0.00    -0.304 NA
ATOM     10  C   UNL     1      22.648   9.112  19.504  0.00  0.00    +0.008 C 
ATOM     11  C   UNL     1      21.768   8.487  20.627  0.00  0.00    +0.032 C 
ATOM     12  C   UNL     1      22.323  10.621  19.387  0.00  0.00    +0.023 C 
ATOM     13  C   UNL     1      21.940   9.259  21.950  0.00  0.00    +0.115 C 
ATOM     14  C   UNL     1      22.380  11.343  20.735  0.00  0.00    +0.108 C 
ATOM     16  C   UNL     1      21.980   7.010  20.824  0.00  0.00    -0.023 C 
ATOM     18  C   UNL     1      20.365  11.248  22.167  0.00  0.00    +0.229 C 
ATOM     19  C   UNL     1      21.088   6.009  20.716  0.00  0.00    +0.010 C 
ATOM     20  C   UNL     1      19.519  10.514  23.191  0.00  0.00    +0.178 C 
ATOM     23  C   UNL     1      19.609   6.009  20.425  0.00  0.00    +0.256 C 
ATOM     26  C   UNL     1      17.929   9.763  21.465  0.00  0.00    +0.120 C 
ATOM     27  C   UNL     1      17.072   8.594  21.006  0.00  0.00    +0.010 A 
ATOM     28  C   UNL     1      17.635   7.365  20.593  0.00  0.00    +0.125 A 
ATOM     29  C   UNL     1      14.854   7.715  20.533  0.00  0.00    +0.030 A 
ATOM     30  C   UNL     1      15.677   8.752  20.968  0.00  0.00    +0.031 A 
ATOM     33  C   UNL     1      16.798   6.333  20.151  0.00  0.00    +0.048 A 
ATOM     34  C   UNL     1      15.415   6.509  20.124  0.00  0.00    +0.027 A 
ATOM     37  H   UNL     1      18.170   9.007  23.346  0.00  0.00    +0.123 HD
ENDROOT
BRANCH  29   9
ATOM      5  O   UNL     1      10.658   7.957  20.426  0.00  0.00    -0.377 OA
ATOM      9  N   UNL     1      13.467   7.888  20.502  0.00  0.00    -0.326 N 
ATOM     31  C   UNL     1      12.679   7.382  21.635  0.00  0.00    +0.133 C 
ATOM     32  C   UNL     1      12.760   7.918  19.216  0.00  0.00    +0.133 C 
ATOM     35  C   UNL     1      11.328   8.086  21.679  0.00  0.00    +0.178 C 
ATOM     36  C   UNL     1      11.404   8.593  19.388  0.00  0.00    +0.178 C 
ENDBRANCH  29   9
BRANCH  10  15
ATOM     15  C   UNL     1      24.156   8.898  19.679  0.00  0.00    +0.100 C 
BRANCH  15  17
ATOM      1  O   UNL     1      24.724   9.120  17.388  0.00  0.00    -0.276 OA
ATOM      3  O   UNL     1      26.886  13.131  19.313  0.00  0.00    -0.377 OA
ATOM      7  N   UNL     1      25.757  10.588  18.860  0.00  0.00    -0.297 N 
ATOM     17  C   UNL     1      24.901   9.539  18.535  0.00  0.00    +0.216 C 
ATOM     21  C   UNL     1      26.515  11.269  17.810  0.00  0.00    +0.136 C 
ATOM     22  C   UNL     1      26.088  11.027  20.221  0.00  0.00    +0.136 C 
ATOM     24  C   UNL     1      26.447  12.777  17.999  0.00  0.00    +0.179 C 
ATOM     25  C   UNL     1      26.043  12.547  20.311  0.00  0.00    +0.179 C 
ENDBRANCH  15  17
ENDBRANCH  10  15
TORSDOF 3
ENDMDL
MODEL 5
REMARK VINA RESULT:      -6.8     29.851     34.653
REMARK  Name = 100630278
REMARK  3 active torsions:
REMARK  status: ('A' for Active; 'I' for Inactive)
REMARK    1  A    between atoms: N_9  and  C_29
REMARK    2  A    between atoms: C_10  and  C_15
REMARK    3  A    between atoms: C_15  and  C_17
REMARK                            x       y       z     vdW  Elec       q    Type
REMARK                         _______ _______ _______ _____ _____    ______ ____
ROOT
ATOM      2  O   UNL     1      -6.971  -8.316   7.091  0.00  0.00    -0.274 OA
ATOM      4  O   UNL     1      -4.271 -12.884   7.067  0.00  0.00    -0.488 OA
ATOM      6  N   UNL     1      -6.484  -9.629   8.934  0.00  0.00    -0.300 N 
ATOM      8  N   UNL     1      -6.770 -11.545   6.414  0.00  0.00    -0.304 NA
ATOM     10  C   UNL     1      -3.982 -10.186  10.325  0.00  0.00    +0.008 C 
ATOM     11  C   UNL     1      -4.800 -11.272   9.563  0.00  0.00    +0.032 C 
ATOM     12  C   UNL     1      -4.310  -8.796   9.730  0.00  0.00    +0.023 C 
ATOM     13  C   UNL     1      -6.303 -10.935   9.578  0.00  0.00    +0.115 C 
ATOM     14  C   UNL     1      -5.815  -8.532   9.640  0.00  0.00    +0.108 C 
ATOM     16  C   UNL     1      -4.550 -12.678  10.040  0.00  0.00    -0.023 C 
ATOM     18  C   UNL     1      -7.012  -9.412   7.663  0.00  0.00    +0.229 C 
ATOM     19  C   UNL     1      -4.082 -13.731   9.348  0.00  0.00    +0.010 C 
ATOM     20  C   UNL     1      -7.705 -10.563   6.955  0.00  0.00    +0.178 C 
ATOM     23  C   UNL     1      -3.707 -13.893   7.896  0.00  0.00    +0.256 C 
ATOM     26  C   UNL     1      -5.730 -10.998   5.547  0.00  0.00    +0.120 C 
ATOM     27  C   UNL     1      -4.881 -12.093   4.923  0.00  0.00    +0.010 A 
ATOM     28  C   UNL     1      -4.150 -13.016   5.706  0.00  0.00    +0.125 A 
ATOM     29  C   UNL     1      -4.015 -13.145   2.908  0.00  0.00    +0.030 A 
ATOM     30  C   UNL     1      -4.800 -12.171   3.523  0.00  0.00    +0.031 A 
ATOM     33  C   UNL     1      -3.360 -13.985   5.077  0.00  0.00    +0.048 A 
ATOM     34  C   UNL     1      -3.296 -14.049   3.685  0.00  0.00    +0.027 A 
ATOM     37  H   UNL     1      -7.303 -12.251   5.904  0.00  0.00    +0.123 HD
ENDROOT
BRANCH  29   9
ATOM      5  O   UNL     1      -3.900 -13.608  -1.269  0.00  0.00    -0.377 OA
ATOM      9  N   UNL     1      -3.947 -13.211   1.513  0.00  0.00    -0.326 N 
ATOM     31  C   UNL     1      -5.201 -13.373   0.764  0.00  0.00    +0.133 C 
ATOM     32  C   UNL     1      -2.756 -13.771   0.864  0.00  0.00    +0.133 C 
ATOM     35  C   UNL     1      -5.002 -12.920  -0.678  0.00  0.00    +0.178 C 
ATOM     36  C   UNL     1      -2.687 -13.298  -0.583  0.00  0.00    +0.178 C 
ENDBRANCH  29   9
BRANCH  10  15
ATOM     15  C   UNL     1      -4.184 -10.183  11.845  0.00  0.00    +0.100 C 
BRANCH  15  17
ATOM      1  O   UNL     1      -1.828 -10.438  11.911  0.00  0.00    -0.276 OA
ATOM      3  O   UNL     1      -3.001 -11.040  16.678  0.00  0.00    -0.377 OA
ATOM      7  N   UNL     1      -2.982 -10.942  13.862  0.00  0.00    -0.297 N 
ATOM     17  C   UNL     1      -2.889 -10.531  12.534  0.00  0.00    +0.216 C 
ATOM     21  C   UNL     1      -1.773 -11.294  14.606  0.00  0.00    +0.136 C 
ATOM     22  C   UNL     1      -4.231 -11.186  14.592  0.00  0.00    +0.136 C 
ATOM     24  C   UNL     1      -1.802 -10.667  15.993  0.00  0.00    +0.179 C 
ATOM     25  C   UNL     1      -4.158 -10.568  15.983  0.00  0.00    +0.179 C 
ENDBRANCH  15  17
ENDBRANCH  10  15
TORSDOF 3
ENDMDL
MODEL 6
REMARK VINA RESULT:      -6.7     15.809     20.656
REMARK  Name = 100630278
REMARK  3 active torsions:
REMARK  status: ('A' for Active; 'I' for Inactive)
REMARK    1  A    between atoms: N_9  and  C_29
REMARK    2  A    between atoms: C_10  and  C_15
REMARK    3  A    between atoms: C_15  and  C_17
REMARK                            x       y       z     vdW  Elec       q    Type
REMARK                         _______ _______ _______ _____ _____    ______ ____
ROOT
ATOM      2  O   UNL     1       9.055  11.004   2.647  0.00  0.00    -0.274 OA
ATOM      4  O   UNL     1      10.084   6.120   4.449  0.00  0.00    -0.488 OA
ATOM      6  N   UNL     1       8.532  10.180   4.745  0.00  0.00    -0.300 N 
ATOM      8  N   UNL     1       8.442   7.756   2.690  0.00  0.00    -0.304 NA
ATOM     10  C   UNL     1      10.194   9.478   7.035  0.00  0.00    +0.008 C 
ATOM     11  C   UNL     1       9.351   8.438   6.237  0.00  0.00    +0.032 C 
ATOM     12  C   UNL     1      10.509  10.685   6.120  0.00  0.00    +0.023 C 
ATOM     13  C   UNL     1       8.096   9.099   5.636  0.00  0.00    +0.115 C 
ATOM     14  C   UNL     1       9.260  11.248   5.436  0.00  0.00    +0.108 C 
ATOM     16  C   UNL     1       8.998   7.202   7.019  0.00  0.00    -0.023 C 
ATOM     18  C   UNL     1       8.506  10.149   3.352  0.00  0.00    +0.229 C 
ATOM     19  C   UNL     1       9.303   5.920   6.752  0.00  0.00    +0.010 C 
ATOM     20  C   UNL     1       7.740   9.036   2.661  0.00  0.00    +0.178 C 
ATOM     23  C   UNL     1      10.030   5.281   5.596  0.00  0.00    +0.256 C 
ATOM     26  C   UNL     1       9.811   7.790   2.183  0.00  0.00    +0.120 C 
ATOM     27  C   UNL     1      10.427   6.402   2.125  0.00  0.00    +0.010 A 
ATOM     28  C   UNL     1      10.564   5.591   3.277  0.00  0.00    +0.125 A 
ATOM     29  C   UNL     1      11.491   4.663   0.798  0.00  0.00    +0.030 A 
ATOM     30  C   UNL     1      10.899   5.921   0.893  0.00  0.00    +0.031 A 
ATOM     33  C   UNL     1      11.167   4.333   3.170  0.00  0.00    +0.048 A 
ATOM     34  C   UNL     1      11.625   3.872   1.935  0.00  0.00    +0.027 A 
ATOM     37  H   UNL     1       7.898   7.077   2.157  0.00  0.00    +0.123 HD
ENDROOT
BRANCH  29   9
ATOM      5  O   UNL     1      12.814   3.515  -3.024  0.00  0.00    -0.377 OA
ATOM      9  N   UNL     1      11.954   4.198  -0.437  0.00  0.00    -0.326 N 
ATOM     31  C   UNL     1      13.140   4.841  -1.020  0.00  0.00    +0.133 C 
ATOM     32  C   UNL     1      11.009   3.636  -1.408  0.00  0.00    +0.133 C 
ATOM     35  C   UNL     1      13.776   3.913  -2.047  0.00  0.00    +0.178 C 
ATOM     36  C   UNL     1      11.758   2.772  -2.416  0.00  0.00    +0.178 C 
ENDBRANCH  29   9
BRANCH  10  15
ATOM     15  C   UNL     1       9.554   9.949   8.347  0.00  0.00    +0.100 C 
BRANCH  15  17
ATOM      1  O   UNL     1      11.759  10.642   8.875  0.00  0.00    -0.276 OA
ATOM      3  O   UNL     1       9.086  13.618  11.784  0.00  0.00    -0.377 OA
ATOM      7  N   UNL     1      10.056  11.497  10.201  0.00  0.00    -0.297 N 
ATOM     17  C   UNL     1      10.561  10.722   9.159  0.00  0.00    +0.216 C 
ATOM     21  C   UNL     1      10.964  12.283  11.036  0.00  0.00    +0.136 C 
ATOM     22  C   UNL     1       8.658  11.517  10.647  0.00  0.00    +0.136 C 
ATOM     24  C   UNL     1      10.410  13.685  11.248  0.00  0.00    +0.179 C 
ATOM     25  C   UNL     1       8.199  12.952  10.880  0.00  0.00    +0.179 C 
ENDBRANCH  15  17
ENDBRANCH  10  15
TORSDOF 3
ENDMDL
MODEL 7
REMARK VINA RESULT:      -6.7      3.708      9.798
REMARK  Name = 100630278
REMARK  3 active torsions:
REMARK  status: ('A' for Active; 'I' for Inactive)
REMARK    1  A    between atoms: N_9  and  C_29
REMARK    2  A    between atoms: C_10  and  C_15
REMARK    3  A    between atoms: C_15  and  C_17
REMARK                            x       y       z     vdW  Elec       q    Type
REMARK                         _______ _______ _______ _____ _____    ______ ____
ROOT
ATOM      2  O   UNL     1      13.724   6.578  19.843  0.00  0.00    -0.274 OA
ATOM      4  O   UNL     1      17.893   9.694  20.874  0.00  0.00    -0.488 OA
ATOM      6  N   UNL     1      13.727   8.892  19.886  0.00  0.00    -0.300 N 
ATOM      8  N   UNL     1      15.905   7.871  21.964  0.00  0.00    -0.304 NA
ATOM     10  C   UNL     1      14.909  10.874  18.104  0.00  0.00    +0.008 C 
ATOM     11  C   UNL     1      15.349  10.684  19.586  0.00  0.00    +0.032 C 
ATOM     12  C   UNL     1      14.292   9.553  17.585  0.00  0.00    +0.023 C 
ATOM     13  C   UNL     1      14.176  10.173  20.444  0.00  0.00    +0.115 C 
ATOM     14  C   UNL     1      13.212   8.999  18.518  0.00  0.00    +0.108 C 
ATOM     16  C   UNL     1      15.987  11.901  20.200  0.00  0.00    -0.023 C 
ATOM     18  C   UNL     1      13.957   7.635  20.442  0.00  0.00    +0.229 C 
ATOM     19  C   UNL     1      17.220  12.034  20.720  0.00  0.00    +0.010 C 
ATOM     20  C   UNL     1      14.484   7.551  21.863  0.00  0.00    +0.178 C 
ATOM     23  C   UNL     1      18.339  11.044  20.917  0.00  0.00    +0.256 C 
ATOM     26  C   UNL     1      16.776   7.104  21.077  0.00  0.00    +0.120 C 
ATOM     27  C   UNL     1      18.245   7.400  21.332  0.00  0.00    +0.010 A 
ATOM     28  C   UNL     1      18.781   8.703  21.211  0.00  0.00    +0.125 A 
ATOM     29  C   UNL     1      20.458   6.562  21.895  0.00  0.00    +0.030 A 
ATOM     30  C   UNL     1      19.099   6.340  21.674  0.00  0.00    +0.031 A 
ATOM     33  C   UNL     1      20.148   8.912  21.429  0.00  0.00    +0.048 A 
ATOM     34  C   UNL     1      20.980   7.846  21.772  0.00  0.00    +0.027 A 
ATOM     37  H   UNL     1      16.199   7.734  22.931  0.00  0.00    +0.123 HD
ENDROOT
BRANCH  29   9
ATOM      5  O   UNL     1      23.188   3.499  22.813  0.00  0.00    -0.377 OA
ATOM      9  N   UNL     1      21.295   5.495  22.236  0.00  0.00    -0.326 N 
ATOM     31  C   UNL     1      22.325   5.721  23.259  0.00  0.00    +0.133 C 
ATOM     32  C   UNL     1      21.623   4.473  21.236  0.00  0.00    +0.133 C 
ATOM     35  C   UNL     1      22.768   4.387  23.849  0.00  0.00    +0.178 C 
ATOM     36  C   UNL     1      22.104   3.205  21.932  0.00  0.00    +0.178 C 
ENDBRANCH  29   9
BRANCH  10  15
ATOM     15  C   UNL     1      13.949  12.046  17.868  0.00  0.00    +0.100 C 
BRANCH  15  17
ATOM      1  O   UNL     1      15.086  14.126  17.829  0.00  0.00    -0.276 OA
ATOM      3  O   UNL     1      15.841  12.524  13.211  0.00  0.00    -0.377 OA
ATOM      7  N   UNL     1      14.833  13.043  15.791  0.00  0.00    -0.297 N 
ATOM     17  C   UNL     1      14.673  13.169  17.170  0.00  0.00    +0.216 C 
ATOM     21  C   UNL     1      15.528  14.085  15.036  0.00  0.00    +0.136 C 
ATOM     22  C   UNL     1      14.246  11.986  14.959  0.00  0.00    +0.136 C 
ATOM     24  C   UNL     1      16.512  13.463  14.055  0.00  0.00    +0.179 C 
ATOM     25  C   UNL     1      15.282  11.453  13.977  0.00  0.00    +0.179 C 
ENDBRANCH  15  17
ENDBRANCH  10  15
TORSDOF 3
ENDMDL
MODEL 8
REMARK VINA RESULT:      -6.7      3.456     10.568
REMARK  Name = 100630278
REMARK  3 active torsions:
REMARK  status: ('A' for Active; 'I' for Inactive)
REMARK    1  A    between atoms: N_9  and  C_29
REMARK    2  A    between atoms: C_10  and  C_15
REMARK    3  A    between atoms: C_15  and  C_17
REMARK                            x       y       z     vdW  Elec       q    Type
REMARK                         _______ _______ _______ _____ _____    ______ ____
ROOT
ATOM      2  O   UNL     1      18.383  11.630  23.215  0.00  0.00    -0.274 OA
ATOM      4  O   UNL     1      17.358   7.375  20.216  0.00  0.00    -0.488 OA
ATOM      6  N   UNL     1      16.589  11.369  21.776  0.00  0.00    -0.300 N 
ATOM      8  N   UNL     1      19.038   9.719  20.600  0.00  0.00    -0.304 NA
ATOM     10  C   UNL     1      14.220   9.675  21.901  0.00  0.00    +0.008 C 
ATOM     11  C   UNL     1      15.325   9.525  20.813  0.00  0.00    +0.032 C 
ATOM     12  C   UNL     1      14.833  10.339  23.157  0.00  0.00    +0.023 C 
ATOM     13  C   UNL     1      15.998  10.880  20.526  0.00  0.00    +0.115 C 
ATOM     14  C   UNL     1      15.603  11.622  22.830  0.00  0.00    +0.108 C 
ATOM     16  C   UNL     1      14.853   8.869  19.544  0.00  0.00    -0.023 C 
ATOM     18  C   UNL     1      17.949  11.386  22.083  0.00  0.00    +0.229 C 
ATOM     19  C   UNL     1      15.295   7.738  18.965  0.00  0.00    +0.010 C 
ATOM     20  C   UNL     1      18.951  11.128  20.973  0.00  0.00    +0.178 C 
ATOM     23  C   UNL     1      16.409   6.791  19.332  0.00  0.00    +0.256 C 
ATOM     26  C   UNL     1      19.293   8.800  21.707  0.00  0.00    +0.120 C 
ATOM     27  C   UNL     1      19.499   7.375  21.222  0.00  0.00    +0.010 A 
ATOM     28  C   UNL     1      18.509   6.679  20.489  0.00  0.00    +0.125 A 
ATOM     29  C   UNL     1      20.923   5.405  21.131  0.00  0.00    +0.030 A 
ATOM     30  C   UNL     1      20.701   6.720  21.535  0.00  0.00    +0.031 A 
ATOM     33  C   UNL     1      18.741   5.356  20.094  0.00  0.00    +0.048 A 
ATOM     34  C   UNL     1      19.944   4.725  20.412  0.00  0.00    +0.027 A 
ATOM     37  H   UNL     1      19.770   9.615  19.896  0.00  0.00    +0.123 HD
ENDROOT
BRANCH  29   9
ATOM      5  O   UNL     1      24.615   3.516  21.821  0.00  0.00    -0.377 OA
ATOM      9  N   UNL     1      22.126   4.768  21.450  0.00  0.00    -0.326 N 
ATOM     31  C   UNL     1      23.371   5.540  21.334  0.00  0.00    +0.133 C 
ATOM     32  C   UNL     1      22.267   3.322  21.241  0.00  0.00    +0.133 C 
ATOM     35  C   UNL     1      24.461   4.889  22.178  0.00  0.00    +0.178 C 
ATOM     36  C   UNL     1      23.416   2.789  22.089  0.00  0.00    +0.178 C 
ENDBRANCH  29   9
BRANCH  10  15
ATOM     15  C   UNL     1      12.971  10.438  21.444  0.00  0.00    +0.100 C 
BRANCH  15  17
ATOM      1  O   UNL     1      11.402   9.372  22.865  0.00  0.00    -0.276 OA
ATOM      3  O   UNL     1      11.580  13.900  24.846  0.00  0.00    -0.377 OA
ATOM      7  N   UNL     1      11.654  11.664  23.132  0.00  0.00    -0.297 N 
ATOM     17  C   UNL     1      11.938  10.435  22.541  0.00  0.00    +0.216 C 
ATOM     21  C   UNL     1      10.667  11.750  24.208  0.00  0.00    +0.136 C 
ATOM     22  C   UNL     1      12.175  12.963  22.688  0.00  0.00    +0.136 C 
ATOM     24  C   UNL     1      11.192  12.617  25.343  0.00  0.00    +0.179 C 
ATOM     25  C   UNL     1      12.635  13.783  23.887  0.00  0.00    +0.179 C 
ENDBRANCH  15  17
ENDBRANCH  10  15
TORSDOF 3
ENDMDL
MODEL 9
REMARK VINA RESULT:      -6.6     31.478     35.380
REMARK  Name = 100630278
REMARK  3 active torsions:
REMARK  status: ('A' for Active; 'I' for Inactive)
REMARK    1  A    between atoms: N_9  and  C_29
REMARK    2  A    between atoms: C_10  and  C_15
REMARK    3  A    between atoms: C_15  and  C_17
REMARK                            x       y       z     vdW  Elec       q    Type
REMARK                         _______ _______ _______ _____ _____    ______ ____
ROOT
ATOM      2  O   UNL     1      -4.330 -12.084  17.327  0.00  0.00    -0.274 OA
ATOM      4  O   UNL     1      -8.349  -9.713  14.801  0.00  0.00    -0.488 OA
ATOM      6  N   UNL     1      -6.121 -11.002  18.316  0.00  0.00    -0.300 N 
ATOM      8  N   UNL     1      -5.536  -9.585  15.531  0.00  0.00    -0.304 NA
ATOM     10  C   UNL     1      -8.949 -11.685  18.507  0.00  0.00    +0.008 C 
ATOM     11  C   UNL     1      -8.417 -10.444  17.729  0.00  0.00    +0.032 C 
ATOM     12  C   UNL     1      -7.829 -12.751  18.584  0.00  0.00    +0.023 C 
ATOM     13  C   UNL     1      -7.112  -9.922  18.359  0.00  0.00    +0.115 C 
ATOM     14  C   UNL     1      -6.505 -12.180  19.098  0.00  0.00    +0.108 C 
ATOM     16  C   UNL     1      -9.427  -9.340  17.568  0.00  0.00    -0.023 C 
ATOM     18  C   UNL     1      -5.027 -11.071  17.455  0.00  0.00    +0.229 C 
ATOM     19  C   UNL     1      -9.915  -8.802  16.436  0.00  0.00    +0.010 C 
ATOM     20  C   UNL     1      -4.645  -9.835  16.660  0.00  0.00    +0.178 C 
ATOM     23  C   UNL     1      -9.600  -9.061  14.985  0.00  0.00    +0.256 C 
ATOM     26  C   UNL     1      -5.710 -10.713  14.619  0.00  0.00    +0.120 C 
ATOM     27  C   UNL     1      -6.543 -10.336  13.406  0.00  0.00    +0.010 A 
ATOM     28  C   UNL     1      -7.867  -9.850  13.523  0.00  0.00    +0.125 A 
ATOM     29  C   UNL     1      -6.725 -10.188  10.985  0.00  0.00    +0.030 A 
ATOM     30  C   UNL     1      -5.989 -10.500  12.126  0.00  0.00    +0.031 A 
ATOM     33  C   UNL     1      -8.598  -9.547  12.369  0.00  0.00    +0.048 A 
ATOM     34  C   UNL     1      -8.027  -9.713  11.107  0.00  0.00    +0.027 A 
ATOM     37  H   UNL     1      -5.182  -8.780  15.012  0.00  0.00    +0.123 HD
ENDROOT
BRANCH  29   9
ATOM      5  O   UNL     1      -4.832 -10.493   7.243  0.00  0.00    -0.377 OA
ATOM      9  N   UNL     1      -6.157 -10.356   9.718  0.00  0.00    -0.326 N 
ATOM     31  C   UNL     1      -4.788 -10.884   9.636  0.00  0.00    +0.133 C 
ATOM     32  C   UNL     1      -6.551  -9.470   8.616  0.00  0.00    +0.133 C 
ATOM     35  C   UNL     1      -4.542 -11.464   8.248  0.00  0.00    +0.178 C 
ATOM     36  C   UNL     1      -6.211 -10.125   7.282  0.00  0.00    +0.178 C 
ENDBRANCH  29   9
BRANCH  10  15
ATOM     15  C   UNL     1      -9.498 -11.377  19.905  0.00  0.00    +0.100 C 
BRANCH  15  17
ATOM      1  O   UNL     1     -10.541 -13.449  20.391  0.00  0.00    -0.276 OA
ATOM      3  O   UNL     1     -14.316 -10.305  20.969  0.00  0.00    -0.377 OA
ATOM      7  N   UNL     1     -11.937 -11.605  20.195  0.00  0.00    -0.297 N 
ATOM     17  C   UNL     1     -10.699 -12.243  20.185  0.00  0.00    +0.216 C 
ATOM     21  C   UNL     1     -13.155 -12.370  20.464  0.00  0.00    +0.136 C 
ATOM     22  C   UNL     1     -12.175 -10.203  19.830  0.00  0.00    +0.136 C 
ATOM     24  C   UNL     1     -14.044 -11.625  21.449  0.00  0.00    +0.179 C 
ATOM     25  C   UNL     1     -13.110  -9.547  20.839  0.00  0.00    +0.179 C 
ENDBRANCH  15  17
ENDBRANCH  10  15
TORSDOF 3
ENDMDL
MODEL 10
REMARK VINA RESULT:      -6.5     31.587     37.028
REMARK  Name = 100630278
REMARK  3 active torsions:
REMARK  status: ('A' for Active; 'I' for Inactive)
REMARK    1  A    between atoms: N_9  and  C_29
REMARK    2  A    between atoms: C_10  and  C_15
REMARK    3  A    between atoms: C_15  and  C_17
REMARK                            x       y       z     vdW  Elec       q    Type
REMARK                         _______ _______ _______ _____ _____    ______ ____
ROOT
ATOM      2  O   UNL     1     -10.824  -8.802  10.360  0.00  0.00    -0.274 OA
ATOM      4  O   UNL     1     -11.050  -8.446  15.649  0.00  0.00    -0.488 OA
ATOM      6  N   UNL     1     -12.682  -8.230  11.616  0.00  0.00    -0.300 N 
ATOM      8  N   UNL     1     -10.903 -10.217  13.346  0.00  0.00    -0.304 NA
ATOM     10  C   UNL     1     -13.323  -5.855  13.180  0.00  0.00    +0.008 C 
ATOM     11  C   UNL     1     -13.131  -7.268  13.807  0.00  0.00    +0.032 C 
ATOM     12  C   UNL     1     -12.547  -5.785  11.843  0.00  0.00    +0.023 C 
ATOM     13  C   UNL     1     -13.528  -8.369  12.805  0.00  0.00    +0.115 C 
ATOM     14  C   UNL     1     -12.866  -6.957  10.913  0.00  0.00    +0.108 C 
ATOM     16  C   UNL     1     -13.826  -7.454  15.129  0.00  0.00    -0.023 C 
ATOM     18  C   UNL     1     -11.623  -9.066  11.266  0.00  0.00    +0.229 C 
ATOM     19  C   UNL     1     -13.294  -7.763  16.325  0.00  0.00    +0.010 C 
ATOM     20  C   UNL     1     -11.458 -10.382  12.005  0.00  0.00    +0.178 C 
ATOM     23  C   UNL     1     -11.879  -8.074  16.744  0.00  0.00    +0.256 C 
ATOM     26  C   UNL     1      -9.654  -9.464  13.411  0.00  0.00    +0.120 C 
ATOM     27  C   UNL     1      -9.076  -9.448  14.817  0.00  0.00    +0.010 A 
ATOM     28  C   UNL     1      -9.791  -8.920  15.918  0.00  0.00    +0.125 A 
ATOM     29  C   UNL     1      -7.202  -9.933  16.290  0.00  0.00    +0.030 A 
ATOM     30  C   UNL     1      -7.780  -9.949  15.022  0.00  0.00    +0.031 A 
ATOM     33  C   UNL     1      -9.196  -8.904  17.185  0.00  0.00    +0.048 A 
ATOM     34  C   UNL     1      -7.910  -9.410  17.368  0.00  0.00    +0.027 A 
ATOM     37  H   UNL     1     -10.764 -11.142  13.754  0.00  0.00    +0.123 HD
ENDROOT
BRANCH  29   9
ATOM      5  O   UNL     1      -3.243 -11.194  16.932  0.00  0.00    -0.377 OA
ATOM      9  N   UNL     1      -5.912 -10.438  16.477  0.00  0.00    -0.326 N 
ATOM     31  C   UNL     1      -5.370 -10.467  17.843  0.00  0.00    +0.133 C 
ATOM     32  C   UNL     1      -4.911 -10.303  15.412  0.00  0.00    +0.133 C 
ATOM     35  C   UNL     1      -4.230 -11.477  17.923  0.00  0.00    +0.178 C 
ATOM     36  C   UNL     1      -3.795 -11.320  15.622  0.00  0.00    +0.178 C 
ENDBRANCH  29   9
BRANCH  10  15
ATOM     15  C   UNL     1     -14.784  -5.438  12.977  0.00  0.00    +0.100 C 
BRANCH  15  17
ATOM      1  O   UNL     1     -14.435  -3.107  13.232  0.00  0.00    -0.276 OA
ATOM      3  O   UNL     1     -15.720  -3.377   8.463  0.00  0.00    -0.377 OA
ATOM      7  N   UNL     1     -15.381  -3.802  11.229  0.00  0.00    -0.297 N 
ATOM     17  C   UNL     1     -14.848  -4.010  12.499  0.00  0.00    +0.216 C 
ATOM     21  C   UNL     1     -15.475  -2.447  10.686  0.00  0.00    +0.136 C 
ATOM     22  C   UNL     1     -15.996  -4.833  10.385  0.00  0.00    +0.136 C 
ATOM     24  C   UNL     1     -14.997  -2.419   9.241  0.00  0.00    +0.179 C 
ATOM     25  C   UNL     1     -15.500  -4.704   8.949  0.00  0.00    +0.179 C 
ENDBRANCH  15  17
ENDBRANCH  10  15
TORSDOF 3
ENDMDL
