MODEL 1
REMARK VINA RESULT:      -7.1      0.000      0.000
REMARK  Name = 51137408
REMARK  5 active torsions:
REMARK  status: ('A' for Active; 'I' for Inactive)
REMARK    1  A    between atoms: N_3  and  C_7
REMARK    2  A    between atoms: C_9  and  C_16
REMARK    3  A    between atoms: C_17  and  C_19
REMARK    4  A    between atoms: C_18  and  C_20
REMARK    5  A    between atoms: C_20  and  C_21
REMARK                            x       y       z     vdW  Elec       q    Type
REMARK                         _______ _______ _______ _____ _____    ______ ____
ROOT
ATOM      3  N   UNL     1      15.162   6.877  19.923  0.00  0.00    -0.299 NA
ATOM      8  C   UNL     1      14.425   7.258  21.129  0.00  0.00    +0.097 C 
ATOM      9  C   UNL     1      12.962   7.202  20.668  0.00  0.00    +0.092 C 
ATOM     10  C   UNL     1      14.506   7.600  18.834  0.00  0.00    +0.085 C 
ATOM     11  C   UNL     1      13.027   7.410  19.144  0.00  0.00    +0.029 C 
ENDROOT
BRANCH   3   7
ATOM      2  O   UNL     1      20.618   5.643  22.476  0.00  0.00    -0.276 OA
ATOM      4  N   UNL     1      19.093   7.074  21.464  0.00  0.00    -0.302 N 
ATOM      7  C   UNL     1      16.587   7.187  20.019  0.00  0.00    +0.060 C 
ATOM     12  C   UNL     1      16.850   8.077  21.240  0.00  0.00    +0.038 C 
ATOM     13  C   UNL     1      17.403   5.892  20.113  0.00  0.00    +0.038 C 
ATOM     14  C   UNL     1      18.347   8.337  21.416  0.00  0.00    +0.109 C 
ATOM     15  C   UNL     1      18.887   6.194  20.311  0.00  0.00    +0.109 C 
ATOM     17  C   UNL     1      19.975   6.695  22.475  0.00  0.00    +0.212 C 
ATOM     19  C   UNL     1      20.130   7.653  23.630  0.00  0.00    +0.109 C 
ENDBRANCH   3   7
BRANCH   9  16
ATOM      1  O   UNL     1      12.693   9.160  22.112  0.00  0.00    -0.424 OA
ATOM      5  N   UNL     1      10.764   8.228  21.472  0.00  0.00    -0.112 NA
ATOM      6  N   UNL     1      10.468   9.313  22.275  0.00  0.00    -0.112 NA
ATOM     16  C   UNL     1      12.073   8.176  21.404  0.00  0.00    +0.222 A 
ATOM     18  C   UNL     1      11.624   9.827  22.626  0.00  0.00    +0.222 A 
BRANCH  18  20
ATOM     20  C   UNL     1      11.913  10.992  23.471  0.00  0.00    +0.132 C 
BRANCH  20  21
ATOM     21  C   UNL     1      11.175  12.266  23.073  0.00  0.00    -0.038 A 
ATOM     22  C   UNL     1      11.282  12.757  21.772  0.00  0.00    +0.004 A 
ATOM     23  C   UNL     1      10.394  12.942  24.010  0.00  0.00    +0.004 A 
ATOM     24  C   UNL     1      10.608  13.923  21.408  0.00  0.00    +0.000 A 
ATOM     25  C   UNL     1       9.719  14.108  23.647  0.00  0.00    +0.000 A 
ATOM     26  C   UNL     1       9.827  14.598  22.346  0.00  0.00    +0.000 A 
ENDBRANCH  20  21
ENDBRANCH  18  20
ENDBRANCH   9  16
TORSDOF 4
ENDMDL
MODEL 2
REMARK VINA RESULT:      -7.1      2.392      7.649
REMARK  Name = 51137408
REMARK  5 active torsions:
REMARK  status: ('A' for Active; 'I' for Inactive)
REMARK    1  A    between atoms: N_3  and  C_7
REMARK    2  A    between atoms: C_9  and  C_16
REMARK    3  A    between atoms: C_17  and  C_19
REMARK    4  A    between atoms: C_18  and  C_20
REMARK    5  A    between atoms: C_20  and  C_21
REMARK                            x       y       z     vdW  Elec       q    Type
REMARK                         _______ _______ _______ _____ _____    ______ ____
ROOT
ATOM      3  N   UNL     1      10.803   9.552  21.727  0.00  0.00    -0.299 NA
ATOM      8  C   UNL     1      11.604   9.616  20.503  0.00  0.00    +0.097 C 
ATOM      9  C   UNL     1      11.719   8.142  20.091  0.00  0.00    +0.092 C 
ATOM     10  C   UNL     1      11.349   8.422  22.477  0.00  0.00    +0.085 C 
ATOM     11  C   UNL     1      11.530   7.357  21.401  0.00  0.00    +0.029 C 
ENDROOT
BRANCH   3   7
ATOM      2  O   UNL     1      14.192  14.044  24.206  0.00  0.00    -0.276 OA
ATOM      4  N   UNL     1      12.299  12.699  24.118  0.00  0.00    -0.302 N 
ATOM      7  C   UNL     1      10.846  10.799  22.488  0.00  0.00    +0.060 C 
ATOM     12  C   UNL     1      11.178  10.508  23.957  0.00  0.00    +0.038 C 
ATOM     13  C   UNL     1      11.887  11.749  21.881  0.00  0.00    +0.038 C 
ATOM     14  C   UNL     1      11.323  11.804  24.754  0.00  0.00    +0.109 C 
ATOM     15  C   UNL     1      12.017  13.021  22.718  0.00  0.00    +0.109 C 
ATOM     17  C   UNL     1      13.405  13.266  24.751  0.00  0.00    +0.212 C 
ATOM     19  C   UNL     1      13.628  12.883  26.193  0.00  0.00    +0.109 C 
ENDBRANCH   3   7
BRANCH   9  16
ATOM      1  O   UNL     1      13.925   7.086  20.001  0.00  0.00    -0.424 OA
ATOM      5  N   UNL     1      13.365   8.187  18.137  0.00  0.00    -0.112 NA
ATOM      6  N   UNL     1      14.622   7.644  17.951  0.00  0.00    -0.112 NA
ATOM     16  C   UNL     1      12.998   7.836  19.347  0.00  0.00    +0.222 A 
ATOM     18  C   UNL     1      14.910   7.010  19.064  0.00  0.00    +0.222 A 
BRANCH  18  20
ATOM     20  C   UNL     1      16.112   6.250  19.424  0.00  0.00    +0.132 C 
BRANCH  20  21
ATOM     21  C   UNL     1      17.106   7.006  20.299  0.00  0.00    -0.038 A 
ATOM     22  C   UNL     1      16.828   8.314  20.700  0.00  0.00    +0.004 A 
ATOM     23  C   UNL     1      18.293   6.393  20.698  0.00  0.00    +0.004 A 
ATOM     24  C   UNL     1      17.737   9.007  21.500  0.00  0.00    +0.000 A 
ATOM     25  C   UNL     1      19.203   7.085  21.497  0.00  0.00    +0.000 A 
ATOM     26  C   UNL     1      18.924   8.392  21.898  0.00  0.00    +0.000 A 
ENDBRANCH  20  21
ENDBRANCH  18  20
ENDBRANCH   9  16
TORSDOF 4
ENDMDL
MODEL 3
REMARK VINA RESULT:      -7.1     27.988     30.968
REMARK  Name = 51137408
REMARK  5 active torsions:
REMARK  status: ('A' for Active; 'I' for Inactive)
REMARK    1  A    between atoms: N_3  and  C_7
REMARK    2  A    between atoms: C_9  and  C_16
REMARK    3  A    between atoms: C_17  and  C_19
REMARK    4  A    between atoms: C_18  and  C_20
REMARK    5  A    between atoms: C_20  and  C_21
REMARK                            x       y       z     vdW  Elec       q    Type
REMARK                         _______ _______ _______ _____ _____    ______ ____
ROOT
ATOM      3  N   UNL     1     -16.395   2.204  28.146  0.00  0.00    -0.299 NA
ATOM      8  C   UNL     1     -16.187   3.244  27.136  0.00  0.00    +0.097 C 
ATOM      9  C   UNL     1     -17.221   2.887  26.060  0.00  0.00    +0.092 C 
ATOM     10  C   UNL     1     -16.550   0.965  27.386  0.00  0.00    +0.085 C 
ATOM     11  C   UNL     1     -17.470   1.380  26.245  0.00  0.00    +0.029 C 
ENDROOT
BRANCH   3   7
ATOM      2  O   UNL     1     -14.592   1.363  33.964  0.00  0.00    -0.276 OA
ATOM      4  N   UNL     1     -14.332   2.256  31.835  0.00  0.00    -0.302 N 
ATOM      7  C   UNL     1     -15.297   2.134  29.108  0.00  0.00    +0.060 C 
ATOM     12  C   UNL     1     -15.165   3.468  29.854  0.00  0.00    +0.038 C 
ATOM     13  C   UNL     1     -15.538   0.987  30.098  0.00  0.00    +0.038 C 
ATOM     14  C   UNL     1     -14.085   3.388  30.933  0.00  0.00    +0.109 C 
ATOM     15  C   UNL     1     -14.450   0.956  31.171  0.00  0.00    +0.109 C 
ATOM     17  C   UNL     1     -14.419   2.335  33.224  0.00  0.00    +0.212 C 
ATOM     19  C   UNL     1     -14.290   3.710  33.832  0.00  0.00    +0.109 C 
ENDBRANCH   3   7
BRANCH   9  16
ATOM      1  O   UNL     1     -16.711   4.628  24.416  0.00  0.00    -0.424 OA
ATOM      5  N   UNL     1     -16.470   2.544  23.641  0.00  0.00    -0.112 NA
ATOM      6  N   UNL     1     -16.152   3.419  22.620  0.00  0.00    -0.112 NA
ATOM     16  C   UNL     1     -16.790   3.293  24.670  0.00  0.00    +0.222 A 
ATOM     18  C   UNL     1     -16.306   4.624  23.117  0.00  0.00    +0.222 A 
BRANCH  18  20
ATOM     20  C   UNL     1     -16.106   5.932  22.481  0.00  0.00    +0.132 C 
BRANCH  20  21
ATOM     21  C   UNL     1     -14.697   6.172  21.947  0.00  0.00    -0.038 A 
ATOM     22  C   UNL     1     -13.658   5.316  22.315  0.00  0.00    +0.004 A 
ATOM     23  C   UNL     1     -14.447   7.246  21.094  0.00  0.00    +0.004 A 
ATOM     24  C   UNL     1     -12.369   5.536  21.828  0.00  0.00    +0.000 A 
ATOM     25  C   UNL     1     -13.159   7.466  20.607  0.00  0.00    +0.000 A 
ATOM     26  C   UNL     1     -12.119   6.611  20.975  0.00  0.00    +0.000 A 
ENDBRANCH  20  21
ENDBRANCH  18  20
ENDBRANCH   9  16
TORSDOF 4
ENDMDL
MODEL 4
REMARK VINA RESULT:      -7.0     26.951     29.581
REMARK  Name = 51137408
REMARK  5 active torsions:
REMARK  status: ('A' for Active; 'I' for Inactive)
REMARK    1  A    between atoms: N_3  and  C_7
REMARK    2  A    between atoms: C_9  and  C_16
REMARK    3  A    between atoms: C_17  and  C_19
REMARK    4  A    between atoms: C_18  and  C_20
REMARK    5  A    between atoms: C_20  and  C_21
REMARK                            x       y       z     vdW  Elec       q    Type
REMARK                         _______ _______ _______ _____ _____    ______ ____
ROOT
ATOM      3  N   UNL     1      -3.850 -11.019  16.069  0.00  0.00    -0.299 NA
ATOM      8  C   UNL     1      -4.213 -10.813  14.665  0.00  0.00    +0.097 C 
ATOM      9  C   UNL     1      -2.952 -11.267  13.916  0.00  0.00    +0.092 C 
ATOM     10  C   UNL     1      -2.478 -10.526  16.181  0.00  0.00    +0.085 C 
ATOM     11  C   UNL     1      -1.811 -11.092  14.933  0.00  0.00    +0.029 C 
ENDROOT
BRANCH   3   7
ATOM      2  O   UNL     1      -8.560 -11.417  20.001  0.00  0.00    -0.276 OA
ATOM      4  N   UNL     1      -7.251 -10.269  18.462  0.00  0.00    -0.302 N 
ATOM      7  C   UNL     1      -4.763 -10.340  16.986  0.00  0.00    +0.060 C 
ATOM     12  C   UNL     1      -6.101 -10.065  16.289  0.00  0.00    +0.038 C 
ATOM     13  C   UNL     1      -4.977 -11.193  18.243  0.00  0.00    +0.038 C 
ATOM     14  C   UNL     1      -7.106  -9.441  17.258  0.00  0.00    +0.109 C 
ATOM     15  C   UNL     1      -6.002 -10.546  19.173  0.00  0.00    +0.109 C 
ATOM     17  C   UNL     1      -8.458 -10.752  18.967  0.00  0.00    +0.212 C 
ATOM     19  C   UNL     1      -9.701 -10.426  18.176  0.00  0.00    +0.109 C 
ENDBRANCH   3   7
BRANCH   9  16
ATOM      1  O   UNL     1      -3.869 -10.271  11.877  0.00  0.00    -0.424 OA
ATOM      5  N   UNL     1      -1.643 -10.121  12.044  0.00  0.00    -0.112 NA
ATOM      6  N   UNL     1      -2.024  -9.523  10.858  0.00  0.00    -0.112 NA
ATOM     16  C   UNL     1      -2.752 -10.542  12.606  0.00  0.00    +0.222 A 
ATOM     18  C   UNL     1      -3.330  -9.634  10.800  0.00  0.00    +0.222 A 
BRANCH  18  20
ATOM     20  C   UNL     1      -4.264  -9.175   9.766  0.00  0.00    +0.132 C 
BRANCH  20  21
ATOM     21  C   UNL     1      -4.573 -10.204   8.683  0.00  0.00    -0.038 A 
ATOM     22  C   UNL     1      -5.250  -9.818   7.527  0.00  0.00    +0.004 A 
ATOM     23  C   UNL     1      -4.180 -11.532   8.850  0.00  0.00    +0.004 A 
ATOM     24  C   UNL     1      -5.533 -10.760   6.537  0.00  0.00    +0.000 A 
ATOM     25  C   UNL     1      -4.462 -12.474   7.861  0.00  0.00    +0.000 A 
ATOM     26  C   UNL     1      -5.139 -12.087   6.704  0.00  0.00    +0.000 A 
ENDBRANCH  20  21
ENDBRANCH  18  20
ENDBRANCH   9  16
TORSDOF 4
ENDMDL
MODEL 5
REMARK VINA RESULT:      -7.0      1.527      2.614
REMARK  Name = 51137408
REMARK  5 active torsions:
REMARK  status: ('A' for Active; 'I' for Inactive)
REMARK    1  A    between atoms: N_3  and  C_7
REMARK    2  A    between atoms: C_9  and  C_16
REMARK    3  A    between atoms: C_17  and  C_19
REMARK    4  A    between atoms: C_18  and  C_20
REMARK    5  A    between atoms: C_20  and  C_21
REMARK                            x       y       z     vdW  Elec       q    Type
REMARK                         _______ _______ _______ _____ _____    ______ ____
ROOT
ATOM      3  N   UNL     1      16.707   7.325  20.075  0.00  0.00    -0.299 NA
ATOM      8  C   UNL     1      15.458   6.589  20.283  0.00  0.00    +0.097 C 
ATOM      9  C   UNL     1      14.413   7.491  19.612  0.00  0.00    +0.092 C 
ATOM     10  C   UNL     1      16.373   8.721  20.355  0.00  0.00    +0.085 C 
ATOM     11  C   UNL     1      15.035   8.898  19.647  0.00  0.00    +0.029 C 
ENDROOT
BRANCH   3   7
ATOM      2  O   UNL     1      22.475   7.998  22.095  0.00  0.00    -0.276 OA
ATOM      4  N   UNL     1      20.607   6.715  21.584  0.00  0.00    -0.302 N 
ATOM      7  C   UNL     1      17.792   6.832  20.921  0.00  0.00    +0.060 C 
ATOM     12  C   UNL     1      18.780   6.011  20.083  0.00  0.00    +0.038 C 
ATOM     13  C   UNL     1      18.509   8.008  21.596  0.00  0.00    +0.038 C 
ATOM     14  C   UNL     1      19.975   5.564  20.927  0.00  0.00    +0.109 C 
ATOM     15  C   UNL     1      19.707   7.522  22.410  0.00  0.00    +0.109 C 
ATOM     17  C   UNL     1      21.959   7.046  21.504  0.00  0.00    +0.212 C 
ATOM     19  C   UNL     1      22.820   6.167  20.631  0.00  0.00    +0.109 C 
ENDBRANCH   3   7
BRANCH   9  16
ATOM      1  O   UNL     1      12.794   8.209  21.302  0.00  0.00    -0.424 OA
ATOM      5  N   UNL     1      12.039   6.603  19.940  0.00  0.00    -0.112 NA
ATOM      6  N   UNL     1      11.033   6.912  20.835  0.00  0.00    -0.112 NA
ATOM     16  C   UNL     1      13.047   7.384  20.249  0.00  0.00    +0.222 A 
ATOM     18  C   UNL     1      11.516   7.853  21.611  0.00  0.00    +0.222 A 
BRANCH  18  20
ATOM     20  C   UNL     1      10.886   8.557  22.734  0.00  0.00    +0.132 C 
BRANCH  20  21
ATOM     21  C   UNL     1      11.064  10.072  22.718  0.00  0.00    -0.038 A 
ATOM     22  C   UNL     1      10.955  10.799  23.903  0.00  0.00    +0.004 A 
ATOM     23  C   UNL     1      11.334  10.730  21.519  0.00  0.00    +0.004 A 
ATOM     24  C   UNL     1      11.117  12.185  23.889  0.00  0.00    +0.000 A 
ATOM     25  C   UNL     1      11.497  12.115  21.504  0.00  0.00    +0.000 A 
ATOM     26  C   UNL     1      11.388  12.843  22.689  0.00  0.00    +0.000 A 
ENDBRANCH  20  21
ENDBRANCH  18  20
ENDBRANCH   9  16
TORSDOF 4
ENDMDL
MODEL 6
REMARK VINA RESULT:      -7.0      2.859      7.303
REMARK  Name = 51137408
REMARK  5 active torsions:
REMARK  status: ('A' for Active; 'I' for Inactive)
REMARK    1  A    between atoms: N_3  and  C_7
REMARK    2  A    between atoms: C_9  and  C_16
REMARK    3  A    between atoms: C_17  and  C_19
REMARK    4  A    between atoms: C_18  and  C_20
REMARK    5  A    between atoms: C_20  and  C_21
REMARK                            x       y       z     vdW  Elec       q    Type
REMARK                         _______ _______ _______ _____ _____    ______ ____
ROOT
ATOM      3  N   UNL     1      11.368  11.309  22.465  0.00  0.00    -0.299 NA
ATOM      8  C   UNL     1      11.971  10.744  21.256  0.00  0.00    +0.097 C 
ATOM      9  C   UNL     1      11.075   9.533  20.961  0.00  0.00    +0.092 C 
ATOM     10  C   UNL     1      11.062  10.156  23.310  0.00  0.00    +0.085 C 
ATOM     11  C   UNL     1      10.462   9.162  22.323  0.00  0.00    +0.029 C 
ENDROOT
BRANCH   3   7
ATOM      2  O   UNL     1      16.467  12.324  25.748  0.00  0.00    -0.276 OA
ATOM      4  N   UNL     1      14.311  12.864  25.069  0.00  0.00    -0.302 N 
ATOM      7  C   UNL     1      12.246  12.270  23.129  0.00  0.00    +0.060 C 
ATOM     12  C   UNL     1      11.949  12.302  24.634  0.00  0.00    +0.038 C 
ATOM     13  C   UNL     1      13.714  11.900  22.880  0.00  0.00    +0.038 C 
ATOM     14  C   UNL     1      12.920  13.229  25.365  0.00  0.00    +0.109 C 
ATOM     15  C   UNL     1      14.649  12.835  23.644  0.00  0.00    +0.109 C 
ATOM     17  C   UNL     1      15.294  12.594  26.020  0.00  0.00    +0.212 C 
ATOM     19  C   UNL     1      14.866  12.641  27.466  0.00  0.00    +0.109 C 
ENDBRANCH   3   7
BRANCH   9  16
ATOM      1  O   UNL     1      12.994   8.725  19.673  0.00  0.00    -0.424 OA
ATOM      5  N   UNL     1      11.484   7.144  20.149  0.00  0.00    -0.112 NA
ATOM      6  N   UNL     1      12.505   6.557  19.426  0.00  0.00    -0.112 NA
ATOM     16  C   UNL     1      11.812   8.410  20.269  0.00  0.00    +0.222 A 
ATOM     18  C   UNL     1      13.364   7.515  19.170  0.00  0.00    +0.222 A 
BRANCH  18  20
ATOM     20  C   UNL     1      14.635   7.463  18.437  0.00  0.00    +0.132 C 
BRANCH  20  21
ATOM     21  C   UNL     1      15.864   7.229  19.309  0.00  0.00    -0.038 A 
ATOM     22  C   UNL     1      16.185   8.137  20.319  0.00  0.00    +0.004 A 
ATOM     23  C   UNL     1      16.668   6.110  19.097  0.00  0.00    +0.004 A 
ATOM     24  C   UNL     1      17.310   7.923  21.117  0.00  0.00    +0.000 A 
ATOM     25  C   UNL     1      17.793   5.896  19.894  0.00  0.00    +0.000 A 
ATOM     26  C   UNL     1      18.113   6.804  20.904  0.00  0.00    +0.000 A 
ENDBRANCH  20  21
ENDBRANCH  18  20
ENDBRANCH   9  16
TORSDOF 4
ENDMDL
MODEL 7
REMARK VINA RESULT:      -7.0     27.105     30.498
REMARK  Name = 51137408
REMARK  5 active torsions:
REMARK  status: ('A' for Active; 'I' for Inactive)
REMARK    1  A    between atoms: N_3  and  C_7
REMARK    2  A    between atoms: C_9  and  C_16
REMARK    3  A    between atoms: C_17  and  C_19
REMARK    4  A    between atoms: C_18  and  C_20
REMARK    5  A    between atoms: C_20  and  C_21
REMARK                            x       y       z     vdW  Elec       q    Type
REMARK                         _______ _______ _______ _____ _____    ______ ____
ROOT
ATOM      3  N   UNL     1     -15.046   4.805  22.389  0.00  0.00    -0.299 NA
ATOM      8  C   UNL     1     -14.876   4.692  23.839  0.00  0.00    +0.097 C 
ATOM      9  C   UNL     1     -15.823   3.541  24.205  0.00  0.00    +0.092 C 
ATOM     10  C   UNL     1     -16.486   4.685  22.167  0.00  0.00    +0.085 C 
ATOM     11  C   UNL     1     -16.875   3.531  23.082  0.00  0.00    +0.029 C 
ENDROOT
BRANCH   3   7
ATOM      2  O   UNL     1     -13.307   8.088  17.489  0.00  0.00    -0.276 OA
ATOM      4  N   UNL     1     -13.194   7.530  19.742  0.00  0.00    -0.302 N 
ATOM      7  C   UNL     1     -14.503   6.055  21.860  0.00  0.00    +0.060 C 
ATOM     12  C   UNL     1     -13.002   5.903  21.586  0.00  0.00    +0.038 C 
ATOM     13  C   UNL     1     -15.246   6.450  20.578  0.00  0.00    +0.038 C 
ATOM     14  C   UNL     1     -12.431   7.167  20.942  0.00  0.00    +0.109 C 
ATOM     15  C   UNL     1     -14.632   7.703  19.956  0.00  0.00    +0.109 C 
ATOM     17  C   UNL     1     -12.650   7.748  18.476  0.00  0.00    +0.212 C 
ATOM     19  C   UNL     1     -11.161   7.546  18.336  0.00  0.00    +0.109 C 
ENDBRANCH   3   7
BRANCH   9  16
ATOM      1  O   UNL     1     -16.450   2.521  26.340  0.00  0.00    -0.424 OA
ATOM      5  N   UNL     1     -16.834   4.722  26.233  0.00  0.00    -0.112 NA
ATOM      6  N   UNL     1     -17.230   4.279  27.481  0.00  0.00    -0.112 NA
ATOM     16  C   UNL     1     -16.386   3.662  25.602  0.00  0.00    +0.222 A 
ATOM     18  C   UNL     1     -16.988   2.989  27.500  0.00  0.00    +0.222 A 
BRANCH  18  20
ATOM     20  C   UNL     1     -17.208   2.011  28.571  0.00  0.00    +0.132 C 
BRANCH  20  21
ATOM     21  C   UNL     1     -15.957   1.630  29.355  0.00  0.00    -0.038 A 
ATOM     22  C   UNL     1     -14.971   2.586  29.601  0.00  0.00    +0.004 A 
ATOM     23  C   UNL     1     -15.795   0.326  29.823  0.00  0.00    +0.004 A 
ATOM     24  C   UNL     1     -13.825   2.238  30.317  0.00  0.00    +0.000 A 
ATOM     25  C   UNL     1     -14.650  -0.022  30.539  0.00  0.00    +0.000 A 
ATOM     26  C   UNL     1     -13.665   0.934  30.786  0.00  0.00    +0.000 A 
ENDBRANCH  20  21
ENDBRANCH  18  20
ENDBRANCH   9  16
TORSDOF 4
ENDMDL
MODEL 8
REMARK VINA RESULT:      -6.9     27.099     29.170
REMARK  Name = 51137408
REMARK  5 active torsions:
REMARK  status: ('A' for Active; 'I' for Inactive)
REMARK    1  A    between atoms: N_3  and  C_7
REMARK    2  A    between atoms: C_9  and  C_16
REMARK    3  A    between atoms: C_17  and  C_19
REMARK    4  A    between atoms: C_18  and  C_20
REMARK    5  A    between atoms: C_20  and  C_21
REMARK                            x       y       z     vdW  Elec       q    Type
REMARK                         _______ _______ _______ _____ _____    ______ ____
ROOT
ATOM      3  N   UNL     1      -3.210 -10.941  10.470  0.00  0.00    -0.299 NA
ATOM      8  C   UNL     1      -2.511 -10.261  11.562  0.00  0.00    +0.097 C 
ATOM      9  C   UNL     1      -2.185 -11.409  12.526  0.00  0.00    +0.092 C 
ATOM     10  C   UNL     1      -4.115 -11.883  11.129  0.00  0.00    +0.085 C 
ATOM     11  C   UNL     1      -3.239 -12.487  12.219  0.00  0.00    +0.029 C 
ENDROOT
BRANCH   3   7
ATOM      2  O   UNL     1      -8.426  -7.980   9.115  0.00  0.00    -0.276 OA
ATOM      4  N   UNL     1      -6.390  -8.937   8.536  0.00  0.00    -0.302 N 
ATOM      7  C   UNL     1      -3.918 -10.009   9.594  0.00  0.00    +0.060 C 
ATOM     12  C   UNL     1      -4.752 -10.782   8.566  0.00  0.00    +0.038 C 
ATOM     13  C   UNL     1      -4.814  -9.083  10.426  0.00  0.00    +0.038 C 
ATOM     14  C   UNL     1      -5.576  -9.829   7.700  0.00  0.00    +0.109 C 
ATOM     15  C   UNL     1      -5.635  -8.164   9.524  0.00  0.00    +0.109 C 
ATOM     17  C   UNL     1      -7.768  -8.762   8.424  0.00  0.00    +0.212 C 
ATOM     19  C   UNL     1      -8.473  -9.598   7.384  0.00  0.00    +0.109 C 
ENDBRANCH   3   7
BRANCH   9  16
ATOM      1  O   UNL     1      -2.974 -11.591  14.836  0.00  0.00    -0.424 OA
ATOM      5  N   UNL     1      -1.375 -10.056  14.538  0.00  0.00    -0.112 NA
ATOM      6  N   UNL     1      -1.725 -10.054  15.875  0.00  0.00    -0.112 NA
ATOM     16  C   UNL     1      -2.129 -10.968  13.970  0.00  0.00    +0.222 A 
ATOM     18  C   UNL     1      -2.661 -10.965  16.004  0.00  0.00    +0.222 A 
BRANCH  18  20
ATOM     20  C   UNL     1      -3.395 -11.390  17.202  0.00  0.00    +0.132 C 
BRANCH  20  21
ATOM     21  C   UNL     1      -4.776 -10.763  17.360  0.00  0.00    -0.038 A 
ATOM     22  C   UNL     1      -5.335 -10.036  16.309  0.00  0.00    +0.004 A 
ATOM     23  C   UNL     1      -5.479 -10.916  18.554  0.00  0.00    +0.004 A 
ATOM     24  C   UNL     1      -6.599  -9.461  16.453  0.00  0.00    +0.000 A 
ATOM     25  C   UNL     1      -6.742 -10.342  18.699  0.00  0.00    +0.000 A 
ATOM     26  C   UNL     1      -7.302  -9.614  17.648  0.00  0.00    +0.000 A 
ENDBRANCH  20  21
ENDBRANCH  18  20
ENDBRANCH   9  16
TORSDOF 4
ENDMDL
MODEL 9
REMARK VINA RESULT:      -6.9      2.845      4.269
REMARK  Name = 51137408
REMARK  5 active torsions:
REMARK  status: ('A' for Active; 'I' for Inactive)
REMARK    1  A    between atoms: N_3  and  C_7
REMARK    2  A    between atoms: C_9  and  C_16
REMARK    3  A    between atoms: C_17  and  C_19
REMARK    4  A    between atoms: C_18  and  C_20
REMARK    5  A    between atoms: C_20  and  C_21
REMARK                            x       y       z     vdW  Elec       q    Type
REMARK                         _______ _______ _______ _____ _____    ______ ____
ROOT
ATOM      3  N   UNL     1      17.740   6.626  21.005  0.00  0.00    -0.299 NA
ATOM      8  C   UNL     1      16.406   7.216  20.872  0.00  0.00    +0.097 C 
ATOM      9  C   UNL     1      15.745   6.330  19.807  0.00  0.00    +0.092 C 
ATOM     10  C   UNL     1      18.169   6.349  19.634  0.00  0.00    +0.085 C 
ATOM     11  C   UNL     1      16.920   5.744  19.004  0.00  0.00    +0.029 C 
ENDROOT
BRANCH   3   7
ATOM      2  O   UNL     1      20.793  11.961  21.167  0.00  0.00    -0.276 OA
ATOM      4  N   UNL     1      20.537   9.715  21.708  0.00  0.00    -0.302 N 
ATOM      7  C   UNL     1      18.670   7.504  21.712  0.00  0.00    +0.060 C 
ATOM     12  C   UNL     1      20.079   7.363  21.123  0.00  0.00    +0.038 C 
ATOM     13  C   UNL     1      18.192   8.958  21.621  0.00  0.00    +0.038 C 
ATOM     14  C   UNL     1      21.050   8.342  21.784  0.00  0.00    +0.109 C 
ATOM     15  C   UNL     1      19.199   9.905  22.273  0.00  0.00    +0.109 C 
ATOM     17  C   UNL     1      21.231  10.807  21.188  0.00  0.00    +0.212 C 
ATOM     19  C   UNL     1      22.602  10.530  20.622  0.00  0.00    +0.109 C 
ENDBRANCH   3   7
BRANCH   9  16
ATOM      1  O   UNL     1      13.544   7.379  19.596  0.00  0.00    -0.424 OA
ATOM      5  N   UNL     1      14.778   7.468  17.733  0.00  0.00    -0.112 NA
ATOM      6  N   UNL     1      13.572   8.092  17.477  0.00  0.00    -0.112 NA
ATOM     16  C   UNL     1      14.717   7.068  18.982  0.00  0.00    +0.222 A 
ATOM     18  C   UNL     1      12.882   8.017  18.592  0.00  0.00    +0.222 A 
BRANCH  18  20
ATOM     20  C   UNL     1      11.536   8.515  18.895  0.00  0.00    +0.132 C 
BRANCH  20  21
ATOM     21  C   UNL     1      11.341   8.992  20.330  0.00  0.00    -0.038 A 
ATOM     22  C   UNL     1      10.710   8.164  21.260  0.00  0.00    +0.004 A 
ATOM     23  C   UNL     1      11.791  10.255  20.713  0.00  0.00    +0.004 A 
ATOM     24  C   UNL     1      10.531   8.601  22.574  0.00  0.00    +0.000 A 
ATOM     25  C   UNL     1      11.612  10.691  22.026  0.00  0.00    +0.000 A 
ATOM     26  C   UNL     1      10.982   9.864  22.956  0.00  0.00    +0.000 A 
ENDBRANCH  20  21
ENDBRANCH  18  20
ENDBRANCH   9  16
TORSDOF 4
ENDMDL
MODEL 10
REMARK VINA RESULT:      -6.7     27.146     29.843
REMARK  Name = 51137408
REMARK  5 active torsions:
REMARK  status: ('A' for Active; 'I' for Inactive)
REMARK    1  A    between atoms: N_3  and  C_7
REMARK    2  A    between atoms: C_9  and  C_16
REMARK    3  A    between atoms: C_17  and  C_19
REMARK    4  A    between atoms: C_18  and  C_20
REMARK    5  A    between atoms: C_20  and  C_21
REMARK                            x       y       z     vdW  Elec       q    Type
REMARK                         _______ _______ _______ _____ _____    ______ ____
ROOT
ATOM      3  N   UNL     1      -6.646 -11.171  18.169  0.00  0.00    -0.299 NA
ATOM      8  C   UNL     1      -5.959 -11.169  16.876  0.00  0.00    +0.097 C 
ATOM      9  C   UNL     1      -4.689 -11.982  17.161  0.00  0.00    +0.092 C 
ATOM     10  C   UNL     1      -5.593 -10.929  19.156  0.00  0.00    +0.085 C 
ATOM     11  C   UNL     1      -4.465 -11.834  18.676  0.00  0.00    +0.029 C 
ENDROOT
BRANCH   3   7
ATOM      2  O   UNL     1     -12.480  -9.669  16.941  0.00  0.00    -0.276 OA
ATOM      4  N   UNL     1     -10.247  -9.137  17.300  0.00  0.00    -0.302 N 
ATOM      7  C   UNL     1      -7.712 -10.174  18.236  0.00  0.00    +0.060 C 
ATOM     12  C   UNL     1      -7.833  -9.442  16.894  0.00  0.00    +0.038 C 
ATOM     13  C   UNL     1      -9.040 -10.848  18.602  0.00  0.00    +0.038 C 
ATOM     14  C   UNL     1      -9.005  -8.460  16.909  0.00  0.00    +0.109 C 
ATOM     15  C   UNL     1     -10.187  -9.838  18.584  0.00  0.00    +0.109 C 
ATOM     17  C   UNL     1     -11.438  -9.121  16.574  0.00  0.00    +0.212 C 
ATOM     19  C   UNL     1     -11.418  -8.381  15.260  0.00  0.00    +0.109 C 
ENDBRANCH   3   7
BRANCH   9  16
ATOM      1  O   UNL     1      -3.403 -12.167  15.087  0.00  0.00    -0.424 OA
ATOM      5  N   UNL     1      -2.568 -10.694  16.548  0.00  0.00    -0.112 NA
ATOM      6  N   UNL     1      -1.753 -10.698  15.432  0.00  0.00    -0.112 NA
ATOM     16  C   UNL     1      -3.518 -11.567  16.302  0.00  0.00    +0.222 A 
ATOM     18  C   UNL     1      -2.277 -11.572  14.605  0.00  0.00    +0.222 A 
BRANCH  18  20
ATOM     20  C   UNL     1      -1.830 -11.981  13.269  0.00  0.00    +0.132 C 
BRANCH  20  21
ATOM     21  C   UNL     1      -2.362 -11.121  12.127  0.00  0.00    -0.038 A 
ATOM     22  C   UNL     1      -3.521 -11.500  11.450  0.00  0.00    +0.004 A 
ATOM     23  C   UNL     1      -1.689  -9.956  11.759  0.00  0.00    +0.004 A 
ATOM     24  C   UNL     1      -4.007 -10.714  10.405  0.00  0.00    +0.000 A 
ATOM     25  C   UNL     1      -2.175  -9.169  10.715  0.00  0.00    +0.000 A 
ATOM     26  C   UNL     1      -3.334  -9.549  10.038  0.00  0.00    +0.000 A 
ENDBRANCH  20  21
ENDBRANCH  18  20
ENDBRANCH   9  16
TORSDOF 4
ENDMDL
