MODEL 1
REMARK VINA RESULT:      -7.5      0.000      0.000
REMARK  Name = 25388788
REMARK  9 active torsions:
REMARK  status: ('A' for Active; 'I' for Inactive)
REMARK    1  A    between atoms: N_6  and  C_15
REMARK    2  A    between atoms: N_6  and  C_17
REMARK    3  A    between atoms: N_6  and  C_18
REMARK    4  A    between atoms: N_7  and  C_16
REMARK    5  A    between atoms: C_9  and  C_15
REMARK    6  A    between atoms: C_10  and  C_16
REMARK    7  A    between atoms: C_17  and  C_20
REMARK    8  A    between atoms: C_19  and  C_21
REMARK    9  A    between atoms: C_31  and  C_32
REMARK                            x       y       z     vdW  Elec       q    Type
REMARK                         _______ _______ _______ _____ _____    ______ ____
ROOT
ATOM      5  N   UNL     1     -16.333   3.862  27.295  0.00  0.00    -0.298 NA
ATOM      8  C   UNL     1     -17.984   2.359  28.631  0.00  0.00    -0.003 C 
ATOM      9  C   UNL     1     -16.548   2.230  29.187  0.00  0.00    +0.020 C 
ATOM     10  C   UNL     1     -17.106   3.001  26.362  0.00  0.00    +0.074 C 
ATOM     11  C   UNL     1     -17.986   1.993  27.135  0.00  0.00    +0.024 C 
ATOM     12  C   UNL     1     -15.591   3.027  28.271  0.00  0.00    +0.089 C 
ATOM     13  C   UNL     1     -18.373   3.846  28.737  0.00  0.00    +0.019 C 
ATOM     14  C   UNL     1     -17.297   4.702  28.046  0.00  0.00    +0.085 C 
ENDROOT
BRANCH   9  15
ATOM     15  C   UNL     1     -16.093   0.782  29.351  0.00  0.00    +0.089 C 
BRANCH  15   6
ATOM      6  N   UNL     1     -14.790   0.716  29.941  0.00  0.00    -0.301 NA
ATOM     18  C   UNL     1     -14.020  -0.430  29.425  0.00  0.00    +0.105 C 
BRANCH   6  17
ATOM     17  C   UNL     1     -14.862   0.631  31.410  0.00  0.00    +0.119 C 
BRANCH  17  20
ATOM     20  C   UNL     1     -14.532   1.945  32.064  0.00  0.00    -0.033 A 
ATOM     22  C   UNL     1     -15.175   2.319  33.244  0.00  0.00    +0.005 A 
ATOM     23  C   UNL     1     -13.584   2.792  31.489  0.00  0.00    +0.005 A 
ATOM     26  C   UNL     1     -14.869   3.538  33.850  0.00  0.00    +0.000 A 
ATOM     27  C   UNL     1     -13.277   4.010  32.094  0.00  0.00    +0.000 A 
ATOM     28  C   UNL     1     -13.920   4.383  33.275  0.00  0.00    +0.000 A 
ENDBRANCH  17  20
ENDBRANCH   6  17
ENDBRANCH  15   6
ENDBRANCH   9  15
BRANCH  10  16
ATOM     16  C   UNL     1     -16.212   2.302  25.335  0.00  0.00    +0.123 C 
BRANCH  16   7
ATOM      4  O   UNL     1     -16.880   3.298  22.725  0.00  0.00    -0.270 OA
ATOM      7  N   UNL     1     -15.472   3.258  24.569  0.00  0.00    -0.310 N 
ATOM     19  C   UNL     1     -15.869   3.687  23.305  0.00  0.00    +0.244 C 
ATOM     33  H   UNL     1     -14.593   3.576  24.964  0.00  0.00    +0.149 HD
BRANCH  19  21
ATOM     21  C   UNL     1     -14.977   4.664  22.629  0.00  0.00    +0.037 A 
ATOM     24  C   UNL     1     -15.519   5.648  21.802  0.00  0.00    +0.013 A 
ATOM     25  C   UNL     1     -13.597   4.598  22.821  0.00  0.00    +0.013 A 
ATOM     29  C   UNL     1     -14.681   6.566  21.167  0.00  0.00    +0.013 A 
ATOM     30  C   UNL     1     -12.759   5.515  22.186  0.00  0.00    +0.013 A 
ATOM     31  C   UNL     1     -13.301   6.498  21.359  0.00  0.00    +0.055 A 
BRANCH  31  32
ATOM      1  F   UNL     1     -12.598   7.554  19.331  0.00  0.00    -0.166 F 
ATOM      2  F   UNL     1     -11.083   7.184  20.846  0.00  0.00    -0.166 F 
ATOM      3  F   UNL     1     -12.554   8.759  21.133  0.00  0.00    -0.166 F 
ATOM     32  C   UNL     1     -12.405   7.479  20.681  0.00  0.00    +0.417 C 
ENDBRANCH  31  32
ENDBRANCH  19  21
ENDBRANCH  16   7
ENDBRANCH  10  16
TORSDOF 8
ENDMDL
MODEL 2
REMARK VINA RESULT:      -7.5     31.013     35.321
REMARK  Name = 25388788
REMARK  9 active torsions:
REMARK  status: ('A' for Active; 'I' for Inactive)
REMARK    1  A    between atoms: N_6  and  C_15
REMARK    2  A    between atoms: N_6  and  C_17
REMARK    3  A    between atoms: N_6  and  C_18
REMARK    4  A    between atoms: N_7  and  C_16
REMARK    5  A    between atoms: C_9  and  C_15
REMARK    6  A    between atoms: C_10  and  C_16
REMARK    7  A    between atoms: C_17  and  C_20
REMARK    8  A    between atoms: C_19  and  C_21
REMARK    9  A    between atoms: C_31  and  C_32
REMARK                            x       y       z     vdW  Elec       q    Type
REMARK                         _______ _______ _______ _____ _____    ______ ____
ROOT
ATOM      5  N   UNL     1      14.771   9.921   3.207  0.00  0.00    -0.298 NA
ATOM      8  C   UNL     1      15.450   7.475   3.782  0.00  0.00    -0.003 C 
ATOM      9  C   UNL     1      14.139   7.506   2.964  0.00  0.00    +0.020 C 
ATOM     10  C   UNL     1      15.015   9.790   4.668  0.00  0.00    +0.074 C 
ATOM     11  C   UNL     1      15.274   8.317   5.060  0.00  0.00    +0.024 C 
ATOM     12  C   UNL     1      13.709   8.979   2.776  0.00  0.00    +0.089 C 
ATOM     13  C   UNL     1      16.528   8.166   2.925  0.00  0.00    +0.019 C 
ATOM     14  C   UNL     1      16.024   9.558   2.501  0.00  0.00    +0.085 C 
ENDROOT
BRANCH   9  15
ATOM     15  C   UNL     1      13.023   6.669   3.583  0.00  0.00    +0.089 C 
BRANCH  15   6
ATOM      6  N   UNL     1      12.421   5.812   2.606  0.00  0.00    -0.301 NA
ATOM     18  C   UNL     1      13.275   5.668   1.414  0.00  0.00    +0.105 C 
BRANCH   6  17
ATOM     17  C   UNL     1      11.094   6.304   2.196  0.00  0.00    +0.119 C 
BRANCH  17  20
ATOM     20  C   UNL     1      10.093   6.214   3.317  0.00  0.00    -0.033 A 
ATOM     22  C   UNL     1      10.051   5.078   4.126  0.00  0.00    +0.005 A 
ATOM     23  C   UNL     1       9.207   7.266   3.547  0.00  0.00    +0.005 A 
ATOM     26  C   UNL     1       9.123   4.994   5.164  0.00  0.00    +0.000 A 
ATOM     27  C   UNL     1       8.280   7.183   4.586  0.00  0.00    +0.000 A 
ATOM     28  C   UNL     1       8.238   6.047   5.394  0.00  0.00    +0.000 A 
ENDBRANCH  17  20
ENDBRANCH   6  17
ENDBRANCH  15   6
ENDBRANCH   9  15
BRANCH  10  16
ATOM     16  C   UNL     1      13.895  10.411   5.505  0.00  0.00    +0.123 C 
BRANCH  16   7
ATOM      4  O   UNL     1      11.138   9.672   5.186  0.00  0.00    -0.270 OA
ATOM      7  N   UNL     1      13.188   9.406   6.239  0.00  0.00    -0.310 N 
ATOM     19  C   UNL     1      11.845   9.111   6.019  0.00  0.00    +0.244 C 
ATOM     33  H   UNL     1      13.698   8.945   6.986  0.00  0.00    +0.149 HD
BRANCH  19  21
ATOM     21  C   UNL     1      11.251   8.058   6.883  0.00  0.00    +0.037 A 
ATOM     24  C   UNL     1      11.878   6.817   7.000  0.00  0.00    +0.013 A 
ATOM     25  C   UNL     1      10.067   8.309   7.575  0.00  0.00    +0.013 A 
ATOM     29  C   UNL     1      11.321   5.827   7.811  0.00  0.00    +0.013 A 
ATOM     30  C   UNL     1       9.510   7.319   8.385  0.00  0.00    +0.013 A 
ATOM     31  C   UNL     1      10.136   6.079   8.503  0.00  0.00    +0.055 A 
BRANCH  31  32
ATOM      1  F   UNL     1       9.457   3.800   8.765  0.00  0.00    -0.166 F 
ATOM      2  F   UNL     1       8.269   5.321   9.766  0.00  0.00    -0.166 F 
ATOM      3  F   UNL     1      10.240   4.800  10.522  0.00  0.00    -0.166 F 
ATOM     32  C   UNL     1       9.541   5.022   9.370  0.00  0.00    +0.417 C 
ENDBRANCH  31  32
ENDBRANCH  19  21
ENDBRANCH  16   7
ENDBRANCH  10  16
TORSDOF 8
ENDMDL
MODEL 3
REMARK VINA RESULT:      -7.3     20.192     22.856
REMARK  Name = 25388788
REMARK  9 active torsions:
REMARK  status: ('A' for Active; 'I' for Inactive)
REMARK    1  A    between atoms: N_6  and  C_15
REMARK    2  A    between atoms: N_6  and  C_17
REMARK    3  A    between atoms: N_6  and  C_18
REMARK    4  A    between atoms: N_7  and  C_16
REMARK    5  A    between atoms: C_9  and  C_15
REMARK    6  A    between atoms: C_10  and  C_16
REMARK    7  A    between atoms: C_17  and  C_20
REMARK    8  A    between atoms: C_19  and  C_21
REMARK    9  A    between atoms: C_31  and  C_32
REMARK                            x       y       z     vdW  Elec       q    Type
REMARK                         _______ _______ _______ _____ _____    ______ ____
ROOT
ATOM      5  N   UNL     1      -5.760  -9.579   9.961  0.00  0.00    -0.298 NA
ATOM      8  C   UNL     1      -3.650 -10.534  11.147  0.00  0.00    -0.003 C 
ATOM      9  C   UNL     1      -4.501 -11.670  10.535  0.00  0.00    +0.020 C 
ATOM     10  C   UNL     1      -5.674  -9.054  11.350  0.00  0.00    +0.074 C 
ATOM     11  C   UNL     1      -4.516  -9.720  12.127  0.00  0.00    +0.024 C 
ATOM     12  C   UNL     1      -5.806 -11.061   9.973  0.00  0.00    +0.089 C 
ATOM     13  C   UNL     1      -3.261  -9.594   9.991  0.00  0.00    +0.019 C 
ATOM     14  C   UNL     1      -4.533  -9.161   9.239  0.00  0.00    +0.085 C 
ENDROOT
BRANCH   9  15
ATOM     15  C   UNL     1      -4.786 -12.805  11.515  0.00  0.00    +0.089 C 
BRANCH  15   6
ATOM      6  N   UNL     1      -3.583 -13.246  12.155  0.00  0.00    -0.301 NA
ATOM     18  C   UNL     1      -3.020 -14.434  11.489  0.00  0.00    +0.105 C 
BRANCH   6  17
ATOM     17  C   UNL     1      -3.805 -13.548  13.580  0.00  0.00    +0.119 C 
BRANCH  17  20
ATOM     20  C   UNL     1      -3.205 -12.497  14.475  0.00  0.00    -0.033 A 
ATOM     22  C   UNL     1      -3.958 -11.953  15.516  0.00  0.00    +0.005 A 
ATOM     23  C   UNL     1      -1.895 -12.066  14.263  0.00  0.00    +0.005 A 
ATOM     26  C   UNL     1      -3.401 -10.979  16.345  0.00  0.00    +0.000 A 
ATOM     27  C   UNL     1      -1.338 -11.093  15.092  0.00  0.00    +0.000 A 
ATOM     28  C   UNL     1      -2.091 -10.549  16.133  0.00  0.00    +0.000 A 
ENDBRANCH  17  20
ENDBRANCH   6  17
ENDBRANCH  15   6
ENDBRANCH   9  15
BRANCH  10  16
ATOM     16  C   UNL     1      -7.002  -9.172  12.102  0.00  0.00    +0.123 C 
BRANCH  16   7
ATOM      4  O   UNL     1      -8.880 -10.493  13.827  0.00  0.00    -0.270 OA
ATOM      7  N   UNL     1      -6.786  -9.560  13.462  0.00  0.00    -0.310 N 
ATOM     19  C   UNL     1      -7.757 -10.200  14.230  0.00  0.00    +0.244 C 
ATOM     33  H   UNL     1      -5.900  -9.293  13.877  0.00  0.00    +0.149 HD
BRANCH  19  21
ATOM     21  C   UNL     1      -7.385 -10.514  15.634  0.00  0.00    +0.037 A 
ATOM     24  C   UNL     1      -6.894  -9.508  16.466  0.00  0.00    +0.013 A 
ATOM     25  C   UNL     1      -7.525 -11.814  16.119  0.00  0.00    +0.013 A 
ATOM     29  C   UNL     1      -6.544  -9.802  17.785  0.00  0.00    +0.013 A 
ATOM     30  C   UNL     1      -7.175 -12.108  17.437  0.00  0.00    +0.013 A 
ATOM     31  C   UNL     1      -6.684 -11.102  18.269  0.00  0.00    +0.055 A 
BRANCH  31  32
ATOM      1  F   UNL     1      -7.169 -12.286  20.291  0.00  0.00    -0.166 F 
ATOM      2  F   UNL     1      -6.283 -10.309  20.475  0.00  0.00    -0.166 F 
ATOM      3  F   UNL     1      -5.078 -11.989  19.804  0.00  0.00    -0.166 F 
ATOM     32  C   UNL     1      -6.311 -11.417  19.679  0.00  0.00    +0.417 C 
ENDBRANCH  31  32
ENDBRANCH  19  21
ENDBRANCH  16   7
ENDBRANCH  10  16
TORSDOF 8
ENDMDL
MODEL 4
REMARK VINA RESULT:      -7.2     32.277     35.277
REMARK  Name = 25388788
REMARK  9 active torsions:
REMARK  status: ('A' for Active; 'I' for Inactive)
REMARK    1  A    between atoms: N_6  and  C_15
REMARK    2  A    between atoms: N_6  and  C_17
REMARK    3  A    between atoms: N_6  and  C_18
REMARK    4  A    between atoms: N_7  and  C_16
REMARK    5  A    between atoms: C_9  and  C_15
REMARK    6  A    between atoms: C_10  and  C_16
REMARK    7  A    between atoms: C_17  and  C_20
REMARK    8  A    between atoms: C_19  and  C_21
REMARK    9  A    between atoms: C_31  and  C_32
REMARK                            x       y       z     vdW  Elec       q    Type
REMARK                         _______ _______ _______ _____ _____    ______ ____
ROOT
ATOM      5  N   UNL     1      19.914   7.848  22.031  0.00  0.00    -0.298 NA
ATOM      8  C   UNL     1      21.845   6.220  22.659  0.00  0.00    -0.003 C 
ATOM      9  C   UNL     1      22.347   7.332  21.710  0.00  0.00    +0.020 C 
ATOM     10  C   UNL     1      19.502   6.443  21.767  0.00  0.00    +0.074 C 
ATOM     11  C   UNL     1      20.680   5.467  21.989  0.00  0.00    +0.024 C 
ATOM     12  C   UNL     1      21.136   8.179  21.258  0.00  0.00    +0.089 C 
ATOM     13  C   UNL     1      21.278   6.921  23.908  0.00  0.00    +0.019 C 
ATOM     14  C   UNL     1      20.235   7.967  23.474  0.00  0.00    +0.085 C 
ENDROOT
BRANCH   9  15
ATOM     15  C   UNL     1      23.136   6.796  20.518  0.00  0.00    +0.089 C 
BRANCH  15   6
ATOM      6  N   UNL     1      24.231   5.981  20.951  0.00  0.00    -0.301 NA
ATOM     18  C   UNL     1      25.513   6.701  20.854  0.00  0.00    +0.105 C 
BRANCH   6  17
ATOM     17  C   UNL     1      24.317   4.731  20.175  0.00  0.00    +0.119 C 
BRANCH  17  20
ATOM     20  C   UNL     1      24.305   3.518  21.066  0.00  0.00    -0.033 A 
ATOM     22  C   UNL     1      24.355   3.669  22.452  0.00  0.00    +0.005 A 
ATOM     23  C   UNL     1      24.244   2.242  20.506  0.00  0.00    +0.005 A 
ATOM     26  C   UNL     1      24.344   2.544  23.278  0.00  0.00    +0.000 A 
ATOM     27  C   UNL     1      24.232   1.118  21.330  0.00  0.00    +0.000 A 
ATOM     28  C   UNL     1      24.283   1.269  22.717  0.00  0.00    +0.000 A 
ENDBRANCH  17  20
ENDBRANCH   6  17
ENDBRANCH  15   6
ENDBRANCH   9  15
BRANCH  10  16
ATOM     16  C   UNL     1      18.874   6.269  20.383  0.00  0.00    +0.123 C 
BRANCH  16   7
ATOM      4  O   UNL     1      16.831   5.529  18.505  0.00  0.00    -0.270 OA
ATOM      7  N   UNL     1      17.514   6.714  20.380  0.00  0.00    -0.310 N 
ATOM     19  C   UNL     1      16.585   6.303  19.427  0.00  0.00    +0.244 C 
ATOM     33  H   UNL     1      17.259   7.404  21.079  0.00  0.00    +0.149 HD
BRANCH  19  21
ATOM     21  C   UNL     1      15.220   6.877  19.547  0.00  0.00    +0.037 A 
ATOM     24  C   UNL     1      14.470   6.657  20.703  0.00  0.00    +0.013 A 
ATOM     25  C   UNL     1      14.686   7.634  18.504  0.00  0.00    +0.013 A 
ATOM     29  C   UNL     1      13.188   7.195  20.817  0.00  0.00    +0.013 A 
ATOM     30  C   UNL     1      13.404   8.172  18.617  0.00  0.00    +0.013 A 
ATOM     31  C   UNL     1      12.655   7.952  19.773  0.00  0.00    +0.055 A 
BRANCH  31  32
ATOM      1  F   UNL     1      10.628   8.634  18.701  0.00  0.00    -0.166 F 
ATOM      2  F   UNL     1      11.289   9.787  20.422  0.00  0.00    -0.166 F 
ATOM      3  F   UNL     1      10.453   7.799  20.694  0.00  0.00    -0.166 F 
ATOM     32  C   UNL     1      11.285   8.528  19.894  0.00  0.00    +0.417 C 
ENDBRANCH  31  32
ENDBRANCH  19  21
ENDBRANCH  16   7
ENDBRANCH  10  16
TORSDOF 8
ENDMDL
MODEL 5
REMARK VINA RESULT:      -7.2     20.699     23.055
REMARK  Name = 25388788
REMARK  9 active torsions:
REMARK  status: ('A' for Active; 'I' for Inactive)
REMARK    1  A    between atoms: N_6  and  C_15
REMARK    2  A    between atoms: N_6  and  C_17
REMARK    3  A    between atoms: N_6  and  C_18
REMARK    4  A    between atoms: N_7  and  C_16
REMARK    5  A    between atoms: C_9  and  C_15
REMARK    6  A    between atoms: C_10  and  C_16
REMARK    7  A    between atoms: C_17  and  C_20
REMARK    8  A    between atoms: C_19  and  C_21
REMARK    9  A    between atoms: C_31  and  C_32
REMARK                            x       y       z     vdW  Elec       q    Type
REMARK                         _______ _______ _______ _____ _____    ______ ____
ROOT
ATOM      5  N   UNL     1      -4.362 -11.542  17.999  0.00  0.00    -0.298 NA
ATOM      8  C   UNL     1      -6.490 -10.832  16.681  0.00  0.00    -0.003 C 
ATOM      9  C   UNL     1      -6.346 -12.371  16.710  0.00  0.00    +0.020 C 
ATOM     10  C   UNL     1      -4.006 -10.540  16.958  0.00  0.00    +0.074 C 
ATOM     11  C   UNL     1      -5.223 -10.213  16.063  0.00  0.00    +0.024 C 
ATOM     12  C   UNL     1      -4.998 -12.728  17.377  0.00  0.00    +0.089 C 
ATOM     13  C   UNL     1      -6.560 -10.362  18.147  0.00  0.00    +0.019 C 
ATOM     14  C   UNL     1      -5.347 -10.917  18.916  0.00  0.00    +0.085 C 
ENDROOT
BRANCH   9  15
ATOM     15  C   UNL     1      -6.481 -13.015  15.333  0.00  0.00    +0.089 C 
BRANCH  15   6
ATOM      6  N   UNL     1      -7.489 -12.359  14.556  0.00  0.00    -0.301 NA
ATOM     18  C   UNL     1      -8.843 -12.765  14.972  0.00  0.00    +0.105 C 
BRANCH   6  17
ATOM     17  C   UNL     1      -7.324 -12.627  13.116  0.00  0.00    +0.119 C 
BRANCH  17  20
ATOM     20  C   UNL     1      -7.160 -11.356  12.326  0.00  0.00    -0.033 A 
ATOM     22  C   UNL     1      -7.566 -11.307  10.992  0.00  0.00    +0.005 A 
ATOM     23  C   UNL     1      -6.601 -10.229  12.927  0.00  0.00    +0.005 A 
ATOM     26  C   UNL     1      -7.414 -10.129  10.259  0.00  0.00    +0.000 A 
ATOM     27  C   UNL     1      -6.449  -9.051  12.195  0.00  0.00    +0.000 A 
ATOM     28  C   UNL     1      -6.855  -9.001  10.861  0.00  0.00    +0.000 A 
ENDBRANCH  17  20
ENDBRANCH   6  17
ENDBRANCH  15   6
ENDBRANCH   9  15
BRANCH  10  16
ATOM     16  C   UNL     1      -2.791 -10.965  16.132  0.00  0.00    +0.123 C 
BRANCH  16   7
ATOM      4  O   UNL     1      -1.523  -9.856  13.805  0.00  0.00    -0.270 OA
ATOM      7  N   UNL     1      -3.156 -11.194  14.767  0.00  0.00    -0.310 N 
ATOM     19  C   UNL     1      -2.484 -10.613  13.694  0.00  0.00    +0.244 C 
ATOM     33  H   UNL     1      -3.982 -11.762  14.606  0.00  0.00    +0.149 HD
BRANCH  19  21
ATOM     21  C   UNL     1      -3.004 -10.931  12.340  0.00  0.00    +0.037 A 
ATOM     24  C   UNL     1      -3.023  -9.948  11.351  0.00  0.00    +0.013 A 
ATOM     25  C   UNL     1      -3.475 -12.214  12.057  0.00  0.00    +0.013 A 
ATOM     29  C   UNL     1      -3.511 -10.246  10.078  0.00  0.00    +0.013 A 
ATOM     30  C   UNL     1      -3.964 -12.512  10.785  0.00  0.00    +0.013 A 
ATOM     31  C   UNL     1      -3.983 -11.528   9.796  0.00  0.00    +0.055 A 
BRANCH  31  32
ATOM      1  F   UNL     1      -4.629 -10.755   7.626  0.00  0.00    -0.166 F 
ATOM      2  F   UNL     1      -5.743 -12.420   8.470  0.00  0.00    -0.166 F 
ATOM      3  F   UNL     1      -3.718 -12.719   7.739  0.00  0.00    -0.166 F 
ATOM     32  C   UNL     1      -4.505 -11.848   8.436  0.00  0.00    +0.417 C 
ENDBRANCH  31  32
ENDBRANCH  19  21
ENDBRANCH  16   7
ENDBRANCH  10  16
TORSDOF 8
ENDMDL
MODEL 6
REMARK VINA RESULT:      -7.2      6.883     10.799
REMARK  Name = 25388788
REMARK  9 active torsions:
REMARK  status: ('A' for Active; 'I' for Inactive)
REMARK    1  A    between atoms: N_6  and  C_15
REMARK    2  A    between atoms: N_6  and  C_17
REMARK    3  A    between atoms: N_6  and  C_18
REMARK    4  A    between atoms: N_7  and  C_16
REMARK    5  A    between atoms: C_9  and  C_15
REMARK    6  A    between atoms: C_10  and  C_16
REMARK    7  A    between atoms: C_17  and  C_20
REMARK    8  A    between atoms: C_19  and  C_21
REMARK    9  A    between atoms: C_31  and  C_32
REMARK                            x       y       z     vdW  Elec       q    Type
REMARK                         _______ _______ _______ _____ _____    ______ ____
ROOT
ATOM      5  N   UNL     1     -12.666   9.732  34.137  0.00  0.00    -0.298 NA
ATOM      8  C   UNL     1     -11.870   9.470  31.673  0.00  0.00    -0.003 C 
ATOM      9  C   UNL     1     -13.029  10.488  31.773  0.00  0.00    +0.020 C 
ATOM     10  C   UNL     1     -12.651   8.294  33.756  0.00  0.00    +0.074 C 
ATOM     11  C   UNL     1     -12.327   8.119  32.256  0.00  0.00    +0.024 C 
ATOM     12  C   UNL     1     -13.554  10.496  33.227  0.00  0.00    +0.089 C 
ATOM     13  C   UNL     1     -10.735   9.994  32.572  0.00  0.00    +0.019 C 
ATOM     14  C   UNL     1     -11.288  10.259  33.985  0.00  0.00    +0.085 C 
ENDROOT
BRANCH   9  15
ATOM     15  C   UNL     1     -14.150  10.225  30.771  0.00  0.00    +0.089 C 
BRANCH  15   6
ATOM      6  N   UNL     1     -14.023  11.073  29.624  0.00  0.00    -0.301 NA
ATOM     18  C   UNL     1     -15.036  12.144  29.628  0.00  0.00    +0.105 C 
BRANCH   6  17
ATOM     17  C   UNL     1     -14.130  10.308  28.369  0.00  0.00    +0.119 C 
BRANCH  17  20
ATOM     20  C   UNL     1     -12.877  10.411  27.543  0.00  0.00    -0.033 A 
ATOM     22  C   UNL     1     -11.666   9.937  28.049  0.00  0.00    +0.005 A 
ATOM     23  C   UNL     1     -12.924  10.981  26.270  0.00  0.00    +0.005 A 
ATOM     26  C   UNL     1     -10.504  10.033  27.282  0.00  0.00    +0.000 A 
ATOM     27  C   UNL     1     -11.763  11.076  25.504  0.00  0.00    +0.000 A 
ATOM     28  C   UNL     1     -10.553  10.602  26.010  0.00  0.00    +0.000 A 
ENDBRANCH  17  20
ENDBRANCH   6  17
ENDBRANCH  15   6
ENDBRANCH   9  15
BRANCH  10  16
ATOM     16  C   UNL     1     -13.944   7.574  34.146  0.00  0.00    +0.123 C 
BRANCH  16   7
ATOM      4  O   UNL     1     -13.955   4.964  35.344  0.00  0.00    -0.270 OA
ATOM      7  N   UNL     1     -14.056   6.321  33.464  0.00  0.00    -0.310 N 
ATOM     19  C   UNL     1     -14.052   5.095  34.126  0.00  0.00    +0.244 C 
ATOM     33  H   UNL     1     -14.078   6.355  32.450  0.00  0.00    +0.149 HD
BRANCH  19  21
ATOM     21  C   UNL     1     -14.150   3.884  33.272  0.00  0.00    +0.037 A 
ATOM     24  C   UNL     1     -14.782   2.739  33.755  0.00  0.00    +0.013 A 
ATOM     25  C   UNL     1     -13.608   3.891  31.986  0.00  0.00    +0.013 A 
ATOM     29  C   UNL     1     -14.874   1.600  32.953  0.00  0.00    +0.013 A 
ATOM     30  C   UNL     1     -13.699   2.753  31.185  0.00  0.00    +0.013 A 
ATOM     31  C   UNL     1     -14.331   1.608  31.668  0.00  0.00    +0.055 A 
BRANCH  31  32
ATOM      1  F   UNL     1     -14.820  -0.727  31.489  0.00  0.00    -0.166 F 
ATOM      2  F   UNL     1     -13.242   0.067  30.222  0.00  0.00    -0.166 F 
ATOM      3  F   UNL     1     -15.324   0.516  29.786  0.00  0.00    -0.166 F 
ATOM     32  C   UNL     1     -14.430   0.392  30.810  0.00  0.00    +0.417 C 
ENDBRANCH  31  32
ENDBRANCH  19  21
ENDBRANCH  16   7
ENDBRANCH  10  16
TORSDOF 8
ENDMDL
MODEL 7
REMARK VINA RESULT:      -7.1     32.385     36.667
REMARK  Name = 25388788
REMARK  9 active torsions:
REMARK  status: ('A' for Active; 'I' for Inactive)
REMARK    1  A    between atoms: N_6  and  C_15
REMARK    2  A    between atoms: N_6  and  C_17
REMARK    3  A    between atoms: N_6  and  C_18
REMARK    4  A    between atoms: N_7  and  C_16
REMARK    5  A    between atoms: C_9  and  C_15
REMARK    6  A    between atoms: C_10  and  C_16
REMARK    7  A    between atoms: C_17  and  C_20
REMARK    8  A    between atoms: C_19  and  C_21
REMARK    9  A    between atoms: C_31  and  C_32
REMARK                            x       y       z     vdW  Elec       q    Type
REMARK                         _______ _______ _______ _____ _____    ______ ____
ROOT
ATOM      5  N   UNL     1      14.410   8.631   6.046  0.00  0.00    -0.298 NA
ATOM      8  C   UNL     1      11.885   8.441   5.445  0.00  0.00    -0.003 C 
ATOM      9  C   UNL     1      12.206   7.649   6.733  0.00  0.00    +0.020 C 
ATOM     10  C   UNL     1      14.254   8.190   4.635  0.00  0.00    +0.074 C 
ATOM     11  C   UNL     1      12.770   7.925   4.295  0.00  0.00    +0.024 C 
ATOM     12  C   UNL     1      13.735   7.678   6.961  0.00  0.00    +0.089 C 
ATOM     13  C   UNL     1      12.286   9.905   5.708  0.00  0.00    +0.019 C 
ATOM     14  C   UNL     1      13.748   9.952   6.188  0.00  0.00    +0.085 C 
ENDROOT
BRANCH   9  15
ATOM     15  C   UNL     1      11.667   6.221   6.713  0.00  0.00    +0.089 C 
BRANCH  15   6
ATOM      6  N   UNL     1      10.235   6.213   6.700  0.00  0.00    -0.301 NA
ATOM     18  C   UNL     1       9.683   6.025   8.053  0.00  0.00    +0.105 C 
BRANCH   6  17
ATOM     17  C   UNL     1       9.706   5.164   5.810  0.00  0.00    +0.119 C 
BRANCH  17  20
ATOM     20  C   UNL     1       9.868   5.529   4.359  0.00  0.00    -0.033 A 
ATOM     22  C   UNL     1       9.281   6.693   3.862  0.00  0.00    +0.005 A 
ATOM     23  C   UNL     1      10.603   4.701   3.509  0.00  0.00    +0.005 A 
ATOM     26  C   UNL     1       9.431   7.031   2.516  0.00  0.00    +0.000 A 
ATOM     27  C   UNL     1      10.753   5.039   2.165  0.00  0.00    +0.000 A 
ATOM     28  C   UNL     1      10.166   6.204   1.668  0.00  0.00    +0.000 A 
ENDBRANCH  17  20
ENDBRANCH   6  17
ENDBRANCH  15   6
ENDBRANCH   9  15
BRANCH  10  16
ATOM     16  C   UNL     1      15.137   6.987   4.298  0.00  0.00    +0.123 C 
BRANCH  16   7
ATOM      4  O   UNL     1      15.846   7.043   1.516  0.00  0.00    -0.270 OA
ATOM      7  N   UNL     1      14.556   6.203   3.252  0.00  0.00    -0.310 N 
ATOM     19  C   UNL     1      14.961   6.294   1.922  0.00  0.00    +0.244 C 
ATOM     33  H   UNL     1      13.776   5.607   3.509  0.00  0.00    +0.149 HD
BRANCH  19  21
ATOM     21  C   UNL     1      14.239   5.431   0.952  0.00  0.00    +0.037 A 
ATOM     24  C   UNL     1      13.689   5.989  -0.202  0.00  0.00    +0.013 A 
ATOM     25  C   UNL     1      14.111   4.064   1.195  0.00  0.00    +0.013 A 
ATOM     29  C   UNL     1      13.010   5.179  -1.114  0.00  0.00    +0.013 A 
ATOM     30  C   UNL     1      13.432   3.254   0.284  0.00  0.00    +0.013 A 
ATOM     31  C   UNL     1      12.881   3.812  -0.869  0.00  0.00    +0.055 A 
BRANCH  31  32
ATOM      1  F   UNL     1      10.797   3.063  -1.775  0.00  0.00    -0.166 F 
ATOM      2  F   UNL     1      12.418   1.618  -1.661  0.00  0.00    -0.166 F 
ATOM      3  F   UNL     1      12.470   3.205  -3.146  0.00  0.00    -0.166 F 
ATOM     32  C   UNL     1      12.156   2.946  -1.843  0.00  0.00    +0.417 C 
ENDBRANCH  31  32
ENDBRANCH  19  21
ENDBRANCH  16   7
ENDBRANCH  10  16
TORSDOF 8
ENDMDL
MODEL 8
REMARK VINA RESULT:      -7.1     29.491     32.698
REMARK  Name = 25388788
REMARK  9 active torsions:
REMARK  status: ('A' for Active; 'I' for Inactive)
REMARK    1  A    between atoms: N_6  and  C_15
REMARK    2  A    between atoms: N_6  and  C_17
REMARK    3  A    between atoms: N_6  and  C_18
REMARK    4  A    between atoms: N_7  and  C_16
REMARK    5  A    between atoms: C_9  and  C_15
REMARK    6  A    between atoms: C_10  and  C_16
REMARK    7  A    between atoms: C_17  and  C_20
REMARK    8  A    between atoms: C_19  and  C_21
REMARK    9  A    between atoms: C_31  and  C_32
REMARK                            x       y       z     vdW  Elec       q    Type
REMARK                         _______ _______ _______ _____ _____    ______ ____
ROOT
ATOM      5  N   UNL     1      15.039   8.929  19.183  0.00  0.00    -0.298 NA
ATOM      8  C   UNL     1      13.437   6.964  19.770  0.00  0.00    -0.003 C 
ATOM      9  C   UNL     1      12.992   8.267  20.471  0.00  0.00    +0.020 C 
ATOM     10  C   UNL     1      15.821   7.765  19.677  0.00  0.00    +0.074 C 
ATOM     11  C   UNL     1      14.887   6.638  20.174  0.00  0.00    +0.024 C 
ATOM     12  C   UNL     1      14.053   9.359  20.205  0.00  0.00    +0.089 C 
ATOM     13  C   UNL     1      13.438   7.249  18.256  0.00  0.00    +0.019 C 
ATOM     14  C   UNL     1      14.293   8.499  17.975  0.00  0.00    +0.085 C 
ENDROOT
BRANCH   9  15
ATOM     15  C   UNL     1      12.730   8.089  21.964  0.00  0.00    +0.089 C 
BRANCH  15   6
ATOM      6  N   UNL     1      11.371   8.400  22.289  0.00  0.00    -0.301 NA
ATOM     18  C   UNL     1      10.464   7.292  21.940  0.00  0.00    +0.105 C 
BRANCH   6  17
ATOM     17  C   UNL     1      10.919   9.628  21.612  0.00  0.00    +0.119 C 
BRANCH  17  20
ATOM     20  C   UNL     1      11.047  10.836  22.501  0.00  0.00    -0.033 A 
ATOM     22  C   UNL     1      10.918  10.702  23.884  0.00  0.00    +0.005 A 
ATOM     23  C   UNL     1      11.293  12.090  21.942  0.00  0.00    +0.005 A 
ATOM     26  C   UNL     1      11.036  11.822  24.708  0.00  0.00    +0.000 A 
ATOM     27  C   UNL     1      11.412  13.210  22.765  0.00  0.00    +0.000 A 
ATOM     28  C   UNL     1      11.284  13.075  24.148  0.00  0.00    +0.000 A 
ENDBRANCH  17  20
ENDBRANCH   6  17
ENDBRANCH  15   6
ENDBRANCH   9  15
BRANCH  10  16
ATOM     16  C   UNL     1      16.848   8.160  20.740  0.00  0.00    +0.123 C 
BRANCH  16   7
ATOM      4  O   UNL     1      19.359   8.438  22.105  0.00  0.00    -0.270 OA
ATOM      7  N   UNL     1      17.875   7.170  20.851  0.00  0.00    -0.310 N 
ATOM     19  C   UNL     1      19.069   7.390  21.535  0.00  0.00    +0.244 C 
ATOM     33  H   UNL     1      17.725   6.301  20.350  0.00  0.00    +0.149 HD
BRANCH  19  21
ATOM     21  C   UNL     1      20.044   6.269  21.536  0.00  0.00    +0.037 A 
ATOM     24  C   UNL     1      20.082   5.378  20.464  0.00  0.00    +0.013 A 
ATOM     25  C   UNL     1      20.921   6.108  22.608  0.00  0.00    +0.013 A 
ATOM     29  C   UNL     1      20.997   4.324  20.463  0.00  0.00    +0.013 A 
ATOM     30  C   UNL     1      21.836   5.055  22.608  0.00  0.00    +0.013 A 
ATOM     31  C   UNL     1      21.874   4.163  21.537  0.00  0.00    +0.055 A 
BRANCH  31  32
ATOM      1  F   UNL     1      22.841   2.303  22.688  0.00  0.00    -0.166 F 
ATOM      2  F   UNL     1      24.141   3.463  21.388  0.00  0.00    -0.166 F 
ATOM      3  F   UNL     1      22.648   2.134  20.535  0.00  0.00    -0.166 F 
ATOM     32  C   UNL     1      22.853   3.038  21.537  0.00  0.00    +0.417 C 
ENDBRANCH  31  32
ENDBRANCH  19  21
ENDBRANCH  16   7
ENDBRANCH  10  16
TORSDOF 8
ENDMDL
MODEL 9
REMARK VINA RESULT:      -7.0     16.560     19.857
REMARK  Name = 25388788
REMARK  9 active torsions:
REMARK  status: ('A' for Active; 'I' for Inactive)
REMARK    1  A    between atoms: N_6  and  C_15
REMARK    2  A    between atoms: N_6  and  C_17
REMARK    3  A    between atoms: N_6  and  C_18
REMARK    4  A    between atoms: N_7  and  C_16
REMARK    5  A    between atoms: C_9  and  C_15
REMARK    6  A    between atoms: C_10  and  C_16
REMARK    7  A    between atoms: C_17  and  C_20
REMARK    8  A    between atoms: C_19  and  C_21
REMARK    9  A    between atoms: C_31  and  C_32
REMARK                            x       y       z     vdW  Elec       q    Type
REMARK                         _______ _______ _______ _____ _____    ______ ____
ROOT
ATOM      5  N   UNL     1      -7.464 -11.336  39.769  0.00  0.00    -0.298 NA
ATOM      8  C   UNL     1      -5.468  -9.666  39.753  0.00  0.00    -0.003 C 
ATOM      9  C   UNL     1      -6.168  -9.676  41.131  0.00  0.00    +0.020 C 
ATOM     10  C   UNL     1      -7.584 -10.409  38.612  0.00  0.00    +0.074 C 
ATOM     11  C   UNL     1      -6.496  -9.313  38.662  0.00  0.00    +0.024 C 
ATOM     12  C   UNL     1      -7.425 -10.571  41.039  0.00  0.00    +0.089 C 
ATOM     13  C   UNL     1      -4.992 -11.107  39.483  0.00  0.00    +0.019 C 
ATOM     14  C   UNL     1      -6.183 -12.071  39.634  0.00  0.00    +0.085 C 
ENDROOT
BRANCH   9  15
ATOM     15  C   UNL     1      -6.508  -8.280  41.644  0.00  0.00    +0.089 C 
BRANCH  15   6
ATOM      6  N   UNL     1      -5.366  -7.663  42.249  0.00  0.00    -0.301 NA
ATOM     18  C   UNL     1      -5.318  -7.918  43.700  0.00  0.00    +0.105 C 
BRANCH   6  17
ATOM     17  C   UNL     1      -5.345  -6.208  42.012  0.00  0.00    +0.119 C 
BRANCH  17  20
ATOM     20  C   UNL     1      -4.127  -5.785  41.237  0.00  0.00    -0.033 A 
ATOM     22  C   UNL     1      -4.006  -6.121  39.888  0.00  0.00    +0.005 A 
ATOM     23  C   UNL     1      -3.117  -5.058  41.868  0.00  0.00    +0.005 A 
ATOM     26  C   UNL     1      -2.875  -5.729  39.170  0.00  0.00    +0.000 A 
ATOM     27  C   UNL     1      -1.988  -4.665  41.150  0.00  0.00    +0.000 A 
ATOM     28  C   UNL     1      -1.867  -5.001  39.801  0.00  0.00    +0.000 A 
ENDBRANCH  17  20
ENDBRANCH   6  17
ENDBRANCH  15   6
ENDBRANCH   9  15
BRANCH  10  16
ATOM     16  C   UNL     1      -8.987  -9.810  38.487  0.00  0.00    +0.123 C 
BRANCH  16   7
ATOM      4  O   UNL     1     -10.209  -8.265  40.576  0.00  0.00    -0.270 OA
ATOM      7  N   UNL     1      -8.949  -8.387  38.632  0.00  0.00    -0.310 N 
ATOM     19  C   UNL     1      -9.573  -7.716  39.681  0.00  0.00    +0.244 C 
ATOM     33  H   UNL     1      -8.491  -7.866  37.891  0.00  0.00    +0.149 HD
BRANCH  19  21
ATOM     21  C   UNL     1      -9.462  -6.234  39.674  0.00  0.00    +0.037 A 
ATOM     24  C   UNL     1      -8.206  -5.629  39.632  0.00  0.00    +0.013 A 
ATOM     25  C   UNL     1     -10.614  -5.448  39.711  0.00  0.00    +0.013 A 
ATOM     29  C   UNL     1      -8.101  -4.238  39.625  0.00  0.00    +0.013 A 
ATOM     30  C   UNL     1     -10.509  -4.057  39.705  0.00  0.00    +0.013 A 
ATOM     31  C   UNL     1      -9.253  -3.452  39.663  0.00  0.00    +0.055 A 
BRANCH  31  32
ATOM      1  F   UNL     1      -9.037  -1.418  40.903  0.00  0.00    -0.166 F 
ATOM      2  F   UNL     1     -10.222  -1.360  39.081  0.00  0.00    -0.166 F 
ATOM      3  F   UNL     1      -8.056  -1.500  38.971  0.00  0.00    -0.166 F 
ATOM     32  C   UNL     1      -9.142  -1.965  39.655  0.00  0.00    +0.417 C 
ENDBRANCH  31  32
ENDBRANCH  19  21
ENDBRANCH  16   7
ENDBRANCH  10  16
TORSDOF 8
ENDMDL
MODEL 10
REMARK VINA RESULT:      -7.0     19.404     22.106
REMARK  Name = 25388788
REMARK  9 active torsions:
REMARK  status: ('A' for Active; 'I' for Inactive)
REMARK    1  A    between atoms: N_6  and  C_15
REMARK    2  A    between atoms: N_6  and  C_17
REMARK    3  A    between atoms: N_6  and  C_18
REMARK    4  A    between atoms: N_7  and  C_16
REMARK    5  A    between atoms: C_9  and  C_15
REMARK    6  A    between atoms: C_10  and  C_16
REMARK    7  A    between atoms: C_17  and  C_20
REMARK    8  A    between atoms: C_19  and  C_21
REMARK    9  A    between atoms: C_31  and  C_32
REMARK                            x       y       z     vdW  Elec       q    Type
REMARK                         _______ _______ _______ _____ _____    ______ ____
ROOT
ATOM      5  N   UNL     1      -2.413 -10.581  13.539  0.00  0.00    -0.298 NA
ATOM      8  C   UNL     1      -3.602 -12.865  13.160  0.00  0.00    -0.003 C 
ATOM      9  C   UNL     1      -4.622 -11.704  13.149  0.00  0.00    +0.020 C 
ATOM     10  C   UNL     1      -2.027 -11.541  14.608  0.00  0.00    +0.074 C 
ATOM     11  C   UNL     1      -2.832 -12.855  14.493  0.00  0.00    +0.024 C 
ATOM     12  C   UNL     1      -3.885 -10.396  13.520  0.00  0.00    +0.089 C 
ATOM     13  C   UNL     1      -2.583 -12.575  12.042  0.00  0.00    +0.019 C 
ATOM     14  C   UNL     1      -2.005 -11.161  12.236  0.00  0.00    +0.085 C 
ENDROOT
BRANCH   9  15
ATOM     15  C   UNL     1      -5.824 -11.949  14.057  0.00  0.00    +0.089 C 
BRANCH  15   6
ATOM      6  N   UNL     1      -6.993 -11.296  13.550  0.00  0.00    -0.301 NA
ATOM     18  C   UNL     1      -6.914 -11.100  12.091  0.00  0.00    +0.105 C 
BRANCH   6  17
ATOM     17  C   UNL     1      -7.213  -9.993  14.202  0.00  0.00    +0.119 C 
BRANCH  17  20
ATOM     20  C   UNL     1      -8.139 -10.108  15.383  0.00  0.00    -0.033 A 
ATOM     22  C   UNL     1      -9.065 -11.150  15.445  0.00  0.00    +0.005 A 
ATOM     23  C   UNL     1      -8.072  -9.172  16.415  0.00  0.00    +0.005 A 
ATOM     26  C   UNL     1      -9.923 -11.256  16.540  0.00  0.00    +0.000 A 
ATOM     27  C   UNL     1      -8.930  -9.278  17.510  0.00  0.00    +0.000 A 
ATOM     28  C   UNL     1      -9.856 -10.320  17.572  0.00  0.00    +0.000 A 
ENDBRANCH  17  20
ENDBRANCH   6  17
ENDBRANCH  15   6
ENDBRANCH   9  15
BRANCH  10  16
ATOM     16  C   UNL     1      -2.134 -10.929  16.007  0.00  0.00    +0.123 C 
BRANCH  16   7
ATOM      4  O   UNL     1      -4.474  -9.461  16.792  0.00  0.00    -0.270 OA
ATOM      7  N   UNL     1      -3.273 -11.444  16.703  0.00  0.00    -0.310 N 
ATOM     19  C   UNL     1      -4.371 -10.658  17.047  0.00  0.00    +0.244 C 
ATOM     33  H   UNL     1      -3.227 -12.414  16.998  0.00  0.00    +0.149 HD
BRANCH  19  21
ATOM     21  C   UNL     1      -5.462 -11.338  17.791  0.00  0.00    +0.037 A 
ATOM     24  C   UNL     1      -6.050 -12.490  17.269  0.00  0.00    +0.013 A 
ATOM     25  C   UNL     1      -5.899 -10.824  19.012  0.00  0.00    +0.013 A 
ATOM     29  C   UNL     1      -7.075 -13.129  17.967  0.00  0.00    +0.013 A 
ATOM     30  C   UNL     1      -6.924 -11.462  19.710  0.00  0.00    +0.013 A 
ATOM     31  C   UNL     1      -7.512 -12.614  19.188  0.00  0.00    +0.055 A 
BRANCH  31  32
ATOM      1  F   UNL     1      -9.689 -12.498  20.173  0.00  0.00    -0.166 F 
ATOM      2  F   UNL     1      -8.207 -13.743  21.162  0.00  0.00    -0.166 F 
ATOM      3  F   UNL     1      -9.108 -14.393  19.293  0.00  0.00    -0.166 F 
ATOM     32  C   UNL     1      -8.607 -13.297  19.936  0.00  0.00    +0.417 C 
ENDBRANCH  31  32
ENDBRANCH  19  21
ENDBRANCH  16   7
ENDBRANCH  10  16
TORSDOF 8
ENDMDL
