MODEL 1
REMARK VINA RESULT:      -5.7      0.000      0.000
REMARK  Name = 51137081
REMARK  5 active torsions:
REMARK  status: ('A' for Active; 'I' for Inactive)
REMARK    1  A    between atoms: N_2  and  C_8
REMARK    2  A    between atoms: C_4  and  C_10
REMARK    3  A    between atoms: C_8  and  C_9
REMARK    4  A    between atoms: C_9  and  C_11
REMARK    5  A    between atoms: C_9  and  C_12
REMARK                            x       y       z     vdW  Elec       q    Type
REMARK                         _______ _______ _______ _____ _____    ______ ____
ROOT
ATOM      2  N   UNL     1      -2.478 -11.134  12.575  0.00  0.00    -0.301 NA
ATOM      4  C   UNL     1      -2.773 -10.593  14.837  0.00  0.00    +0.060 C 
ATOM      5  C   UNL     1      -3.444 -10.484  13.461  0.00  0.00    +0.094 C 
ATOM      6  C   UNL     1      -1.833 -11.806  14.716  0.00  0.00    +0.027 C 
ATOM      7  C   UNL     1      -2.043 -12.327  13.301  0.00  0.00    +0.085 C 
ENDROOT
BRANCH   4  10
ATOM      1  S   UNL     1      -5.329 -10.008  15.761  0.00  0.00    -0.072 S 
ATOM      3  N   UNL     1      -3.518 -11.224  17.138  0.00  0.00    -0.244 NA
ATOM     10  C   UNL     1      -3.766 -10.672  15.973  0.00  0.00    +0.084 A 
ATOM     13  C   UNL     1      -5.739 -10.487  17.366  0.00  0.00    +0.039 A 
ATOM     14  C   UNL     1      -4.640 -11.125  17.948  0.00  0.00    +0.078 A 
ATOM     15  C   UNL     1      -6.947 -10.310  18.060  0.00  0.00    +0.017 A 
ATOM     16  C   UNL     1      -4.757 -11.602  19.271  0.00  0.00    +0.029 A 
ATOM     17  C   UNL     1      -7.036 -10.793  19.368  0.00  0.00    +0.001 A 
ATOM     18  C   UNL     1      -5.956 -11.431  19.968  0.00  0.00    +0.002 A 
ENDBRANCH   4  10
BRANCH   2   8
ATOM      8  C   UNL     1      -3.045 -11.454  11.273  0.00  0.00    +0.087 C 
BRANCH   8   9
ATOM      9  C   UNL     1      -3.665 -10.226  10.585  0.00  0.00    -0.003 C 
ATOM     11  C   UNL     1      -2.584  -9.171  10.339  0.00  0.00    +0.008 C 
ATOM     12  C   UNL     1      -4.352 -10.578   9.263  0.00  0.00    +0.008 C 
ENDBRANCH   8   9
ENDBRANCH   2   8
TORSDOF 3
ENDMDL
MODEL 2
REMARK VINA RESULT:      -5.7     22.091     24.562
REMARK  Name = 51137081
REMARK  5 active torsions:
REMARK  status: ('A' for Active; 'I' for Inactive)
REMARK    1  A    between atoms: N_2  and  C_8
REMARK    2  A    between atoms: C_4  and  C_10
REMARK    3  A    between atoms: C_8  and  C_9
REMARK    4  A    between atoms: C_9  and  C_11
REMARK    5  A    between atoms: C_9  and  C_12
REMARK                            x       y       z     vdW  Elec       q    Type
REMARK                         _______ _______ _______ _____ _____    ______ ____
ROOT
ATOM      2  N   UNL     1      11.706   4.550   1.546  0.00  0.00    -0.301 NA
ATOM      4  C   UNL     1      10.256   5.475   3.139  0.00  0.00    +0.060 C 
ATOM      5  C   UNL     1      10.903   4.153   2.704  0.00  0.00    +0.094 C 
ATOM      6  C   UNL     1      11.206   6.565   2.614  0.00  0.00    +0.027 C 
ATOM      7  C   UNL     1      12.341   5.807   1.940  0.00  0.00    +0.085 C 
ENDROOT
BRANCH   4  10
ATOM      1  S   UNL     1       9.446   7.007   5.314  0.00  0.00    -0.072 S 
ATOM      3  N   UNL     1      10.125   4.522   5.446  0.00  0.00    -0.244 NA
ATOM     10  C   UNL     1       9.981   5.535   4.624  0.00  0.00    +0.084 A 
ATOM     13  C   UNL     1       9.392   6.251   6.862  0.00  0.00    +0.039 A 
ATOM     14  C   UNL     1       9.791   4.917   6.734  0.00  0.00    +0.078 A 
ATOM     15  C   UNL     1       9.023   6.798   8.101  0.00  0.00    +0.017 A 
ATOM     16  C   UNL     1       9.820   4.105   7.888  0.00  0.00    +0.029 A 
ATOM     17  C   UNL     1       9.060   5.973   9.228  0.00  0.00    +0.001 A 
ATOM     18  C   UNL     1       9.454   4.643   9.125  0.00  0.00    +0.002 A 
ENDBRANCH   4  10
BRANCH   2   8
ATOM      8  C   UNL     1      12.676   3.533   1.167  0.00  0.00    +0.087 C 
BRANCH   8   9
ATOM      9  C   UNL     1      14.048   4.132   0.819  0.00  0.00    -0.003 C 
ATOM     11  C   UNL     1      15.132   3.473   1.675  0.00  0.00    +0.008 C 
ATOM     12  C   UNL     1      14.398   3.977  -0.664  0.00  0.00    +0.008 C 
ENDBRANCH   8   9
ENDBRANCH   2   8
TORSDOF 3
ENDMDL
MODEL 3
REMARK VINA RESULT:      -5.6     22.145     25.620
REMARK  Name = 51137081
REMARK  5 active torsions:
REMARK  status: ('A' for Active; 'I' for Inactive)
REMARK    1  A    between atoms: N_2  and  C_8
REMARK    2  A    between atoms: C_4  and  C_10
REMARK    3  A    between atoms: C_8  and  C_9
REMARK    4  A    between atoms: C_9  and  C_11
REMARK    5  A    between atoms: C_9  and  C_12
REMARK                            x       y       z     vdW  Elec       q    Type
REMARK                         _______ _______ _______ _____ _____    ______ ____
ROOT
ATOM      2  N   UNL     1     -14.657   2.354  30.820  0.00  0.00    -0.301 NA
ATOM      4  C   UNL     1     -15.076   4.086  32.344  0.00  0.00    +0.060 C 
ATOM      5  C   UNL     1     -14.149   2.891  32.084  0.00  0.00    +0.094 C 
ATOM      6  C   UNL     1     -15.591   4.490  30.952  0.00  0.00    +0.027 C 
ATOM      7  C   UNL     1     -14.912   3.528  29.986  0.00  0.00    +0.085 C 
ENDROOT
BRANCH   4  10
ATOM      1  S   UNL     1     -14.250   5.053  34.817  0.00  0.00    -0.072 S 
ATOM      3  N   UNL     1     -13.915   6.287  32.577  0.00  0.00    -0.244 NA
ATOM     10  C   UNL     1     -14.403   5.196  33.119  0.00  0.00    +0.084 A 
ATOM     13  C   UNL     1     -13.459   6.584  34.865  0.00  0.00    +0.039 A 
ATOM     14  C   UNL     1     -13.370   7.094  33.566  0.00  0.00    +0.078 A 
ATOM     15  C   UNL     1     -12.954   7.284  35.972  0.00  0.00    +0.017 A 
ATOM     16  C   UNL     1     -12.753   8.348  33.372  0.00  0.00    +0.029 A 
ATOM     17  C   UNL     1     -12.346   8.523  35.751  0.00  0.00    +0.001 A 
ATOM     18  C   UNL     1     -12.246   9.050  34.468  0.00  0.00    +0.002 A 
ENDBRANCH   4  10
BRANCH   2   8
ATOM      8  C   UNL     1     -13.728   1.423  30.198  0.00  0.00    +0.087 C 
BRANCH   8   9
ATOM      9  C   UNL     1     -14.400   0.096  29.806  0.00  0.00    -0.003 C 
ATOM     11  C   UNL     1     -13.333  -0.927  29.412  0.00  0.00    +0.008 C 
ATOM     12  C   UNL     1     -15.271  -0.475  30.930  0.00  0.00    +0.008 C 
ENDBRANCH   8   9
ENDBRANCH   2   8
TORSDOF 3
ENDMDL
MODEL 4
REMARK VINA RESULT:      -5.5      2.896      4.942
REMARK  Name = 51137081
REMARK  5 active torsions:
REMARK  status: ('A' for Active; 'I' for Inactive)
REMARK    1  A    between atoms: N_2  and  C_8
REMARK    2  A    between atoms: C_4  and  C_10
REMARK    3  A    between atoms: C_8  and  C_9
REMARK    4  A    between atoms: C_9  and  C_11
REMARK    5  A    between atoms: C_9  and  C_12
REMARK                            x       y       z     vdW  Elec       q    Type
REMARK                         _______ _______ _______ _____ _____    ______ ____
ROOT
ATOM      2  N   UNL     1      -4.023 -11.486  16.828  0.00  0.00    -0.301 NA
ATOM      4  C   UNL     1      -5.801 -10.566  18.049  0.00  0.00    +0.060 C 
ATOM      5  C   UNL     1      -5.004 -10.402  16.748  0.00  0.00    +0.094 C 
ATOM      6  C   UNL     1      -5.631 -12.048  18.426  0.00  0.00    +0.027 C 
ATOM      7  C   UNL     1      -4.777 -12.642  17.313  0.00  0.00    +0.085 C 
ENDROOT
BRANCH   4  10
ATOM      1  S   UNL     1      -8.464 -10.969  18.743  0.00  0.00    -0.072 S 
ATOM      3  N   UNL     1      -7.621  -9.068  17.218  0.00  0.00    -0.244 NA
ATOM     10  C   UNL     1      -7.235 -10.105  17.924  0.00  0.00    +0.084 A 
ATOM     13  C   UNL     1      -9.639  -9.876  18.113  0.00  0.00    +0.039 A 
ATOM     14  C   UNL     1      -8.998  -8.924  17.317  0.00  0.00    +0.078 A 
ATOM     15  C   UNL     1     -11.029  -9.863  18.310  0.00  0.00    +0.017 A 
ATOM     16  C   UNL     1      -9.777  -7.923  16.697  0.00  0.00    +0.029 A 
ATOM     17  C   UNL     1     -11.777  -8.862  17.686  0.00  0.00    +0.001 A 
ATOM     18  C   UNL     1     -11.161  -7.903  16.889  0.00  0.00    +0.002 A 
ENDBRANCH   4  10
BRANCH   2   8
ATOM      8  C   UNL     1      -3.374 -11.744  15.551  0.00  0.00    +0.087 C 
BRANCH   8   9
ATOM      9  C   UNL     1      -2.552 -10.541  15.058  0.00  0.00    -0.003 C 
ATOM     11  C   UNL     1      -1.238 -10.459  15.838  0.00  0.00    +0.008 C 
ATOM     12  C   UNL     1      -2.256 -10.609  13.557  0.00  0.00    +0.008 C 
ENDBRANCH   8   9
ENDBRANCH   2   8
TORSDOF 3
ENDMDL
MODEL 5
REMARK VINA RESULT:      -5.5      1.516      6.885
REMARK  Name = 51137081
REMARK  5 active torsions:
REMARK  status: ('A' for Active; 'I' for Inactive)
REMARK    1  A    between atoms: N_2  and  C_8
REMARK    2  A    between atoms: C_4  and  C_10
REMARK    3  A    between atoms: C_8  and  C_9
REMARK    4  A    between atoms: C_9  and  C_11
REMARK    5  A    between atoms: C_9  and  C_12
REMARK                            x       y       z     vdW  Elec       q    Type
REMARK                         _______ _______ _______ _____ _____    ______ ____
ROOT
ATOM      2  N   UNL     1      -4.453 -12.176  16.895  0.00  0.00    -0.301 NA
ATOM      4  C   UNL     1      -3.652 -11.663  14.752  0.00  0.00    +0.060 C 
ATOM      5  C   UNL     1      -4.894 -12.169  15.499  0.00  0.00    +0.094 C 
ATOM      6  C   UNL     1      -2.869 -10.856  15.801  0.00  0.00    +0.027 C 
ATOM      7  C   UNL     1      -3.716 -10.924  17.064  0.00  0.00    +0.085 C 
ENDROOT
BRANCH   4  10
ATOM      1  S   UNL     1      -5.554 -10.226  13.320  0.00  0.00    -0.072 S 
ATOM      3  N   UNL     1      -3.162 -10.718  12.491  0.00  0.00    -0.244 NA
ATOM     10  C   UNL     1      -3.992 -10.904  13.491  0.00  0.00    +0.084 A 
ATOM     13  C   UNL     1      -5.112  -9.619  11.769  0.00  0.00    +0.039 A 
ATOM     14  C   UNL     1      -3.790  -9.983  11.495  0.00  0.00    +0.078 A 
ATOM     15  C   UNL     1      -5.879  -8.874  10.859  0.00  0.00    +0.017 A 
ATOM     16  C   UNL     1      -3.219  -9.586  10.267  0.00  0.00    +0.029 A 
ATOM     17  C   UNL     1      -5.289  -8.493   9.651  0.00  0.00    +0.001 A 
ATOM     18  C   UNL     1      -3.976  -8.843   9.357  0.00  0.00    +0.002 A 
ENDBRANCH   4  10
BRANCH   2   8
ATOM      8  C   UNL     1      -5.564 -12.296  17.828  0.00  0.00    +0.087 C 
BRANCH   8   9
ATOM      9  C   UNL     1      -5.920 -10.954  18.490  0.00  0.00    -0.003 C 
ATOM     11  C   UNL     1      -7.246 -10.436  17.927  0.00  0.00    +0.008 C 
ATOM     12  C   UNL     1      -6.015 -11.060  20.015  0.00  0.00    +0.008 C 
ENDBRANCH   8   9
ENDBRANCH   2   8
TORSDOF 3
ENDMDL
MODEL 6
REMARK VINA RESULT:      -5.4      2.839      4.958
REMARK  Name = 51137081
REMARK  5 active torsions:
REMARK  status: ('A' for Active; 'I' for Inactive)
REMARK    1  A    between atoms: N_2  and  C_8
REMARK    2  A    between atoms: C_4  and  C_10
REMARK    3  A    between atoms: C_8  and  C_9
REMARK    4  A    between atoms: C_9  and  C_11
REMARK    5  A    between atoms: C_9  and  C_12
REMARK                            x       y       z     vdW  Elec       q    Type
REMARK                         _______ _______ _______ _____ _____    ______ ____
ROOT
ATOM      2  N   UNL     1      -4.008 -11.181  17.019  0.00  0.00    -0.301 NA
ATOM      4  C   UNL     1      -5.806 -11.086  18.521  0.00  0.00    +0.060 C 
ATOM      5  C   UNL     1      -5.077 -10.275  17.441  0.00  0.00    +0.094 C 
ATOM      6  C   UNL     1      -5.498 -12.555  18.178  0.00  0.00    +0.027 C 
ATOM      7  C   UNL     1      -4.644 -12.495  16.919  0.00  0.00    +0.085 C 
ENDROOT
BRANCH   4  10
ATOM      1  S   UNL     1      -8.004  -9.825  17.377  0.00  0.00    -0.072 S 
ATOM      3  N   UNL     1      -8.058 -11.127  19.602  0.00  0.00    -0.244 NA
ATOM     10  C   UNL     1      -7.276 -10.752  18.617  0.00  0.00    +0.084 A 
ATOM     13  C   UNL     1      -9.512  -9.914  18.207  0.00  0.00    +0.039 A 
ATOM     14  C   UNL     1      -9.344 -10.653  19.382  0.00  0.00    +0.078 A 
ATOM     15  C   UNL     1     -10.754  -9.369  17.846  0.00  0.00    +0.017 A 
ATOM     16  C   UNL     1     -10.460 -10.853  20.222  0.00  0.00    +0.029 A 
ATOM     17  C   UNL     1     -11.843  -9.582  18.695  0.00  0.00    +0.001 A 
ATOM     18  C   UNL     1     -11.700 -10.314  19.868  0.00  0.00    +0.002 A 
ENDBRANCH   4  10
BRANCH   2   8
ATOM      8  C   UNL     1      -3.391 -10.768  15.766  0.00  0.00    +0.087 C 
BRANCH   8   9
ATOM      9  C   UNL     1      -1.913 -11.183  15.676  0.00  0.00    -0.003 C 
ATOM     11  C   UNL     1      -1.704 -12.092  14.462  0.00  0.00    +0.008 C 
ATOM     12  C   UNL     1      -0.970  -9.979  15.586  0.00  0.00    +0.008 C 
ENDBRANCH   8   9
ENDBRANCH   2   8
TORSDOF 3
ENDMDL
MODEL 7
REMARK VINA RESULT:      -5.4      1.667      7.212
REMARK  Name = 51137081
REMARK  5 active torsions:
REMARK  status: ('A' for Active; 'I' for Inactive)
REMARK    1  A    between atoms: N_2  and  C_8
REMARK    2  A    between atoms: C_4  and  C_10
REMARK    3  A    between atoms: C_8  and  C_9
REMARK    4  A    between atoms: C_9  and  C_11
REMARK    5  A    between atoms: C_9  and  C_12
REMARK                            x       y       z     vdW  Elec       q    Type
REMARK                         _______ _______ _______ _____ _____    ______ ____
ROOT
ATOM      2  N   UNL     1      -3.442 -11.363  16.451  0.00  0.00    -0.301 NA
ATOM      4  C   UNL     1      -3.099 -11.919  14.199  0.00  0.00    +0.060 C 
ATOM      5  C   UNL     1      -4.197 -11.570  15.213  0.00  0.00    +0.094 C 
ATOM      6  C   UNL     1      -1.822 -11.279  14.771  0.00  0.00    +0.027 C 
ATOM      7  C   UNL     1      -2.268 -10.586  16.052  0.00  0.00    +0.085 C 
ENDROOT
BRANCH   4  10
ATOM      1  S   UNL     1      -3.748 -12.696  11.609  0.00  0.00    -0.072 S 
ATOM      3  N   UNL     1      -3.531 -10.248  12.390  0.00  0.00    -0.244 NA
ATOM     10  C   UNL     1      -3.444 -11.496  12.790  0.00  0.00    +0.084 A 
ATOM     13  C   UNL     1      -4.025 -11.462  10.438  0.00  0.00    +0.039 A 
ATOM     14  C   UNL     1      -3.863 -10.213  11.043  0.00  0.00    +0.078 A 
ATOM     15  C   UNL     1      -4.361 -11.590   9.081  0.00  0.00    +0.017 A 
ATOM     16  C   UNL     1      -4.045  -9.052  10.261  0.00  0.00    +0.029 A 
ATOM     17  C   UNL     1      -4.537 -10.426   8.329  0.00  0.00    +0.001 A 
ATOM     18  C   UNL     1      -4.381  -9.172   8.910  0.00  0.00    +0.002 A 
ENDBRANCH   4  10
BRANCH   2   8
ATOM      8  C   UNL     1      -4.228 -10.693  17.476  0.00  0.00    +0.087 C 
BRANCH   8   9
ATOM      9  C   UNL     1      -4.778 -11.671  18.527  0.00  0.00    -0.003 C 
ATOM     11  C   UNL     1      -3.638 -12.160  19.424  0.00  0.00    +0.008 C 
ATOM     12  C   UNL     1      -5.879 -11.048  19.389  0.00  0.00    +0.008 C 
ENDBRANCH   8   9
ENDBRANCH   2   8
TORSDOF 3
ENDMDL
MODEL 8
REMARK VINA RESULT:      -5.1      1.443      2.245
REMARK  Name = 51137081
REMARK  5 active torsions:
REMARK  status: ('A' for Active; 'I' for Inactive)
REMARK    1  A    between atoms: N_2  and  C_8
REMARK    2  A    between atoms: C_4  and  C_10
REMARK    3  A    between atoms: C_8  and  C_9
REMARK    4  A    between atoms: C_9  and  C_11
REMARK    5  A    between atoms: C_9  and  C_12
REMARK                            x       y       z     vdW  Elec       q    Type
REMARK                         _______ _______ _______ _____ _____    ______ ____
ROOT
ATOM      2  N   UNL     1      -3.676 -10.862  11.099  0.00  0.00    -0.301 NA
ATOM      4  C   UNL     1      -3.208 -10.465  13.362  0.00  0.00    +0.060 C 
ATOM      5  C   UNL     1      -4.311 -10.324  12.303  0.00  0.00    +0.094 C 
ATOM      6  C   UNL     1      -2.315 -11.606  12.844  0.00  0.00    +0.027 C 
ATOM      7  C   UNL     1      -2.970 -12.062  11.548  0.00  0.00    +0.085 C 
ENDROOT
BRANCH   4  10
ATOM      1  S   UNL     1      -2.687 -11.149  16.006  0.00  0.00    -0.072 S 
ATOM      3  N   UNL     1      -5.011 -10.502  15.093  0.00  0.00    -0.244 NA
ATOM     10  C   UNL     1      -3.753 -10.669  14.756  0.00  0.00    +0.084 A 
ATOM     13  C   UNL     1      -4.004 -11.144  17.119  0.00  0.00    +0.039 A 
ATOM     14  C   UNL     1      -5.171 -10.771  16.445  0.00  0.00    +0.078 A 
ATOM     15  C   UNL     1      -4.005 -11.447  18.489  0.00  0.00    +0.017 A 
ATOM     16  C   UNL     1      -6.379 -10.701  17.171  0.00  0.00    +0.029 A 
ATOM     17  C   UNL     1      -5.214 -11.369  19.185  0.00  0.00    +0.001 A 
ATOM     18  C   UNL     1      -6.388 -11.001  18.535  0.00  0.00    +0.002 A 
ENDBRANCH   4  10
BRANCH   2   8
ATOM      8  C   UNL     1      -4.637 -11.147  10.044  0.00  0.00    +0.087 C 
BRANCH   8   9
ATOM      9  C   UNL     1      -4.456 -10.231   8.822  0.00  0.00    -0.003 C 
ATOM     11  C   UNL     1      -5.739 -10.222   7.988  0.00  0.00    +0.008 C 
ATOM     12  C   UNL     1      -4.086  -8.797   9.214  0.00  0.00    +0.008 C 
ENDBRANCH   8   9
ENDBRANCH   2   8
TORSDOF 3
ENDMDL
MODEL 9
REMARK VINA RESULT:      -5.1      2.414      7.329
REMARK  Name = 51137081
REMARK  5 active torsions:
REMARK  status: ('A' for Active; 'I' for Inactive)
REMARK    1  A    between atoms: N_2  and  C_8
REMARK    2  A    between atoms: C_4  and  C_10
REMARK    3  A    between atoms: C_8  and  C_9
REMARK    4  A    between atoms: C_9  and  C_11
REMARK    5  A    between atoms: C_9  and  C_12
REMARK                            x       y       z     vdW  Elec       q    Type
REMARK                         _______ _______ _______ _____ _____    ______ ____
ROOT
ATOM      2  N   UNL     1      -7.024 -11.715  16.835  0.00  0.00    -0.301 NA
ATOM      4  C   UNL     1      -7.019 -10.541  14.805  0.00  0.00    +0.060 C 
ATOM      5  C   UNL     1      -6.209 -10.752  16.091  0.00  0.00    +0.094 C 
ATOM      6  C   UNL     1      -7.853 -11.826  14.655  0.00  0.00    +0.027 C 
ATOM      7  C   UNL     1      -7.452 -12.697  15.838  0.00  0.00    +0.085 C 
ENDROOT
BRANCH   4  10
ATOM      1  S   UNL     1      -4.560 -10.819  13.537  0.00  0.00    -0.072 S 
ATOM      3  N   UNL     1      -6.541  -9.456  12.605  0.00  0.00    -0.244 NA
ATOM     10  C   UNL     1      -6.155 -10.203  13.613  0.00  0.00    +0.084 A 
ATOM     13  C   UNL     1      -4.336 -10.027  12.023  0.00  0.00    +0.039 A 
ATOM     14  C   UNL     1      -5.508  -9.345  11.685  0.00  0.00    +0.078 A 
ATOM     15  C   UNL     1      -3.203 -10.010  11.193  0.00  0.00    +0.017 A 
ATOM     16  C   UNL     1      -5.546  -8.622  10.473  0.00  0.00    +0.029 A 
ATOM     17  C   UNL     1      -3.268  -9.287   9.999  0.00  0.00    +0.001 A 
ATOM     18  C   UNL     1      -4.423  -8.601   9.642  0.00  0.00    +0.002 A 
ENDBRANCH   4  10
BRANCH   2   8
ATOM      8  C   UNL     1      -6.294 -12.327  17.936  0.00  0.00    +0.087 C 
BRANCH   8   9
ATOM      9  C   UNL     1      -5.361 -11.331  18.646  0.00  0.00    -0.003 C 
ATOM     11  C   UNL     1      -6.108 -10.654  19.798  0.00  0.00    +0.008 C 
ATOM     12  C   UNL     1      -4.089 -11.997  19.178  0.00  0.00    +0.008 C 
ENDBRANCH   8   9
ENDBRANCH   2   8
TORSDOF 3
ENDMDL
MODEL 10
REMARK VINA RESULT:      -4.9      1.768      3.022
REMARK  Name = 51137081
REMARK  5 active torsions:
REMARK  status: ('A' for Active; 'I' for Inactive)
REMARK    1  A    between atoms: N_2  and  C_8
REMARK    2  A    between atoms: C_4  and  C_10
REMARK    3  A    between atoms: C_8  and  C_9
REMARK    4  A    between atoms: C_9  and  C_11
REMARK    5  A    between atoms: C_9  and  C_12
REMARK                            x       y       z     vdW  Elec       q    Type
REMARK                         _______ _______ _______ _____ _____    ______ ____
ROOT
ATOM      2  N   UNL     1      -3.701 -10.070   9.706  0.00  0.00    -0.301 NA
ATOM      4  C   UNL     1      -3.349 -10.654  11.949  0.00  0.00    +0.060 C 
ATOM      5  C   UNL     1      -3.765  -9.485  11.046  0.00  0.00    +0.094 C 
ATOM      6  C   UNL     1      -3.693 -11.915  11.138  0.00  0.00    +0.027 C 
ATOM      7  C   UNL     1      -4.305 -11.396   9.844  0.00  0.00    +0.085 C 
ENDROOT
BRANCH   4  10
ATOM      1  S   UNL     1      -5.620 -10.132  13.466  0.00  0.00    -0.072 S 
ATOM      3  N   UNL     1      -3.349 -10.869  14.439  0.00  0.00    -0.244 NA
ATOM     10  C   UNL     1      -3.978 -10.591  13.322  0.00  0.00    +0.084 A 
ATOM     13  C   UNL     1      -5.510 -10.310  15.177  0.00  0.00    +0.039 A 
ATOM     14  C   UNL     1      -4.214 -10.711  15.513  0.00  0.00    +0.078 A 
ATOM     15  C   UNL     1      -6.500 -10.109  16.152  0.00  0.00    +0.017 A 
ATOM     16  C   UNL     1      -3.900 -10.919  16.873  0.00  0.00    +0.029 A 
ATOM     17  C   UNL     1      -6.163 -10.321  17.491  0.00  0.00    +0.001 A 
ATOM     18  C   UNL     1      -4.880 -10.721  17.849  0.00  0.00    +0.002 A 
ENDBRANCH   4  10
BRANCH   2   8
ATOM      8  C   UNL     1      -4.379  -9.254   8.709  0.00  0.00    +0.087 C 
BRANCH   8   9
ATOM      9  C   UNL     1      -5.822  -9.718   8.454  0.00  0.00    -0.003 C 
ATOM     11  C   UNL     1      -6.803  -8.715   9.064  0.00  0.00    +0.008 C 
ATOM     12  C   UNL     1      -6.127  -9.894   6.963  0.00  0.00    +0.008 C 
ENDBRANCH   8   9
ENDBRANCH   2   8
TORSDOF 3
ENDMDL
