MODEL 1
REMARK VINA RESULT:      -8.3      0.000      0.000
REMARK  Name = 51137411
REMARK  7 active torsions:
REMARK  status: ('A' for Active; 'I' for Inactive)
REMARK    1  A    between atoms: O_5  and  C_22
REMARK    2  A    between atoms: O_5  and  C_29
REMARK    3  A    between atoms: N_6  and  C_13
REMARK    4  A    between atoms: C_9  and  C_14
REMARK    5  A    between atoms: C_13  and  C_15
REMARK    6  A    between atoms: C_18  and  C_19
REMARK    7  A    between atoms: C_27  and  C_28
REMARK                            x       y       z     vdW  Elec       q    Type
REMARK                         _______ _______ _______ _____ _____    ______ ____
ROOT
ATOM      6  N   UNL     1      17.260   7.536  20.581  0.00  0.00    -0.297 NA
ATOM      9  C   UNL     1      19.458   6.794  20.922  0.00  0.00    +0.092 C 
ATOM     10  C   UNL     1      18.767   5.896  19.881  0.00  0.00    +0.029 C 
ATOM     11  C   UNL     1      18.312   7.557  21.600  0.00  0.00    +0.097 C 
ATOM     12  C   UNL     1      17.278   6.175  20.048  0.00  0.00    +0.085 C 
ENDROOT
BRANCH   9  14
ATOM      4  O   UNL     1      21.072   5.021  21.419  0.00  0.00    -0.420 OA
ATOM      7  N   UNL     1      20.524   6.278  23.187  0.00  0.00    -0.112 NA
ATOM      8  N   UNL     1      21.434   5.324  23.606  0.00  0.00    -0.107 NA
ATOM     14  C   UNL     1      20.343   6.063  21.905  0.00  0.00    +0.222 A 
ATOM     18  C   UNL     1      21.726   4.614  22.541  0.00  0.00    +0.248 A 
BRANCH  18  19
ATOM     19  C   UNL     1      22.609   3.496  22.381  0.00  0.00    +0.038 A 
ATOM     23  C   UNL     1      22.977   2.734  23.491  0.00  0.00    +0.013 A 
ATOM     24  C   UNL     1      23.102   3.170  21.117  0.00  0.00    +0.013 A 
ATOM     25  C   UNL     1      23.836   1.647  23.336  0.00  0.00    +0.004 A 
ATOM     26  C   UNL     1      23.961   2.083  20.962  0.00  0.00    +0.004 A 
ATOM     27  C   UNL     1      24.329   1.321  22.072  0.00  0.00    -0.050 A 
ATOM     28  C   UNL     1      25.248   0.158  21.907  0.00  0.00    +0.044 C 
ENDBRANCH  18  19
ENDBRANCH   9  14
BRANCH   6  13
ATOM     13  C   UNL     1      15.958   7.903  21.121  0.00  0.00    +0.119 C 
BRANCH  13  15
ATOM     15  C   UNL     1      14.868   7.767  20.092  0.00  0.00    -0.033 A 
ATOM     16  C   UNL     1      14.923   8.512  18.914  0.00  0.00    +0.008 A 
ATOM     17  C   UNL     1      13.801   6.897  20.318  0.00  0.00    +0.008 A 
ATOM     20  C   UNL     1      13.911   8.387  17.961  0.00  0.00    +0.046 A 
ATOM     21  C   UNL     1      12.790   6.771  19.366  0.00  0.00    +0.046 A 
ATOM     22  C   UNL     1      12.845   7.516  18.188  0.00  0.00    +0.130 A 
BRANCH  22   5
ATOM      5  O   UNL     1      11.859   7.393  17.257  0.00  0.00    -0.406 OA
BRANCH   5  29
ATOM      1  F   UNL     1      11.523   9.507  16.541  0.00  0.00    -0.133 F 
ATOM      2  F   UNL     1       9.877   8.083  16.349  0.00  0.00    -0.133 F 
ATOM      3  F   UNL     1      10.465   8.850  18.336  0.00  0.00    -0.133 F 
ATOM     29  C   UNL     1      10.917   8.451  17.129  0.00  0.00    +0.575 C 
ENDBRANCH   5  29
ENDBRANCH  22   5
ENDBRANCH  13  15
ENDBRANCH   6  13
TORSDOF 6
ENDMDL
MODEL 2
REMARK VINA RESULT:      -7.9      6.049     11.260
REMARK  Name = 51137411
REMARK  7 active torsions:
REMARK  status: ('A' for Active; 'I' for Inactive)
REMARK    1  A    between atoms: O_5  and  C_22
REMARK    2  A    between atoms: O_5  and  C_29
REMARK    3  A    between atoms: N_6  and  C_13
REMARK    4  A    between atoms: C_9  and  C_14
REMARK    5  A    between atoms: C_13  and  C_15
REMARK    6  A    between atoms: C_18  and  C_19
REMARK    7  A    between atoms: C_27  and  C_28
REMARK                            x       y       z     vdW  Elec       q    Type
REMARK                         _______ _______ _______ _____ _____    ______ ____
ROOT
ATOM      6  N   UNL     1      15.815   7.507  20.975  0.00  0.00    -0.297 NA
ATOM      9  C   UNL     1      13.526   7.275  21.428  0.00  0.00    +0.092 C 
ATOM     10  C   UNL     1      13.761   7.194  19.909  0.00  0.00    +0.029 C 
ATOM     11  C   UNL     1      14.824   7.868  21.991  0.00  0.00    +0.097 C 
ATOM     12  C   UNL     1      15.156   7.769  19.696  0.00  0.00    +0.085 C 
ENDROOT
BRANCH   9  14
ATOM      4  O   UNL     1      12.497   9.291  22.360  0.00  0.00    -0.420 OA
ATOM      7  N   UNL     1      11.031   7.706  21.772  0.00  0.00    -0.112 NA
ATOM      8  N   UNL     1      10.320   8.779  22.279  0.00  0.00    -0.107 NA
ATOM     14  C   UNL     1      12.295   8.050  21.839  0.00  0.00    +0.222 A 
ATOM     18  C   UNL     1      11.216   9.680  22.609  0.00  0.00    +0.248 A 
BRANCH  18  19
ATOM     19  C   UNL     1      11.058  10.986  23.180  0.00  0.00    +0.038 A 
ATOM     23  C   UNL     1      10.958  12.103  22.350  0.00  0.00    +0.013 A 
ATOM     24  C   UNL     1      11.003  11.140  24.565  0.00  0.00    +0.013 A 
ATOM     25  C   UNL     1      10.804  13.373  22.905  0.00  0.00    +0.004 A 
ATOM     26  C   UNL     1      10.849  12.409  25.121  0.00  0.00    +0.004 A 
ATOM     27  C   UNL     1      10.750  13.527  24.291  0.00  0.00    -0.050 A 
ATOM     28  C   UNL     1      10.585  14.885  24.884  0.00  0.00    +0.044 C 
ENDBRANCH  18  19
ENDBRANCH   9  14
BRANCH   6  13
ATOM     13  C   UNL     1      17.057   8.253  21.122  0.00  0.00    +0.119 C 
BRANCH  13  15
ATOM     15  C   UNL     1      18.263   7.374  20.924  0.00  0.00    -0.033 A 
ATOM     16  C   UNL     1      18.137   6.152  20.264  0.00  0.00    +0.008 A 
ATOM     17  C   UNL     1      19.509   7.784  21.402  0.00  0.00    +0.008 A 
ATOM     20  C   UNL     1      19.255   5.338  20.082  0.00  0.00    +0.046 A 
ATOM     21  C   UNL     1      20.627   6.971  21.220  0.00  0.00    +0.046 A 
ATOM     22  C   UNL     1      20.500   5.748  20.560  0.00  0.00    +0.130 A 
BRANCH  22   5
ATOM      5  O   UNL     1      21.591   4.954  20.381  0.00  0.00    -0.406 OA
BRANCH   5  29
ATOM      1  F   UNL     1      22.971   3.297  21.049  0.00  0.00    -0.133 F 
ATOM      2  F   UNL     1      21.537   4.087  22.497  0.00  0.00    -0.133 F 
ATOM      3  F   UNL     1      20.849   2.834  20.812  0.00  0.00    -0.133 F 
ATOM     29  C   UNL     1      21.720   3.792  21.192  0.00  0.00    +0.575 C 
ENDBRANCH   5  29
ENDBRANCH  22   5
ENDBRANCH  13  15
ENDBRANCH   6  13
TORSDOF 6
ENDMDL
MODEL 3
REMARK VINA RESULT:      -7.8     31.007     34.437
REMARK  Name = 51137411
REMARK  7 active torsions:
REMARK  status: ('A' for Active; 'I' for Inactive)
REMARK    1  A    between atoms: O_5  and  C_22
REMARK    2  A    between atoms: O_5  and  C_29
REMARK    3  A    between atoms: N_6  and  C_13
REMARK    4  A    between atoms: C_9  and  C_14
REMARK    5  A    between atoms: C_13  and  C_15
REMARK    6  A    between atoms: C_18  and  C_19
REMARK    7  A    between atoms: C_27  and  C_28
REMARK                            x       y       z     vdW  Elec       q    Type
REMARK                         _______ _______ _______ _____ _____    ______ ____
ROOT
ATOM      6  N   UNL     1     -16.876   3.118  26.677  0.00  0.00    -0.297 NA
ATOM      9  C   UNL     1     -16.405   4.697  25.008  0.00  0.00    +0.092 C 
ATOM     10  C   UNL     1     -17.925   4.468  25.087  0.00  0.00    +0.029 C 
ATOM     11  C   UNL     1     -15.794   3.514  25.772  0.00  0.00    +0.097 C 
ATOM     12  C   UNL     1     -18.088   3.165  25.859  0.00  0.00    +0.085 C 
ENDROOT
BRANCH   9  14
ATOM      4  O   UNL     1     -14.953   5.836  23.399  0.00  0.00    -0.420 OA
ATOM      7  N   UNL     1     -16.121   4.137  22.530  0.00  0.00    -0.112 NA
ATOM      8  N   UNL     1     -15.351   4.686  21.521  0.00  0.00    -0.107 NA
ATOM     14  C   UNL     1     -15.857   4.840  23.607  0.00  0.00    +0.222 A 
ATOM     18  C   UNL     1     -14.686   5.674  22.074  0.00  0.00    +0.248 A 
BRANCH  18  19
ATOM     19  C   UNL     1     -13.740   6.592  21.508  0.00  0.00    +0.038 A 
ATOM     23  C   UNL     1     -14.130   7.897  21.209  0.00  0.00    +0.013 A 
ATOM     24  C   UNL     1     -12.432   6.179  21.257  0.00  0.00    +0.013 A 
ATOM     25  C   UNL     1     -13.210   8.790  20.658  0.00  0.00    +0.004 A 
ATOM     26  C   UNL     1     -11.513   7.071  20.707  0.00  0.00    +0.004 A 
ATOM     27  C   UNL     1     -11.902   8.377  20.406  0.00  0.00    -0.050 A 
ATOM     28  C   UNL     1     -10.919   9.332  19.817  0.00  0.00    +0.044 C 
ENDBRANCH  18  19
ENDBRANCH   9  14
BRANCH   6  13
ATOM     13  C   UNL     1     -16.654   1.805  27.265  0.00  0.00    +0.119 C 
BRANCH  13  15
ATOM     15  C   UNL     1     -15.906   1.894  28.568  0.00  0.00    -0.033 A 
ATOM     16  C   UNL     1     -15.336   3.104  28.964  0.00  0.00    +0.008 A 
ATOM     17  C   UNL     1     -15.781   0.765  29.379  0.00  0.00    +0.008 A 
ATOM     20  C   UNL     1     -14.642   3.186  30.171  0.00  0.00    +0.046 A 
ATOM     21  C   UNL     1     -15.087   0.847  30.585  0.00  0.00    +0.046 A 
ATOM     22  C   UNL     1     -14.518   2.057  30.982  0.00  0.00    +0.130 A 
BRANCH  22   5
ATOM      5  O   UNL     1     -13.841   2.138  32.160  0.00  0.00    -0.406 OA
BRANCH   5  29
ATOM      1  F   UNL     1     -14.092   3.559  33.896  0.00  0.00    -0.133 F 
ATOM      2  F   UNL     1     -15.885   2.629  33.063  0.00  0.00    -0.133 F 
ATOM      3  F   UNL     1     -14.454   1.433  34.248  0.00  0.00    -0.133 F 
ATOM     29  C   UNL     1     -14.579   2.425  33.343  0.00  0.00    +0.575 C 
ENDBRANCH   5  29
ENDBRANCH  22   5
ENDBRANCH  13  15
ENDBRANCH   6  13
TORSDOF 6
ENDMDL
MODEL 4
REMARK VINA RESULT:      -7.4     30.491     34.035
REMARK  Name = 51137411
REMARK  7 active torsions:
REMARK  status: ('A' for Active; 'I' for Inactive)
REMARK    1  A    between atoms: O_5  and  C_22
REMARK    2  A    between atoms: O_5  and  C_29
REMARK    3  A    between atoms: N_6  and  C_13
REMARK    4  A    between atoms: C_9  and  C_14
REMARK    5  A    between atoms: C_13  and  C_15
REMARK    6  A    between atoms: C_18  and  C_19
REMARK    7  A    between atoms: C_27  and  C_28
REMARK                            x       y       z     vdW  Elec       q    Type
REMARK                         _______ _______ _______ _____ _____    ______ ____
ROOT
ATOM      6  N   UNL     1     -16.456   4.447  23.798  0.00  0.00    -0.297 NA
ATOM      9  C   UNL     1     -16.456   2.368  24.884  0.00  0.00    +0.092 C 
ATOM     10  C   UNL     1     -17.607   2.417  23.863  0.00  0.00    +0.029 C 
ATOM     11  C   UNL     1     -16.029   3.832  25.057  0.00  0.00    +0.097 C 
ATOM     12  C   UNL     1     -17.785   3.895  23.541  0.00  0.00    +0.085 C 
ENDROOT
BRANCH   9  14
ATOM      4  O   UNL     1     -16.064   2.059  27.281  0.00  0.00    -0.420 OA
ATOM      7  N   UNL     1     -17.710   0.789  26.454  0.00  0.00    -0.112 NA
ATOM      8  N   UNL     1     -17.597   0.516  27.805  0.00  0.00    -0.107 NA
ATOM     14  C   UNL     1     -16.796   1.694  26.193  0.00  0.00    +0.222 A 
ATOM     18  C   UNL     1     -16.624   1.280  28.246  0.00  0.00    +0.248 A 
BRANCH  18  19
ATOM     19  C   UNL     1     -16.072   1.416  29.562  0.00  0.00    +0.038 A 
ATOM     23  C   UNL     1     -16.120   2.650  30.214  0.00  0.00    +0.013 A 
ATOM     24  C   UNL     1     -15.486   0.318  30.190  0.00  0.00    +0.013 A 
ATOM     25  C   UNL     1     -15.582   2.783  31.493  0.00  0.00    +0.004 A 
ATOM     26  C   UNL     1     -14.948   0.451  31.470  0.00  0.00    +0.004 A 
ATOM     27  C   UNL     1     -14.996   1.684  32.122  0.00  0.00    -0.050 A 
ATOM     28  C   UNL     1     -14.421   1.828  33.491  0.00  0.00    +0.044 C 
ENDBRANCH  18  19
ENDBRANCH   9  14
BRANCH   6  13
ATOM     13  C   UNL     1     -16.462   5.902  23.866  0.00  0.00    +0.119 C 
BRANCH  13  15
ATOM     15  C   UNL     1     -15.492   6.511  22.889  0.00  0.00    -0.033 A 
ATOM     16  C   UNL     1     -14.955   7.775  23.135  0.00  0.00    +0.008 A 
ATOM     17  C   UNL     1     -15.131   5.812  21.737  0.00  0.00    +0.008 A 
ATOM     20  C   UNL     1     -14.057   8.340  22.229  0.00  0.00    +0.046 A 
ATOM     21  C   UNL     1     -14.233   6.376  20.832  0.00  0.00    +0.046 A 
ATOM     22  C   UNL     1     -13.696   7.640  21.077  0.00  0.00    +0.130 A 
BRANCH  22   5
ATOM      5  O   UNL     1     -12.819   8.191  20.195  0.00  0.00    -0.406 OA
BRANCH   5  29
ATOM      1  F   UNL     1     -11.453   6.789  19.070  0.00  0.00    -0.133 F 
ATOM      2  F   UNL     1     -10.589   8.611  19.911  0.00  0.00    -0.133 F 
ATOM      3  F   UNL     1     -11.201   6.951  21.234  0.00  0.00    -0.133 F 
ATOM     29  C   UNL     1     -11.507   7.643  20.117  0.00  0.00    +0.575 C 
ENDBRANCH   5  29
ENDBRANCH  22   5
ENDBRANCH  13  15
ENDBRANCH   6  13
TORSDOF 6
ENDMDL
MODEL 5
REMARK VINA RESULT:      -7.3     27.002     29.861
REMARK  Name = 51137411
REMARK  7 active torsions:
REMARK  status: ('A' for Active; 'I' for Inactive)
REMARK    1  A    between atoms: O_5  and  C_22
REMARK    2  A    between atoms: O_5  and  C_29
REMARK    3  A    between atoms: N_6  and  C_13
REMARK    4  A    between atoms: C_9  and  C_14
REMARK    5  A    between atoms: C_13  and  C_15
REMARK    6  A    between atoms: C_18  and  C_19
REMARK    7  A    between atoms: C_27  and  C_28
REMARK                            x       y       z     vdW  Elec       q    Type
REMARK                         _______ _______ _______ _____ _____    ______ ____
ROOT
ATOM      6  N   UNL     1      -2.014 -10.976  13.881  0.00  0.00    -0.297 NA
ATOM      9  C   UNL     1      -3.124 -10.247  15.814  0.00  0.00    +0.092 C 
ATOM     10  C   UNL     1      -1.686 -10.663  16.171  0.00  0.00    +0.029 C 
ATOM     11  C   UNL     1      -3.369 -10.849  14.424  0.00  0.00    +0.097 C 
ATOM     12  C   UNL     1      -1.212 -11.496  14.987  0.00  0.00    +0.085 C 
ENDROOT
BRANCH   9  14
ATOM      4  O   UNL     1      -5.413 -10.110  16.674  0.00  0.00    -0.420 OA
ATOM      7  N   UNL     1      -4.074 -11.462  17.852  0.00  0.00    -0.112 NA
ATOM      8  N   UNL     1      -5.324 -11.478  18.443  0.00  0.00    -0.107 NA
ATOM     14  C   UNL     1      -4.172 -10.651  16.825  0.00  0.00    +0.222 A 
ATOM     18  C   UNL     1      -6.072 -10.675  17.721  0.00  0.00    +0.248 A 
BRANCH  18  19
ATOM     19  C   UNL     1      -7.452 -10.309  17.865  0.00  0.00    +0.038 A 
ATOM     23  C   UNL     1      -7.977  -9.261  17.108  0.00  0.00    +0.013 A 
ATOM     24  C   UNL     1      -8.267 -10.999  18.761  0.00  0.00    +0.013 A 
ATOM     25  C   UNL     1      -9.317  -8.904  17.248  0.00  0.00    +0.004 A 
ATOM     26  C   UNL     1      -9.608 -10.642  18.901  0.00  0.00    +0.004 A 
ATOM     27  C   UNL     1     -10.134  -9.594  18.144  0.00  0.00    -0.050 A 
ATOM     28  C   UNL     1     -11.568  -9.212  18.293  0.00  0.00    +0.044 C 
ENDBRANCH  18  19
ENDBRANCH   9  14
BRANCH   6  13
ATOM     13  C   UNL     1      -1.965 -11.836  12.708  0.00  0.00    +0.119 C 
BRANCH  13  15
ATOM     15  C   UNL     1      -2.713 -11.240  11.545  0.00  0.00    -0.033 A 
ATOM     16  C   UNL     1      -2.540  -9.895  11.219  0.00  0.00    +0.008 A 
ATOM     17  C   UNL     1      -3.581 -12.035  10.794  0.00  0.00    +0.008 A 
ATOM     20  C   UNL     1      -3.234  -9.344  10.142  0.00  0.00    +0.046 A 
ATOM     21  C   UNL     1      -4.275 -11.484   9.718  0.00  0.00    +0.046 A 
ATOM     22  C   UNL     1      -4.102 -10.138   9.392  0.00  0.00    +0.130 A 
BRANCH  22   5
ATOM      5  O   UNL     1      -4.778  -9.600   8.340  0.00  0.00    -0.406 OA
BRANCH   5  29
ATOM      1  F   UNL     1      -6.775  -9.873   9.355  0.00  0.00    -0.133 F 
ATOM      2  F   UNL     1      -5.946  -7.854   9.246  0.00  0.00    -0.133 F 
ATOM      3  F   UNL     1      -6.733  -8.838   7.431  0.00  0.00    -0.133 F 
ATOM     29  C   UNL     1      -6.057  -9.026   8.583  0.00  0.00    +0.575 C 
ENDBRANCH   5  29
ENDBRANCH  22   5
ENDBRANCH  13  15
ENDBRANCH   6  13
TORSDOF 6
ENDMDL
MODEL 6
REMARK VINA RESULT:      -7.3     27.048     31.585
REMARK  Name = 51137411
REMARK  7 active torsions:
REMARK  status: ('A' for Active; 'I' for Inactive)
REMARK    1  A    between atoms: O_5  and  C_22
REMARK    2  A    between atoms: O_5  and  C_29
REMARK    3  A    between atoms: N_6  and  C_13
REMARK    4  A    between atoms: C_9  and  C_14
REMARK    5  A    between atoms: C_13  and  C_15
REMARK    6  A    between atoms: C_18  and  C_19
REMARK    7  A    between atoms: C_27  and  C_28
REMARK                            x       y       z     vdW  Elec       q    Type
REMARK                         _______ _______ _______ _____ _____    ______ ____
ROOT
ATOM      6  N   UNL     1      -5.043  -9.483   9.174  0.00  0.00    -0.297 NA
ATOM      9  C   UNL     1      -7.290  -8.979   8.730  0.00  0.00    +0.092 C 
ATOM     10  C   UNL     1      -6.729  -9.870   7.607  0.00  0.00    +0.029 C 
ATOM     11  C   UNL     1      -6.049  -8.460   9.469  0.00  0.00    +0.097 C 
ATOM     12  C   UNL     1      -5.216  -9.783   7.753  0.00  0.00    +0.085 C 
ENDROOT
BRANCH   9  14
ATOM      4  O   UNL     1      -9.030  -7.322   9.198  0.00  0.00    -0.420 OA
ATOM      7  N   UNL     1      -8.335  -7.341   7.071  0.00  0.00    -0.112 NA
ATOM      8  N   UNL     1      -9.310  -6.367   7.193  0.00  0.00    -0.107 NA
ATOM     14  C   UNL     1      -8.206  -7.871   8.264  0.00  0.00    +0.222 A 
ATOM     18  C   UNL     1      -9.686  -6.392   8.451  0.00  0.00    +0.248 A 
BRANCH  18  19
ATOM     19  C   UNL     1     -10.663  -5.605   9.146  0.00  0.00    +0.038 A 
ATOM     23  C   UNL     1     -11.679  -6.234   9.867  0.00  0.00    +0.013 A 
ATOM     24  C   UNL     1     -10.598  -4.213   9.102  0.00  0.00    +0.013 A 
ATOM     25  C   UNL     1     -12.630  -5.469  10.543  0.00  0.00    +0.004 A 
ATOM     26  C   UNL     1     -11.548  -3.448   9.778  0.00  0.00    +0.004 A 
ATOM     27  C   UNL     1     -12.565  -4.076  10.498  0.00  0.00    -0.050 A 
ATOM     28  C   UNL     1     -13.582  -3.259  11.221  0.00  0.00    +0.044 C 
ENDBRANCH  18  19
ENDBRANCH   9  14
BRANCH   6  13
ATOM     13  C   UNL     1      -3.692  -9.038   9.487  0.00  0.00    +0.119 C 
BRANCH  13  15
ATOM     15  C   UNL     1      -3.188  -9.640  10.771  0.00  0.00    -0.033 A 
ATOM     16  C   UNL     1      -1.824  -9.619  11.064  0.00  0.00    +0.008 A 
ATOM     17  C   UNL     1      -4.085 -10.222  11.667  0.00  0.00    +0.008 A 
ATOM     20  C   UNL     1      -1.357 -10.178  12.254  0.00  0.00    +0.046 A 
ATOM     21  C   UNL     1      -3.619 -10.781  12.856  0.00  0.00    +0.046 A 
ATOM     22  C   UNL     1      -2.256 -10.759  13.150  0.00  0.00    +0.130 A 
BRANCH  22   5
ATOM      5  O   UNL     1      -1.800 -11.304  14.311  0.00  0.00    -0.406 OA
BRANCH   5  29
ATOM      1  F   UNL     1      -1.117  -9.334  15.177  0.00  0.00    -0.133 F 
ATOM      2  F   UNL     1      -3.014 -10.162  15.877  0.00  0.00    -0.133 F 
ATOM      3  F   UNL     1      -1.101 -11.089  16.478  0.00  0.00    -0.133 F 
ATOM     29  C   UNL     1      -1.766 -10.483  15.473  0.00  0.00    +0.575 C 
ENDBRANCH   5  29
ENDBRANCH  22   5
ENDBRANCH  13  15
ENDBRANCH   6  13
TORSDOF 6
ENDMDL
MODEL 7
REMARK VINA RESULT:      -7.2      5.045      7.913
REMARK  Name = 51137411
REMARK  7 active torsions:
REMARK  status: ('A' for Active; 'I' for Inactive)
REMARK    1  A    between atoms: O_5  and  C_22
REMARK    2  A    between atoms: O_5  and  C_29
REMARK    3  A    between atoms: N_6  and  C_13
REMARK    4  A    between atoms: C_9  and  C_14
REMARK    5  A    between atoms: C_13  and  C_15
REMARK    6  A    between atoms: C_18  and  C_19
REMARK    7  A    between atoms: C_27  and  C_28
REMARK                            x       y       z     vdW  Elec       q    Type
REMARK                         _______ _______ _______ _____ _____    ______ ____
ROOT
ATOM      6  N   UNL     1      11.238  11.060  22.151  0.00  0.00    -0.297 NA
ATOM      9  C   UNL     1      11.267   9.165  20.770  0.00  0.00    +0.092 C 
ATOM     10  C   UNL     1      10.698   8.789  22.149  0.00  0.00    +0.029 C 
ATOM     11  C   UNL     1      11.948  10.523  20.988  0.00  0.00    +0.097 C 
ATOM     12  C   UNL     1      11.111   9.930  23.070  0.00  0.00    +0.085 C 
ENDROOT
BRANCH   9  14
ATOM      4  O   UNL     1      13.490   8.160  20.560  0.00  0.00    -0.420 OA
ATOM      7  N   UNL     1      11.927   7.194  19.283  0.00  0.00    -0.112 NA
ATOM      8  N   UNL     1      13.123   6.533  19.068  0.00  0.00    -0.107 NA
ATOM     14  C   UNL     1      12.189   8.134  20.160  0.00  0.00    +0.222 A 
ATOM     18  C   UNL     1      14.006   7.131  19.834  0.00  0.00    +0.248 A 
BRANCH  18  19
ATOM     19  C   UNL     1      15.405   6.872  20.020  0.00  0.00    +0.038 A 
ATOM     23  C   UNL     1      16.037   7.270  21.199  0.00  0.00    +0.013 A 
ATOM     24  C   UNL     1      16.132   6.223  19.023  0.00  0.00    +0.013 A 
ATOM     25  C   UNL     1      17.396   7.018  21.379  0.00  0.00    +0.004 A 
ATOM     26  C   UNL     1      17.492   5.972  19.204  0.00  0.00    +0.004 A 
ATOM     27  C   UNL     1      18.125   6.369  20.382  0.00  0.00    -0.050 A 
ATOM     28  C   UNL     1      19.579   6.101  20.576  0.00  0.00    +0.044 C 
ENDBRANCH  18  19
ENDBRANCH   9  14
BRANCH   6  13
ATOM     13  C   UNL     1      11.934  12.189  22.753  0.00  0.00    +0.119 C 
BRANCH  13  15
ATOM     15  C   UNL     1      13.411  12.154  22.465  0.00  0.00    -0.033 A 
ATOM     16  C   UNL     1      14.244  11.305  23.193  0.00  0.00    +0.008 A 
ATOM     17  C   UNL     1      13.946  12.972  21.469  0.00  0.00    +0.008 A 
ATOM     20  C   UNL     1      15.613  11.274  22.926  0.00  0.00    +0.046 A 
ATOM     21  C   UNL     1      15.314  12.941  21.202  0.00  0.00    +0.046 A 
ATOM     22  C   UNL     1      16.148  12.093  21.930  0.00  0.00    +0.130 A 
BRANCH  22   5
ATOM      5  O   UNL     1      17.483  12.060  21.670  0.00  0.00    -0.406 OA
BRANCH   5  29
ATOM      1  F   UNL     1      18.885  11.447  20.010  0.00  0.00    -0.133 F 
ATOM      2  F   UNL     1      18.643  10.089  21.705  0.00  0.00    -0.133 F 
ATOM      3  F   UNL     1      17.013  10.342  20.235  0.00  0.00    -0.133 F 
ATOM     29  C   UNL     1      17.997  10.971  20.911  0.00  0.00    +0.575 C 
ENDBRANCH   5  29
ENDBRANCH  22   5
ENDBRANCH  13  15
ENDBRANCH   6  13
TORSDOF 6
ENDMDL
MODEL 8
REMARK VINA RESULT:      -7.0      2.534      3.059
REMARK  Name = 51137411
REMARK  7 active torsions:
REMARK  status: ('A' for Active; 'I' for Inactive)
REMARK    1  A    between atoms: O_5  and  C_22
REMARK    2  A    between atoms: O_5  and  C_29
REMARK    3  A    between atoms: N_6  and  C_13
REMARK    4  A    between atoms: C_9  and  C_14
REMARK    5  A    between atoms: C_13  and  C_15
REMARK    6  A    between atoms: C_18  and  C_19
REMARK    7  A    between atoms: C_27  and  C_28
REMARK                            x       y       z     vdW  Elec       q    Type
REMARK                         _______ _______ _______ _____ _____    ______ ____
ROOT
ATOM      6  N   UNL     1      17.088   7.290  20.854  0.00  0.00    -0.297 NA
ATOM      9  C   UNL     1      19.178   6.584  21.650  0.00  0.00    +0.092 C 
ATOM     10  C   UNL     1      18.994   8.084  21.942  0.00  0.00    +0.029 C 
ATOM     11  C   UNL     1      18.097   6.256  20.611  0.00  0.00    +0.097 C 
ATOM     12  C   UNL     1      17.849   8.524  21.039  0.00  0.00    +0.085 C 
ENDROOT
BRANCH   9  14
ATOM      4  O   UNL     1      21.025   4.977  21.616  0.00  0.00    -0.420 OA
ATOM      7  N   UNL     1      21.422   6.849  20.456  0.00  0.00    -0.112 NA
ATOM      8  N   UNL     1      22.537   6.038  20.352  0.00  0.00    -0.107 NA
ATOM     14  C   UNL     1      20.566   6.190  21.201  0.00  0.00    +0.222 A 
ATOM     18  C   UNL     1      22.260   4.957  21.045  0.00  0.00    +0.248 A 
BRANCH  18  19
ATOM     19  C   UNL     1      23.044   3.780  21.288  0.00  0.00    +0.038 A 
ATOM     23  C   UNL     1      22.855   3.047  22.460  0.00  0.00    +0.013 A 
ATOM     24  C   UNL     1      23.994   3.370  20.353  0.00  0.00    +0.013 A 
ATOM     25  C   UNL     1      23.617   1.903  22.696  0.00  0.00    +0.004 A 
ATOM     26  C   UNL     1      24.756   2.226  20.590  0.00  0.00    +0.004 A 
ATOM     27  C   UNL     1      24.568   1.493  21.762  0.00  0.00    -0.050 A 
ATOM     28  C   UNL     1      25.383   0.270  22.016  0.00  0.00    +0.044 C 
ENDBRANCH  18  19
ENDBRANCH   9  14
BRANCH   6  13
ATOM     13  C   UNL     1      16.124   7.390  19.768  0.00  0.00    +0.119 C 
BRANCH  13  15
ATOM     15  C   UNL     1      14.812   7.963  20.234  0.00  0.00    -0.033 A 
ATOM     16  C   UNL     1      14.152   7.397  21.325  0.00  0.00    +0.008 A 
ATOM     17  C   UNL     1      14.257   9.060  19.574  0.00  0.00    +0.008 A 
ATOM     20  C   UNL     1      12.936   7.929  21.756  0.00  0.00    +0.046 A 
ATOM     21  C   UNL     1      13.042   9.591  20.005  0.00  0.00    +0.046 A 
ATOM     22  C   UNL     1      12.381   9.025  21.096  0.00  0.00    +0.130 A 
BRANCH  22   5
ATOM      5  O   UNL     1      11.196   9.544  21.518  0.00  0.00    -0.406 OA
BRANCH   5  29
ATOM      1  F   UNL     1      12.462  10.761  22.936  0.00  0.00    -0.133 F 
ATOM      2  F   UNL     1      10.960  11.808  21.743  0.00  0.00    -0.133 F 
ATOM      3  F   UNL     1      10.346  10.500  23.415  0.00  0.00    -0.133 F 
ATOM     29  C   UNL     1      11.224  10.659  22.402  0.00  0.00    +0.575 C 
ENDBRANCH   5  29
ENDBRANCH  22   5
ENDBRANCH  13  15
ENDBRANCH   6  13
TORSDOF 6
ENDMDL
MODEL 9
REMARK VINA RESULT:      -6.9     29.331     31.961
REMARK  Name = 51137411
REMARK  7 active torsions:
REMARK  status: ('A' for Active; 'I' for Inactive)
REMARK    1  A    between atoms: O_5  and  C_22
REMARK    2  A    between atoms: O_5  and  C_29
REMARK    3  A    between atoms: N_6  and  C_13
REMARK    4  A    between atoms: C_9  and  C_14
REMARK    5  A    between atoms: C_13  and  C_15
REMARK    6  A    between atoms: C_18  and  C_19
REMARK    7  A    between atoms: C_27  and  C_28
REMARK                            x       y       z     vdW  Elec       q    Type
REMARK                         _______ _______ _______ _____ _____    ______ ____
ROOT
ATOM      6  N   UNL     1     -11.872  -6.489  14.448  0.00  0.00    -0.297 NA
ATOM      9  C   UNL     1     -10.218  -7.922  15.289  0.00  0.00    +0.092 C 
ATOM     10  C   UNL     1     -11.072  -8.674  14.253  0.00  0.00    +0.029 C 
ATOM     11  C   UNL     1     -11.039  -6.674  15.639  0.00  0.00    +0.097 C 
ATOM     12  C   UNL     1     -12.332  -7.832  14.097  0.00  0.00    +0.085 C 
ENDROOT
BRANCH   9  14
ATOM      4  O   UNL     1      -8.531  -9.122  16.599  0.00  0.00    -0.420 OA
ATOM      7  N   UNL     1     -10.576  -9.138  17.509  0.00  0.00    -0.112 NA
ATOM      8  N   UNL     1      -9.730  -9.845  18.344  0.00  0.00    -0.107 NA
ATOM     14  C   UNL     1      -9.833  -8.735  16.504  0.00  0.00    +0.222 A 
ATOM     18  C   UNL     1      -8.548  -9.809  17.773  0.00  0.00    +0.248 A 
BRANCH  18  19
ATOM     19  C   UNL     1      -7.296 -10.371  18.189  0.00  0.00    +0.038 A 
ATOM     23  C   UNL     1      -7.195 -11.009  19.426  0.00  0.00    +0.013 A 
ATOM     24  C   UNL     1      -6.181 -10.282  17.357  0.00  0.00    +0.013 A 
ATOM     25  C   UNL     1      -5.977 -11.556  19.830  0.00  0.00    +0.004 A 
ATOM     26  C   UNL     1      -4.963 -10.828  17.761  0.00  0.00    +0.004 A 
ATOM     27  C   UNL     1      -4.861 -11.466  18.998  0.00  0.00    -0.050 A 
ATOM     28  C   UNL     1      -3.559 -12.051  19.431  0.00  0.00    +0.044 C 
ENDBRANCH  18  19
ENDBRANCH   9  14
BRANCH   6  13
ATOM     13  C   UNL     1     -12.975  -5.568  14.681  0.00  0.00    +0.119 C 
BRANCH  13  15
ATOM     15  C   UNL     1     -13.306  -4.768  13.449  0.00  0.00    -0.033 A 
ATOM     16  C   UNL     1     -12.288  -4.144  12.727  0.00  0.00    +0.008 A 
ATOM     17  C   UNL     1     -14.632  -4.650  13.029  0.00  0.00    +0.008 A 
ATOM     20  C   UNL     1     -12.596  -3.403  11.586  0.00  0.00    +0.046 A 
ATOM     21  C   UNL     1     -14.939  -3.910  11.889  0.00  0.00    +0.046 A 
ATOM     22  C   UNL     1     -13.922  -3.286  11.167  0.00  0.00    +0.130 A 
BRANCH  22   5
ATOM      5  O   UNL     1     -14.221  -2.564  10.053  0.00  0.00    -0.406 OA
BRANCH   5  29
ATOM      1  F   UNL     1     -12.767  -2.756   8.337  0.00  0.00    -0.133 F 
ATOM      2  F   UNL     1     -13.967  -4.503   8.867  0.00  0.00    -0.133 F 
ATOM      3  F   UNL     1     -14.903  -2.762   7.879  0.00  0.00    -0.133 F 
ATOM     29  C   UNL     1     -13.980  -3.155   8.781  0.00  0.00    +0.575 C 
ENDBRANCH   5  29
ENDBRANCH  22   5
ENDBRANCH  13  15
ENDBRANCH   6  13
TORSDOF 6
ENDMDL
MODEL 10
REMARK VINA RESULT:      -6.9     14.092     15.270
REMARK  Name = 51137411
REMARK  7 active torsions:
REMARK  status: ('A' for Active; 'I' for Inactive)
REMARK    1  A    between atoms: O_5  and  C_22
REMARK    2  A    between atoms: O_5  and  C_29
REMARK    3  A    between atoms: N_6  and  C_13
REMARK    4  A    between atoms: C_9  and  C_14
REMARK    5  A    between atoms: C_13  and  C_15
REMARK    6  A    between atoms: C_18  and  C_19
REMARK    7  A    between atoms: C_27  and  C_28
REMARK                            x       y       z     vdW  Elec       q    Type
REMARK                         _______ _______ _______ _____ _____    ______ ____
ROOT
ATOM      6  N   UNL     1      12.678   9.514   5.576  0.00  0.00    -0.297 NA
ATOM      9  C   UNL     1      14.492  10.716   6.451  0.00  0.00    +0.092 C 
ATOM     10  C   UNL     1      13.947  11.438   5.206  0.00  0.00    +0.029 C 
ATOM     11  C   UNL     1      13.886   9.307   6.379  0.00  0.00    +0.097 C 
ATOM     12  C   UNL     1      13.094  10.399   4.490  0.00  0.00    +0.085 C 
ENDROOT
BRANCH   9  14
ATOM      4  O   UNL     1      16.654   9.670   5.972  0.00  0.00    -0.420 OA
ATOM      7  N   UNL     1      16.796  11.554   7.172  0.00  0.00    -0.112 NA
ATOM      8  N   UNL     1      18.079  11.074   6.977  0.00  0.00    -0.107 NA
ATOM     14  C   UNL     1      15.999  10.704   6.569  0.00  0.00    +0.222 A 
ATOM     18  C   UNL     1      17.947   9.974   6.272  0.00  0.00    +0.248 A 
BRANCH  18  19
ATOM     19  C   UNL     1      18.936   9.060   5.779  0.00  0.00    +0.038 A 
ATOM     23  C   UNL     1      20.012   8.694   6.589  0.00  0.00    +0.013 A 
ATOM     24  C   UNL     1      18.823   8.538   4.491  0.00  0.00    +0.013 A 
ATOM     25  C   UNL     1      20.974   7.806   6.110  0.00  0.00    +0.004 A 
ATOM     26  C   UNL     1      19.786   7.650   4.011  0.00  0.00    +0.004 A 
ATOM     27  C   UNL     1      20.861   7.283   4.821  0.00  0.00    -0.050 A 
ATOM     28  C   UNL     1      21.891   6.333   4.309  0.00  0.00    +0.044 C 
ENDBRANCH  18  19
ENDBRANCH   9  14
BRANCH   6  13
ATOM     13  C   UNL     1      12.116   8.262   5.088  0.00  0.00    +0.119 C 
BRANCH  13  15
ATOM     15  C   UNL     1      11.194   7.632   6.098  0.00  0.00    -0.033 A 
ATOM     16  C   UNL     1      10.531   8.428   7.031  0.00  0.00    +0.008 A 
ATOM     17  C   UNL     1      11.004   6.249   6.100  0.00  0.00    +0.008 A 
ATOM     20  C   UNL     1       9.678   7.843   7.967  0.00  0.00    +0.046 A 
ATOM     21  C   UNL     1      10.151   5.664   7.034  0.00  0.00    +0.046 A 
ATOM     22  C   UNL     1       9.488   6.461   7.968  0.00  0.00    +0.130 A 
BRANCH  22   5
ATOM      5  O   UNL     1       8.654   5.890   8.880  0.00  0.00    -0.406 OA
BRANCH   5  29
ATOM      1  F   UNL     1       8.285   4.601  10.696  0.00  0.00    -0.133 F 
ATOM      2  F   UNL     1       9.298   3.698   8.984  0.00  0.00    -0.133 F 
ATOM      3  F   UNL     1      10.344   5.179  10.247  0.00  0.00    -0.133 F 
ATOM     29  C   UNL     1       9.161   4.839   9.694  0.00  0.00    +0.575 C 
ENDBRANCH   5  29
ENDBRANCH  22   5
ENDBRANCH  13  15
ENDBRANCH   6  13
TORSDOF 6
ENDMDL
