MODEL 1
REMARK VINA RESULT:      -6.8      0.000      0.000
REMARK  Name = 75536641
REMARK  9 active torsions:
REMARK  status: ('A' for Active; 'I' for Inactive)
REMARK    1  A    between atoms: O_3  and  C_9
REMARK    2  A    between atoms: O_5  and  C_21
REMARK    3  A    between atoms: O_5  and  C_27
REMARK    4  A    between atoms: N_6  and  C_8
REMARK    5  A    between atoms: N_6  and  C_13
REMARK    6  A    between atoms: N_7  and  C_12
REMARK    7  A    between atoms: C_10  and  C_12
REMARK    8  A    between atoms: C_13  and  C_14
REMARK    9  A    between atoms: C_15  and  C_18
REMARK                            x       y       z     vdW  Elec       q    Type
REMARK                         _______ _______ _______ _____ _____    ______ ____
ROOT
ATOM      2  O   UNL     1      11.175   8.301  20.328  0.00  0.00    -0.371 OA
ATOM      8  C   UNL     1      12.794   6.597  20.606  0.00  0.00    +0.111 C 
ATOM      9  C   UNL     1      11.598   6.250  21.475  0.00  0.00    +0.164 C 
ATOM     10  C   UNL     1      10.702   7.487  21.417  0.00  0.00    +0.165 C 
ATOM     11  C   UNL     1      12.188   7.579  19.617  0.00  0.00    +0.181 C 
ENDROOT
BRANCH   9   3
ATOM      3  O   UNL     1      10.918   5.152  20.861  0.00  0.00    -0.388 OA
ATOM     29  H   UNL     1      11.481   4.833  20.134  0.00  0.00    +0.210 HD
ENDBRANCH   9   3
BRANCH   8   6
ATOM      6  N   UNL     1      13.857   7.233  21.382  0.00  0.00    -0.305 NA
ATOM     28  H   UNL     1      13.440   7.854  22.075  0.00  0.00    +0.123 HD
BRANCH   6  13
ATOM     13  C   UNL     1      14.733   8.022  20.523  0.00  0.00    +0.116 C 
BRANCH  13  14
ATOM     14  C   UNL     1      16.128   7.460  20.479  0.00  0.00    -0.033 A 
ATOM     16  C   UNL     1      17.112   7.966  21.330  0.00  0.00    +0.008 A 
ATOM     17  C   UNL     1      16.440   6.434  19.587  0.00  0.00    +0.008 A 
ATOM     19  C   UNL     1      18.405   7.446  21.289  0.00  0.00    +0.046 A 
ATOM     20  C   UNL     1      17.734   5.915  19.545  0.00  0.00    +0.046 A 
ATOM     21  C   UNL     1      18.716   6.421  20.397  0.00  0.00    +0.120 A 
BRANCH  21   5
ATOM      5  O   UNL     1      19.978   5.914  20.356  0.00  0.00    -0.495 OA
ATOM     27  C   UNL     1      21.040   6.783  20.749  0.00  0.00    +0.277 C 
ENDBRANCH  21   5
ENDBRANCH  13  14
ENDBRANCH   6  13
ENDBRANCH   8   6
BRANCH  10  12
ATOM     12  C   UNL     1      10.734   8.321  22.689  0.00  0.00    +0.138 C 
BRANCH  12   7
ATOM      4  O   UNL     1      10.656  11.031  23.633  0.00  0.00    -0.270 OA
ATOM      7  N   UNL     1      11.811   9.270  22.662  0.00  0.00    -0.309 N 
ATOM     15  C   UNL     1      11.683  10.568  23.144  0.00  0.00    +0.244 C 
ATOM     30  H   UNL     1      12.663   8.977  22.195  0.00  0.00    +0.149 HD
BRANCH  15  18
ATOM      1  F   UNL     1      16.214  13.850  22.672  0.00  0.00    -0.205 F 
ATOM     18  C   UNL     1      12.882  11.436  23.020  0.00  0.00    +0.037 A 
ATOM     22  C   UNL     1      13.907  11.088  22.139  0.00  0.00    +0.016 A 
ATOM     23  C   UNL     1      12.984  12.600  23.782  0.00  0.00    +0.016 A 
ATOM     24  C   UNL     1      15.033  11.903  22.022  0.00  0.00    +0.039 A 
ATOM     25  C   UNL     1      14.109  13.414  23.665  0.00  0.00    +0.039 A 
ATOM     26  C   UNL     1      15.134  13.066  22.785  0.00  0.00    +0.123 A 
ENDBRANCH  15  18
ENDBRANCH  12   7
ENDBRANCH  10  12
TORSDOF 8
ENDMDL
MODEL 2
REMARK VINA RESULT:      -6.6      3.658      4.853
REMARK  Name = 75536641
REMARK  9 active torsions:
REMARK  status: ('A' for Active; 'I' for Inactive)
REMARK    1  A    between atoms: O_3  and  C_9
REMARK    2  A    between atoms: O_5  and  C_21
REMARK    3  A    between atoms: O_5  and  C_27
REMARK    4  A    between atoms: N_6  and  C_8
REMARK    5  A    between atoms: N_6  and  C_13
REMARK    6  A    between atoms: N_7  and  C_12
REMARK    7  A    between atoms: C_10  and  C_12
REMARK    8  A    between atoms: C_13  and  C_14
REMARK    9  A    between atoms: C_15  and  C_18
REMARK                            x       y       z     vdW  Elec       q    Type
REMARK                         _______ _______ _______ _____ _____    ______ ____
ROOT
ATOM      2  O   UNL     1      12.078   6.893  19.408  0.00  0.00    -0.371 OA
ATOM      8  C   UNL     1      13.593   8.374  20.464  0.00  0.00    +0.111 C 
ATOM      9  C   UNL     1      12.453   9.201  19.893  0.00  0.00    +0.164 C 
ATOM     10  C   UNL     1      11.644   8.218  19.048  0.00  0.00    +0.165 C 
ATOM     11  C   UNL     1      12.974   6.987  20.522  0.00  0.00    +0.181 C 
ENDROOT
BRANCH   9   3
ATOM      3  O   UNL     1      11.650   9.648  20.988  0.00  0.00    -0.388 OA
ATOM     29  H   UNL     1      11.702  10.619  21.007  0.00  0.00    +0.210 HD
ENDBRANCH   9   3
BRANCH   8   6
ATOM      6  N   UNL     1      14.759   8.384  19.583  0.00  0.00    -0.305 NA
ATOM     28  H   UNL     1      14.505   8.814  18.695  0.00  0.00    +0.123 HD
BRANCH   6  13
ATOM     13  C   UNL     1      15.231   7.029  19.322  0.00  0.00    +0.116 C 
BRANCH  13  14
ATOM     14  C   UNL     1      16.617   6.804  19.865  0.00  0.00    -0.033 A 
ATOM     16  C   UNL     1      17.075   7.559  20.945  0.00  0.00    +0.008 A 
ATOM     17  C   UNL     1      17.444   5.841  19.288  0.00  0.00    +0.008 A 
ATOM     19  C   UNL     1      18.359   7.351  21.447  0.00  0.00    +0.046 A 
ATOM     20  C   UNL     1      18.729   5.633  19.790  0.00  0.00    +0.046 A 
ATOM     21  C   UNL     1      19.186   6.388  20.870  0.00  0.00    +0.120 A 
BRANCH  21   5
ATOM      5  O   UNL     1      20.440   6.185  21.359  0.00  0.00    -0.495 OA
ATOM     27  C   UNL     1      21.288   5.304  20.623  0.00  0.00    +0.277 C 
ENDBRANCH  21   5
ENDBRANCH  13  14
ENDBRANCH   6  13
ENDBRANCH   8   6
BRANCH  10  12
ATOM     12  C   UNL     1      11.843   8.397  17.550  0.00  0.00    +0.138 C 
BRANCH  12   7
ATOM      4  O   UNL     1      13.412   8.583  15.154  0.00  0.00    -0.270 OA
ATOM      7  N   UNL     1      12.872   9.358  17.272  0.00  0.00    -0.309 N 
ATOM     15  C   UNL     1      13.584   9.374  16.078  0.00  0.00    +0.244 C 
ATOM     30  H   UNL     1      13.122   9.988  18.028  0.00  0.00    +0.149 HD
BRANCH  15  18
ATOM      1  F   UNL     1      17.559  13.312  15.615  0.00  0.00    -0.205 F 
ATOM     18  C   UNL     1      14.636  10.415  15.955  0.00  0.00    +0.037 A 
ATOM     22  C   UNL     1      15.353  10.547  14.766  0.00  0.00    +0.016 A 
ATOM     23  C   UNL     1      14.908  11.263  17.029  0.00  0.00    +0.016 A 
ATOM     24  C   UNL     1      16.340  11.525  14.650  0.00  0.00    +0.039 A 
ATOM     25  C   UNL     1      15.895  12.240  16.915  0.00  0.00    +0.039 A 
ATOM     26  C   UNL     1      16.611  12.372  15.725  0.00  0.00    +0.123 A 
ENDBRANCH  15  18
ENDBRANCH  12   7
ENDBRANCH  10  12
TORSDOF 8
ENDMDL
MODEL 3
REMARK VINA RESULT:      -6.4     27.140     29.738
REMARK  Name = 75536641
REMARK  9 active torsions:
REMARK  status: ('A' for Active; 'I' for Inactive)
REMARK    1  A    between atoms: O_3  and  C_9
REMARK    2  A    between atoms: O_5  and  C_21
REMARK    3  A    between atoms: O_5  and  C_27
REMARK    4  A    between atoms: N_6  and  C_8
REMARK    5  A    between atoms: N_6  and  C_13
REMARK    6  A    between atoms: N_7  and  C_12
REMARK    7  A    between atoms: C_10  and  C_12
REMARK    8  A    between atoms: C_13  and  C_14
REMARK    9  A    between atoms: C_15  and  C_18
REMARK                            x       y       z     vdW  Elec       q    Type
REMARK                         _______ _______ _______ _____ _____    ______ ____
ROOT
ATOM      2  O   UNL     1     -10.722  -7.190  16.970  0.00  0.00    -0.371 OA
ATOM      8  C   UNL     1      -9.786  -8.546  15.269  0.00  0.00    +0.111 C 
ATOM      9  C   UNL     1     -10.937  -9.313  15.898  0.00  0.00    +0.164 C 
ATOM     10  C   UNL     1     -11.342  -8.481  17.114  0.00  0.00    +0.165 C 
ATOM     11  C   UNL     1     -10.103  -7.117  15.680  0.00  0.00    +0.181 C 
ENDROOT
BRANCH   9   3
ATOM      3  O   UNL     1     -12.016  -9.324  14.959  0.00  0.00    -0.388 OA
ATOM     29  H   UNL     1     -11.821 -10.016  14.304  0.00  0.00    +0.210 HD
ENDBRANCH   9   3
BRANCH   8   6
ATOM      6  N   UNL     1      -8.497  -8.967  15.814  0.00  0.00    -0.305 NA
ATOM     28  H   UNL     1      -7.832  -8.198  15.734  0.00  0.00    +0.123 HD
BRANCH   6  13
ATOM     13  C   UNL     1      -7.968 -10.113  15.084  0.00  0.00    +0.116 C 
BRANCH  13  14
ATOM     14  C   UNL     1      -6.513 -10.348  15.388  0.00  0.00    -0.033 A 
ATOM     16  C   UNL     1      -5.817 -11.360  14.724  0.00  0.00    +0.008 A 
ATOM     17  C   UNL     1      -5.860  -9.557  16.333  0.00  0.00    +0.008 A 
ATOM     19  C   UNL     1      -4.468 -11.578  15.006  0.00  0.00    +0.046 A 
ATOM     20  C   UNL     1      -4.511  -9.776  16.614  0.00  0.00    +0.046 A 
ATOM     21  C   UNL     1      -3.816 -10.787  15.950  0.00  0.00    +0.120 A 
BRANCH  21   5
ATOM      5  O   UNL     1      -2.501 -11.001  16.226  0.00  0.00    -0.495 OA
ATOM     27  C   UNL     1      -1.638 -11.253  15.118  0.00  0.00    +0.277 C 
ENDBRANCH  21   5
ENDBRANCH  13  14
ENDBRANCH   6  13
ENDBRANCH   8   6
BRANCH  10  12
ATOM     12  C   UNL     1     -10.894  -9.082  18.438  0.00  0.00    +0.138 C 
BRANCH  12   7
ATOM      4  O   UNL     1      -9.710 -10.816  20.396  0.00  0.00    -0.270 OA
ATOM      7  N   UNL     1      -9.710  -9.877  18.275  0.00  0.00    -0.309 N 
ATOM     15  C   UNL     1      -9.206 -10.693  19.283  0.00  0.00    +0.244 C 
ATOM     30  H   UNL     1      -9.199  -9.758  17.407  0.00  0.00    +0.149 HD
BRANCH  15  18
ATOM      1  F   UNL     1      -4.486 -13.487  18.086  0.00  0.00    -0.205 F 
ATOM     18  C   UNL     1      -7.957 -11.431  18.966  0.00  0.00    +0.037 A 
ATOM     22  C   UNL     1      -6.761 -11.080  19.591  0.00  0.00    +0.016 A 
ATOM     23  C   UNL     1      -7.980 -12.478  18.043  0.00  0.00    +0.016 A 
ATOM     24  C   UNL     1      -5.588 -11.774  19.294  0.00  0.00    +0.039 A 
ATOM     25  C   UNL     1      -6.808 -13.172  17.746  0.00  0.00    +0.039 A 
ATOM     26  C   UNL     1      -5.611 -12.820  18.371  0.00  0.00    +0.123 A 
ENDBRANCH  15  18
ENDBRANCH  12   7
ENDBRANCH  10  12
TORSDOF 8
ENDMDL
MODEL 4
REMARK VINA RESULT:      -6.4      3.565      6.739
REMARK  Name = 75536641
REMARK  9 active torsions:
REMARK  status: ('A' for Active; 'I' for Inactive)
REMARK    1  A    between atoms: O_3  and  C_9
REMARK    2  A    between atoms: O_5  and  C_21
REMARK    3  A    between atoms: O_5  and  C_27
REMARK    4  A    between atoms: N_6  and  C_8
REMARK    5  A    between atoms: N_6  and  C_13
REMARK    6  A    between atoms: N_7  and  C_12
REMARK    7  A    between atoms: C_10  and  C_12
REMARK    8  A    between atoms: C_13  and  C_14
REMARK    9  A    between atoms: C_15  and  C_18
REMARK                            x       y       z     vdW  Elec       q    Type
REMARK                         _______ _______ _______ _____ _____    ______ ____
ROOT
ATOM      2  O   UNL     1      16.241  12.420  18.397  0.00  0.00    -0.371 OA
ATOM      8  C   UNL     1      14.357  11.574  17.239  0.00  0.00    +0.111 C 
ATOM      9  C   UNL     1      13.854  12.370  18.431  0.00  0.00    +0.164 C 
ATOM     10  C   UNL     1      15.108  12.692  19.242  0.00  0.00    +0.165 C 
ATOM     11  C   UNL     1      15.770  12.111  17.079  0.00  0.00    +0.181 C 
ENDROOT
BRANCH   9   3
ATOM      3  O   UNL     1      13.292  13.587  17.935  0.00  0.00    -0.388 OA
ATOM     29  H   UNL     1      12.590  13.854  18.552  0.00  0.00    +0.210 HD
ENDBRANCH   9   3
BRANCH   8   6
ATOM      6  N   UNL     1      14.378  10.139  17.519  0.00  0.00    -0.305 NA
ATOM     28  H   UNL     1      15.059   9.688  16.909  0.00  0.00    +0.123 HD
BRANCH   6  13
ATOM     13  C   UNL     1      13.071   9.539  17.275  0.00  0.00    +0.116 C 
BRANCH  13  14
ATOM     14  C   UNL     1      12.568   8.785  18.477  0.00  0.00    -0.033 A 
ATOM     16  C   UNL     1      11.949   9.472  19.522  0.00  0.00    +0.008 A 
ATOM     17  C   UNL     1      12.721   7.401  18.548  0.00  0.00    +0.008 A 
ATOM     19  C   UNL     1      11.482   8.774  20.636  0.00  0.00    +0.046 A 
ATOM     20  C   UNL     1      12.255   6.703  19.662  0.00  0.00    +0.046 A 
ATOM     21  C   UNL     1      11.635   7.390  20.706  0.00  0.00    +0.120 A 
BRANCH  21   5
ATOM      5  O   UNL     1      11.182   6.709  21.793  0.00  0.00    -0.495 OA
ATOM     27  C   UNL     1      11.013   5.299  21.651  0.00  0.00    +0.277 C 
ENDBRANCH  21   5
ENDBRANCH  13  14
ENDBRANCH   6  13
ENDBRANCH   8   6
BRANCH  10  12
ATOM     12  C   UNL     1      15.244  11.859  20.508  0.00  0.00    +0.138 C 
BRANCH  12   7
ATOM      4  O   UNL     1      14.720   9.311  21.724  0.00  0.00    -0.270 OA
ATOM      7  N   UNL     1      15.934  10.627  20.249  0.00  0.00    -0.309 N 
ATOM     15  C   UNL     1      15.611   9.434  20.887  0.00  0.00    +0.244 C 
ATOM     30  H   UNL     1      16.736  10.677  19.629  0.00  0.00    +0.149 HD
BRANCH  15  18
ATOM      1  F   UNL     1      18.733   4.969  19.534  0.00  0.00    -0.205 F 
ATOM     18  C   UNL     1      16.438   8.253  20.529  0.00  0.00    +0.037 A 
ATOM     22  C   UNL     1      17.686   8.069  21.123  0.00  0.00    +0.016 A 
ATOM     23  C   UNL     1      15.965   7.327  19.599  0.00  0.00    +0.016 A 
ATOM     24  C   UNL     1      18.462   6.960  20.787  0.00  0.00    +0.039 A 
ATOM     25  C   UNL     1      16.740   6.218  19.262  0.00  0.00    +0.039 A 
ATOM     26  C   UNL     1      17.989   6.034  19.857  0.00  0.00    +0.123 A 
ENDBRANCH  15  18
ENDBRANCH  12   7
ENDBRANCH  10  12
TORSDOF 8
ENDMDL
MODEL 5
REMARK VINA RESULT:      -6.3     26.604     29.083
REMARK  Name = 75536641
REMARK  9 active torsions:
REMARK  status: ('A' for Active; 'I' for Inactive)
REMARK    1  A    between atoms: O_3  and  C_9
REMARK    2  A    between atoms: O_5  and  C_21
REMARK    3  A    between atoms: O_5  and  C_27
REMARK    4  A    between atoms: N_6  and  C_8
REMARK    5  A    between atoms: N_6  and  C_13
REMARK    6  A    between atoms: N_7  and  C_12
REMARK    7  A    between atoms: C_10  and  C_12
REMARK    8  A    between atoms: C_13  and  C_14
REMARK    9  A    between atoms: C_15  and  C_18
REMARK                            x       y       z     vdW  Elec       q    Type
REMARK                         _______ _______ _______ _____ _____    ______ ____
ROOT
ATOM      2  O   UNL     1      -7.924 -11.817  17.741  0.00  0.00    -0.371 OA
ATOM      8  C   UNL     1      -5.818 -11.962  18.813  0.00  0.00    +0.111 C 
ATOM      9  C   UNL     1      -6.252 -10.506  18.830  0.00  0.00    +0.164 C 
ATOM     10  C   UNL     1      -7.493 -10.458  17.939  0.00  0.00    +0.165 C 
ATOM     11  C   UNL     1      -7.137 -12.678  18.574  0.00  0.00    +0.181 C 
ENDROOT
BRANCH   9   3
ATOM      3  O   UNL     1      -6.626 -10.180  20.171  0.00  0.00    -0.388 OA
ATOM     29  H   UNL     1      -7.121  -9.344  20.138  0.00  0.00    +0.210 HD
ENDBRANCH   9   3
BRANCH   8   6
ATOM      6  N   UNL     1      -4.879 -12.231  17.725  0.00  0.00    -0.305 NA
ATOM     28  H   UNL     1      -4.509 -13.176  17.827  0.00  0.00    +0.123 HD
BRANCH   6  13
ATOM     13  C   UNL     1      -3.763 -11.293  17.752  0.00  0.00    +0.116 C 
BRANCH  13  14
ATOM     14  C   UNL     1      -3.245 -10.998  16.370  0.00  0.00    -0.033 A 
ATOM     16  C   UNL     1      -4.098 -11.096  15.270  0.00  0.00    +0.008 A 
ATOM     17  C   UNL     1      -1.912 -10.629  16.187  0.00  0.00    +0.008 A 
ATOM     19  C   UNL     1      -3.618 -10.823  13.988  0.00  0.00    +0.046 A 
ATOM     20  C   UNL     1      -1.433 -10.357  14.906  0.00  0.00    +0.046 A 
ATOM     21  C   UNL     1      -2.286 -10.454  13.807  0.00  0.00    +0.120 A 
BRANCH  21   5
ATOM      5  O   UNL     1      -1.817 -10.189  12.557  0.00  0.00    -0.495 OA
ATOM     27  C   UNL     1      -2.669 -10.522  11.461  0.00  0.00    +0.277 C 
ENDBRANCH  21   5
ENDBRANCH  13  14
ENDBRANCH   6  13
ENDBRANCH   8   6
BRANCH  10  12
ATOM     12  C   UNL     1      -7.239  -9.833  16.576  0.00  0.00    +0.138 C 
BRANCH  12   7
ATOM      4  O   UNL     1      -9.818 -10.387  15.442  0.00  0.00    -0.270 OA
ATOM      7  N   UNL     1      -8.254  -8.873  16.246  0.00  0.00    -0.309 N 
ATOM     15  C   UNL     1      -9.481  -9.233  15.697  0.00  0.00    +0.244 C 
ATOM     30  H   UNL     1      -8.008  -7.895  16.355  0.00  0.00    +0.149 HD
BRANCH  15  18
ATOM      1  F   UNL     1     -13.007  -5.024  14.527  0.00  0.00    -0.205 F 
ATOM     18  C   UNL     1     -10.413  -8.120  15.387  0.00  0.00    +0.037 A 
ATOM     22  C   UNL     1     -11.224  -8.184  14.254  0.00  0.00    +0.016 A 
ATOM     23  C   UNL     1     -10.479  -7.009  16.229  0.00  0.00    +0.016 A 
ATOM     24  C   UNL     1     -12.100  -7.138  13.963  0.00  0.00    +0.039 A 
ATOM     25  C   UNL     1     -11.354  -5.964  15.938  0.00  0.00    +0.039 A 
ATOM     26  C   UNL     1     -12.165  -6.028  14.806  0.00  0.00    +0.123 A 
ENDBRANCH  15  18
ENDBRANCH  12   7
ENDBRANCH  10  12
TORSDOF 8
ENDMDL
MODEL 6
REMARK VINA RESULT:      -6.2     27.075     29.651
REMARK  Name = 75536641
REMARK  9 active torsions:
REMARK  status: ('A' for Active; 'I' for Inactive)
REMARK    1  A    between atoms: O_3  and  C_9
REMARK    2  A    between atoms: O_5  and  C_21
REMARK    3  A    between atoms: O_5  and  C_27
REMARK    4  A    between atoms: N_6  and  C_8
REMARK    5  A    between atoms: N_6  and  C_13
REMARK    6  A    between atoms: N_7  and  C_12
REMARK    7  A    between atoms: C_10  and  C_12
REMARK    8  A    between atoms: C_13  and  C_14
REMARK    9  A    between atoms: C_15  and  C_18
REMARK                            x       y       z     vdW  Elec       q    Type
REMARK                         _______ _______ _______ _____ _____    ______ ____
ROOT
ATOM      2  O   UNL     1      -2.889 -10.309  13.378  0.00  0.00    -0.371 OA
ATOM      8  C   UNL     1      -2.252 -12.054  14.845  0.00  0.00    +0.111 C 
ATOM      9  C   UNL     1      -2.397 -12.644  13.453  0.00  0.00    +0.164 C 
ATOM     10  C   UNL     1      -3.016 -11.525  12.617  0.00  0.00    +0.165 C 
ATOM     11  C   UNL     1      -2.096 -10.573  14.542  0.00  0.00    +0.181 C 
ENDROOT
BRANCH   9   3
ATOM      3  O   UNL     1      -1.084 -12.923  12.960  0.00  0.00    -0.388 OA
ATOM     29  H   UNL     1      -0.459 -12.744  13.683  0.00  0.00    +0.210 HD
ENDBRANCH   9   3
BRANCH   8   6
ATOM      6  N   UNL     1      -3.442 -12.293  15.658  0.00  0.00    -0.305 NA
ATOM     28  H   UNL     1      -4.270 -12.232  15.066  0.00  0.00    +0.123 HD
BRANCH   6  13
ATOM     13  C   UNL     1      -3.560 -11.302  16.721  0.00  0.00    +0.116 C 
BRANCH  13  14
ATOM     14  C   UNL     1      -4.719 -11.595  17.636  0.00  0.00    -0.033 A 
ATOM     16  C   UNL     1      -5.450 -12.773  17.480  0.00  0.00    +0.008 A 
ATOM     17  C   UNL     1      -5.063 -10.689  18.639  0.00  0.00    +0.008 A 
ATOM     19  C   UNL     1      -6.524 -13.045  18.327  0.00  0.00    +0.046 A 
ATOM     20  C   UNL     1      -6.138 -10.961  19.486  0.00  0.00    +0.046 A 
ATOM     21  C   UNL     1      -6.868 -12.139  19.329  0.00  0.00    +0.120 A 
BRANCH  21   5
ATOM      5  O   UNL     1      -7.917 -12.403  20.155  0.00  0.00    -0.495 OA
ATOM     27  C   UNL     1      -9.166 -11.794  19.831  0.00  0.00    +0.277 C 
ENDBRANCH  21   5
ENDBRANCH  13  14
ENDBRANCH   6  13
ENDBRANCH   8   6
BRANCH  10  12
ATOM     12  C   UNL     1      -4.489 -11.743  12.305  0.00  0.00    +0.138 C 
BRANCH  12   7
ATOM      4  O   UNL     1      -6.870 -12.927  13.388  0.00  0.00    -0.270 OA
ATOM      7  N   UNL     1      -5.326 -11.196  13.335  0.00  0.00    -0.309 N 
ATOM     15  C   UNL     1      -6.467 -11.843  13.801  0.00  0.00    +0.244 C 
ATOM     30  H   UNL     1      -5.096 -10.263  13.661  0.00  0.00    +0.149 HD
BRANCH  15  18
ATOM      1  F   UNL     1      -9.390  -9.160  17.773  0.00  0.00    -0.205 F 
ATOM     18  C   UNL     1      -7.241 -11.133  14.851  0.00  0.00    +0.037 A 
ATOM     22  C   UNL     1      -8.440 -11.671  15.318  0.00  0.00    +0.016 A 
ATOM     23  C   UNL     1      -6.769  -9.927  15.372  0.00  0.00    +0.016 A 
ATOM     24  C   UNL     1      -9.166 -11.005  16.305  0.00  0.00    +0.039 A 
ATOM     25  C   UNL     1      -7.494  -9.261  16.358  0.00  0.00    +0.039 A 
ATOM     26  C   UNL     1      -8.693  -9.800  16.825  0.00  0.00    +0.123 A 
ENDBRANCH  15  18
ENDBRANCH  12   7
ENDBRANCH  10  12
TORSDOF 8
ENDMDL
MODEL 7
REMARK VINA RESULT:      -6.1     16.190     18.553
REMARK  Name = 75536641
REMARK  9 active torsions:
REMARK  status: ('A' for Active; 'I' for Inactive)
REMARK    1  A    between atoms: O_3  and  C_9
REMARK    2  A    between atoms: O_5  and  C_21
REMARK    3  A    between atoms: O_5  and  C_27
REMARK    4  A    between atoms: N_6  and  C_8
REMARK    5  A    between atoms: N_6  and  C_13
REMARK    6  A    between atoms: N_7  and  C_12
REMARK    7  A    between atoms: C_10  and  C_12
REMARK    8  A    between atoms: C_13  and  C_14
REMARK    9  A    between atoms: C_15  and  C_18
REMARK                            x       y       z     vdW  Elec       q    Type
REMARK                         _______ _______ _______ _____ _____    ______ ____
ROOT
ATOM      2  O   UNL     1      14.093   3.423   1.616  0.00  0.00    -0.371 OA
ATOM      8  C   UNL     1      11.842   4.158   1.620  0.00  0.00    +0.111 C 
ATOM      9  C   UNL     1      12.626   5.058   0.680  0.00  0.00    +0.164 C 
ATOM     10  C   UNL     1      14.088   4.670   0.896  0.00  0.00    +0.165 C 
ATOM     11  C   UNL     1      12.748   2.941   1.714  0.00  0.00    +0.181 C 
ENDROOT
BRANCH   9   3
ATOM      3  O   UNL     1      12.247   4.723  -0.658  0.00  0.00    -0.388 OA
ATOM     29  H   UNL     1      11.276   4.753  -0.699  0.00  0.00    +0.210 HD
ENDBRANCH   9   3
BRANCH   8   6
ATOM      6  N   UNL     1      11.668   4.775   2.934  0.00  0.00    -0.305 NA
ATOM     28  H   UNL     1      11.599   4.043   3.641  0.00  0.00    +0.123 HD
BRANCH   6  13
ATOM     13  C   UNL     1      10.451   5.577   2.980  0.00  0.00    +0.116 C 
BRANCH  13  14
ATOM     14  C   UNL     1       9.976   5.796   4.391  0.00  0.00    -0.033 A 
ATOM     16  C   UNL     1       8.971   6.728   4.652  0.00  0.00    +0.008 A 
ATOM     17  C   UNL     1      10.542   5.069   5.439  0.00  0.00    +0.008 A 
ATOM     19  C   UNL     1       8.531   6.931   5.960  0.00  0.00    +0.046 A 
ATOM     20  C   UNL     1      10.102   5.274   6.747  0.00  0.00    +0.046 A 
ATOM     21  C   UNL     1       9.096   6.204   7.007  0.00  0.00    +0.120 A 
BRANCH  21   5
ATOM      5  O   UNL     1       8.669   6.404   8.283  0.00  0.00    -0.495 OA
ATOM     27  C   UNL     1       9.107   5.467   9.268  0.00  0.00    +0.277 C 
ENDBRANCH  21   5
ENDBRANCH  13  14
ENDBRANCH   6  13
ENDBRANCH   8   6
BRANCH  10  12
ATOM     12  C   UNL     1      14.875   5.692   1.703  0.00  0.00    +0.138 C 
BRANCH  12   7
ATOM      4  O   UNL     1      15.656   7.763   3.532  0.00  0.00    -0.270 OA
ATOM      7  N   UNL     1      14.076   6.252   2.756  0.00  0.00    -0.309 N 
ATOM     15  C   UNL     1      14.538   7.258   3.598  0.00  0.00    +0.244 C 
ATOM     30  H   UNL     1      13.172   5.821   2.918  0.00  0.00    +0.149 HD
BRANCH  15  18
ATOM      1  F   UNL     1      10.989   8.972   7.597  0.00  0.00    -0.205 F 
ATOM     18  C   UNL     1      13.599   7.710   4.656  0.00  0.00    +0.037 A 
ATOM     22  C   UNL     1      13.764   7.272   5.970  0.00  0.00    +0.016 A 
ATOM     23  C   UNL     1      12.552   8.575   4.337  0.00  0.00    +0.016 A 
ATOM     24  C   UNL     1      12.882   7.697   6.964  0.00  0.00    +0.039 A 
ATOM     25  C   UNL     1      11.671   9.001   5.329  0.00  0.00    +0.039 A 
ATOM     26  C   UNL     1      11.835   8.562   6.643  0.00  0.00    +0.123 A 
ENDBRANCH  15  18
ENDBRANCH  12   7
ENDBRANCH  10  12
TORSDOF 8
ENDMDL
MODEL 8
REMARK VINA RESULT:      -6.1     16.830     19.218
REMARK  Name = 75536641
REMARK  9 active torsions:
REMARK  status: ('A' for Active; 'I' for Inactive)
REMARK    1  A    between atoms: O_3  and  C_9
REMARK    2  A    between atoms: O_5  and  C_21
REMARK    3  A    between atoms: O_5  and  C_27
REMARK    4  A    between atoms: N_6  and  C_8
REMARK    5  A    between atoms: N_6  and  C_13
REMARK    6  A    between atoms: N_7  and  C_12
REMARK    7  A    between atoms: C_10  and  C_12
REMARK    8  A    between atoms: C_13  and  C_14
REMARK    9  A    between atoms: C_15  and  C_18
REMARK                            x       y       z     vdW  Elec       q    Type
REMARK                         _______ _______ _______ _____ _____    ______ ____
ROOT
ATOM      2  O   UNL     1      14.293   5.549  -0.117  0.00  0.00    -0.371 OA
ATOM      8  C   UNL     1      14.832   5.405   2.184  0.00  0.00    +0.111 C 
ATOM      9  C   UNL     1      14.407   4.023   1.716  0.00  0.00    +0.164 C 
ATOM     10  C   UNL     1      13.869   4.239   0.302  0.00  0.00    +0.165 C 
ATOM     11  C   UNL     1      15.182   6.085   0.870  0.00  0.00    +0.181 C 
ENDROOT
BRANCH   9   3
ATOM      3  O   UNL     1      15.579   3.206   1.651  0.00  0.00    -0.388 OA
ATOM     29  H   UNL     1      15.378   2.459   1.062  0.00  0.00    +0.210 HD
ENDBRANCH   9   3
BRANCH   8   6
ATOM      6  N   UNL     1      13.739   6.106   2.855  0.00  0.00    -0.305 NA
ATOM     28  H   UNL     1      13.068   6.426   2.156  0.00  0.00    +0.123 HD
BRANCH   6  13
ATOM     13  C   UNL     1      14.232   7.266   3.587  0.00  0.00    +0.116 C 
BRANCH  13  14
ATOM     14  C   UNL     1      13.289   7.678   4.685  0.00  0.00    -0.033 A 
ATOM     16  C   UNL     1      13.335   7.035   5.923  0.00  0.00    +0.008 A 
ATOM     17  C   UNL     1      12.367   8.702   4.467  0.00  0.00    +0.008 A 
ATOM     19  C   UNL     1      12.461   7.416   6.941  0.00  0.00    +0.046 A 
ATOM     20  C   UNL     1      11.492   9.083   5.484  0.00  0.00    +0.046 A 
ATOM     21  C   UNL     1      11.540   8.439   6.722  0.00  0.00    +0.120 A 
BRANCH  21   5
ATOM      5  O   UNL     1      10.685   8.811   7.713  0.00  0.00    -0.495 OA
ATOM     27  C   UNL     1       9.517   9.534   7.326  0.00  0.00    +0.277 C 
ENDBRANCH  21   5
ENDBRANCH  13  14
ENDBRANCH   6  13
ENDBRANCH   8   6
BRANCH  10  12
ATOM     12  C   UNL     1      12.352   4.174   0.212  0.00  0.00    +0.138 C 
BRANCH  12   7
ATOM      4  O   UNL     1      10.173   5.983   0.681  0.00  0.00    -0.270 OA
ATOM      7  N   UNL     1      11.742   4.471   1.477  0.00  0.00    -0.309 N 
ATOM     15  C   UNL     1      10.685   5.366   1.611  0.00  0.00    +0.244 C 
ATOM     30  H   UNL     1      12.172   4.058   2.297  0.00  0.00    +0.149 HD
BRANCH  15  18
ATOM      1  F   UNL     1       8.788   6.199   6.829  0.00  0.00    -0.205 F 
ATOM     18  C   UNL     1      10.183   5.585   2.991  0.00  0.00    +0.037 A 
ATOM     22  C   UNL     1      10.522   4.692   4.008  0.00  0.00    +0.016 A 
ATOM     23  C   UNL     1       9.373   6.686   3.273  0.00  0.00    +0.016 A 
ATOM     24  C   UNL     1      10.051   4.899   5.304  0.00  0.00    +0.039 A 
ATOM     25  C   UNL     1       8.902   6.893   4.568  0.00  0.00    +0.039 A 
ATOM     26  C   UNL     1       9.240   5.999   5.585  0.00  0.00    +0.123 A 
ENDBRANCH  15  18
ENDBRANCH  12   7
ENDBRANCH  10  12
TORSDOF 8
ENDMDL
MODEL 9
REMARK VINA RESULT:      -6.0     27.184     29.371
REMARK  Name = 75536641
REMARK  9 active torsions:
REMARK  status: ('A' for Active; 'I' for Inactive)
REMARK    1  A    between atoms: O_3  and  C_9
REMARK    2  A    between atoms: O_5  and  C_21
REMARK    3  A    between atoms: O_5  and  C_27
REMARK    4  A    between atoms: N_6  and  C_8
REMARK    5  A    between atoms: N_6  and  C_13
REMARK    6  A    between atoms: N_7  and  C_12
REMARK    7  A    between atoms: C_10  and  C_12
REMARK    8  A    between atoms: C_13  and  C_14
REMARK    9  A    between atoms: C_15  and  C_18
REMARK                            x       y       z     vdW  Elec       q    Type
REMARK                         _______ _______ _______ _____ _____    ______ ____
ROOT
ATOM      2  O   UNL     1      -4.661 -11.186  10.527  0.00  0.00    -0.371 OA
ATOM      8  C   UNL     1      -6.077  -9.414  11.205  0.00  0.00    +0.111 C 
ATOM      9  C   UNL     1      -4.773  -8.808  10.712  0.00  0.00    +0.164 C 
ATOM     10  C   UNL     1      -3.842 -10.002  10.505  0.00  0.00    +0.165 C 
ATOM     11  C   UNL     1      -6.038 -10.795  10.571  0.00  0.00    +0.181 C 
ENDROOT
BRANCH   9   3
ATOM      3  O   UNL     1      -5.031  -8.191   9.449  0.00  0.00    -0.388 OA
ATOM     29  H   UNL     1      -5.528  -8.830   8.910  0.00  0.00    +0.210 HD
ENDBRANCH   9   3
BRANCH   8   6
ATOM      6  N   UNL     1      -6.106  -9.515  12.663  0.00  0.00    -0.305 NA
ATOM     28  H   UNL     1      -5.153  -9.624  13.011  0.00  0.00    +0.123 HD
BRANCH   6  13
ATOM     13  C   UNL     1      -6.889 -10.667  13.093  0.00  0.00    +0.116 C 
BRANCH  13  14
ATOM     14  C   UNL     1      -7.176 -10.630  14.570  0.00  0.00    -0.033 A 
ATOM     16  C   UNL     1      -6.669  -9.593  15.354  0.00  0.00    +0.008 A 
ATOM     17  C   UNL     1      -7.948 -11.633  15.157  0.00  0.00    +0.008 A 
ATOM     19  C   UNL     1      -6.935  -9.559  16.723  0.00  0.00    +0.046 A 
ATOM     20  C   UNL     1      -8.213 -11.599  16.526  0.00  0.00    +0.046 A 
ATOM     21  C   UNL     1      -7.706 -10.561  17.308  0.00  0.00    +0.120 A 
BRANCH  21   5
ATOM      5  O   UNL     1      -7.964 -10.529  18.644  0.00  0.00    -0.495 OA
ATOM     27  C   UNL     1      -8.129 -11.785  19.303  0.00  0.00    +0.277 C 
ENDBRANCH  21   5
ENDBRANCH  13  14
ENDBRANCH   6  13
ENDBRANCH   8   6
BRANCH  10  12
ATOM     12  C   UNL     1      -2.776 -10.136  11.582  0.00  0.00    +0.138 C 
BRANCH  12   7
ATOM      4  O   UNL     1      -1.619 -10.022  14.206  0.00  0.00    -0.270 OA
ATOM      7  N   UNL     1      -3.318 -10.704  12.783  0.00  0.00    -0.309 N 
ATOM     15  C   UNL     1      -2.686 -10.599  14.018  0.00  0.00    +0.244 C 
ATOM     30  H   UNL     1      -4.157 -11.267  12.682  0.00  0.00    +0.149 HD
BRANCH  15  18
ATOM      1  F   UNL     1      -5.240 -13.118  18.337  0.00  0.00    -0.205 F 
ATOM     18  C   UNL     1      -3.362 -11.265  15.160  0.00  0.00    +0.037 A 
ATOM     22  C   UNL     1      -4.048 -12.464  14.962  0.00  0.00    +0.016 A 
ATOM     23  C   UNL     1      -3.311 -10.694  16.431  0.00  0.00    +0.016 A 
ATOM     24  C   UNL     1      -4.683 -13.090  16.035  0.00  0.00    +0.039 A 
ATOM     25  C   UNL     1      -3.945 -11.319  17.504  0.00  0.00    +0.039 A 
ATOM     26  C   UNL     1      -4.631 -12.517  17.306  0.00  0.00    +0.123 A 
ENDBRANCH  15  18
ENDBRANCH  12   7
ENDBRANCH  10  12
TORSDOF 8
ENDMDL
MODEL 10
REMARK VINA RESULT:      -6.0     17.428     19.468
REMARK  Name = 75536641
REMARK  9 active torsions:
REMARK  status: ('A' for Active; 'I' for Inactive)
REMARK    1  A    between atoms: O_3  and  C_9
REMARK    2  A    between atoms: O_5  and  C_21
REMARK    3  A    between atoms: O_5  and  C_27
REMARK    4  A    between atoms: N_6  and  C_8
REMARK    5  A    between atoms: N_6  and  C_13
REMARK    6  A    between atoms: N_7  and  C_12
REMARK    7  A    between atoms: C_10  and  C_12
REMARK    8  A    between atoms: C_13  and  C_14
REMARK    9  A    between atoms: C_15  and  C_18
REMARK                            x       y       z     vdW  Elec       q    Type
REMARK                         _______ _______ _______ _____ _____    ______ ____
ROOT
ATOM      2  O   UNL     1      10.600   7.710   6.039  0.00  0.00    -0.371 OA
ATOM      8  C   UNL     1       9.818   5.492   5.764  0.00  0.00    +0.111 C 
ATOM      9  C   UNL     1      10.606   5.552   7.061  0.00  0.00    +0.164 C 
ATOM     10  C   UNL     1      11.256   6.935   7.060  0.00  0.00    +0.165 C 
ATOM     11  C   UNL     1       9.492   6.958   5.529  0.00  0.00    +0.181 C 
ENDROOT
BRANCH   9   3
ATOM      3  O   UNL     1       9.672   5.476   8.141  0.00  0.00    -0.388 OA
ATOM     29  H   UNL     1       9.959   4.750   8.721  0.00  0.00    +0.210 HD
ENDBRANCH   9   3
BRANCH   8   6
ATOM      6  N   UNL     1      10.625   4.960   4.668  0.00  0.00    -0.305 NA
ATOM     28  H   UNL     1      11.594   5.254   4.792  0.00  0.00    +0.123 HD
BRANCH   6  13
ATOM     13  C   UNL     1      10.154   5.456   3.380  0.00  0.00    +0.116 C 
BRANCH  13  14
ATOM     14  C   UNL     1      10.878   4.809   2.231  0.00  0.00    -0.033 A 
ATOM     16  C   UNL     1      11.970   3.975   2.474  0.00  0.00    +0.008 A 
ATOM     17  C   UNL     1      10.458   5.041   0.921  0.00  0.00    +0.008 A 
ATOM     19  C   UNL     1      12.641   3.375   1.409  0.00  0.00    +0.046 A 
ATOM     20  C   UNL     1      11.130   4.441  -0.145  0.00  0.00    +0.046 A 
ATOM     21  C   UNL     1      12.221   3.608   0.100  0.00  0.00    +0.120 A 
BRANCH  21   5
ATOM      5  O   UNL     1      12.876   3.024  -0.939  0.00  0.00    -0.495 OA
ATOM     27  C   UNL     1      12.080   2.563  -2.031  0.00  0.00    +0.277 C 
ENDBRANCH  21   5
ENDBRANCH  13  14
ENDBRANCH   6  13
ENDBRANCH   8   6
BRANCH  10  12
ATOM     12  C   UNL     1      12.746   6.906   6.755  0.00  0.00    +0.138 C 
BRANCH  12   7
ATOM      4  O   UNL     1      14.113   8.715   4.993  0.00  0.00    -0.270 OA
ATOM      7  N   UNL     1      12.988   6.718   5.353  0.00  0.00    -0.309 N 
ATOM     15  C   UNL     1      13.662   7.652   4.573  0.00  0.00    +0.244 C 
ATOM     30  H   UNL     1      12.569   5.899   4.925  0.00  0.00    +0.149 HD
BRANCH  15  18
ATOM      1  F   UNL     1      14.212   6.405  -0.874  0.00  0.00    -0.205 F 
ATOM     18  C   UNL     1      13.807   7.322   3.132  0.00  0.00    +0.037 A 
ATOM     22  C   UNL     1      12.932   7.876   2.198  0.00  0.00    +0.016 A 
ATOM     23  C   UNL     1      14.818   6.458   2.712  0.00  0.00    +0.016 A 
ATOM     24  C   UNL     1      13.068   7.567   0.845  0.00  0.00    +0.039 A 
ATOM     25  C   UNL     1      14.955   6.148   1.360  0.00  0.00    +0.039 A 
ATOM     26  C   UNL     1      14.080   6.703   0.425  0.00  0.00    +0.123 A 
ENDBRANCH  15  18
ENDBRANCH  12   7
ENDBRANCH  10  12
TORSDOF 8
ENDMDL
