MODEL 1
REMARK VINA RESULT:      -7.0      0.000      0.000
REMARK  Name = 7674768
REMARK  5 active torsions:
REMARK  status: ('A' for Active; 'I' for Inactive)
REMARK    1  A    between atoms: O_5  and  C_31
REMARK    2  A    between atoms: O_5  and  C_32
REMARK    3  A    between atoms: N_6  and  C_14
REMARK    4  A    between atoms: N_8  and  C_25
REMARK    5  A    between atoms: C_23  and  C_26
REMARK                            x       y       z     vdW  Elec       q    Type
REMARK                         _______ _______ _______ _____ _____    ______ ____
ROOT
ATOM      4  O   UNL     1      10.894   4.057   3.206  0.00  0.00    -0.267 OA
ATOM      6  N   UNL     1      13.004   6.155  -0.830  0.00  0.00    -0.298 NA
ATOM      7  N   UNL     1      10.718   5.168   1.164  0.00  0.00    -0.311 N 
ATOM      9  C   UNL     1      11.523   4.144  -1.043  0.00  0.00    +0.024 C 
ATOM     10  C   UNL     1      10.524   6.378  -1.035  0.00  0.00    +0.050 C 
ATOM     11  C   UNL     1      10.425   4.993  -1.668  0.00  0.00    +0.017 C 
ATOM     12  C   UNL     1      12.903   4.776  -1.321  0.00  0.00    +0.090 C 
ATOM     13  C   UNL     1      11.910   6.990  -1.346  0.00  0.00    +0.094 C 
ATOM     15  C   UNL     1      11.236   3.988   0.456  0.00  0.00    +0.130 C 
ATOM     16  C   UNL     1      10.302   6.303   0.465  0.00  0.00    +0.026 A 
ATOM     21  C   UNL     1       9.728   7.325   1.119  0.00  0.00    +0.022 A 
ATOM     22  C   UNL     1      10.569   5.054   2.560  0.00  0.00    +0.259 A 
ATOM     23  C   UNL     1       9.954   6.230   3.270  0.00  0.00    +0.047 A 
ATOM     24  C   UNL     1       9.559   7.286   2.544  0.00  0.00    +0.015 A 
ENDROOT
BRANCH   6  14
ATOM      8  N   UNL     1      15.588   7.493   1.385  0.00  0.00    -0.305 NA
ATOM     14  C   UNL     1      14.307   6.736  -1.160  0.00  0.00    +0.059 C 
ATOM     17  C   UNL     1      15.431   5.917  -0.518  0.00  0.00    +0.034 C 
ATOM     18  C   UNL     1      14.384   8.184  -0.664  0.00  0.00    +0.034 C 
ATOM     19  C   UNL     1      15.477   6.077   1.005  0.00  0.00    +0.085 C 
ATOM     20  C   UNL     1      14.460   8.278   0.863  0.00  0.00    +0.085 C 
ATOM     25  C   UNL     1      15.677   7.628   2.839  0.00  0.00    +0.104 C 
ENDBRANCH   6  14
BRANCH  23  26
ATOM     26  C   UNL     1       9.791   6.237   4.736  0.00  0.00    -0.012 A 
ATOM     27  C   UNL     1      10.910   6.149   5.563  0.00  0.00    +0.012 A 
ATOM     28  C   UNL     1       8.516   6.329   5.295  0.00  0.00    +0.012 A 
ATOM     29  C   UNL     1      10.755   6.154   6.950  0.00  0.00    +0.046 A 
ATOM     30  C   UNL     1       8.361   6.335   6.682  0.00  0.00    +0.046 A 
ATOM     31  C   UNL     1       9.481   6.247   7.509  0.00  0.00    +0.130 A 
BRANCH  31   5
ATOM      5  O   UNL     1       9.330   6.252   8.862  0.00  0.00    -0.406 OA
BRANCH   5  32
ATOM      1  F   UNL     1      10.398   4.910  10.329  0.00  0.00    -0.133 F 
ATOM      2  F   UNL     1       8.212   4.902  10.331  0.00  0.00    -0.133 F 
ATOM      3  F   UNL     1       9.332   3.973   8.667  0.00  0.00    -0.133 F 
ATOM     32  C   UNL     1       9.303   5.002   9.541  0.00  0.00    +0.575 C 
ENDBRANCH   5  32
ENDBRANCH  31   5
ENDBRANCH  23  26
TORSDOF 4
ENDMDL
MODEL 2
REMARK VINA RESULT:      -6.8     24.743     28.010
REMARK  Name = 7674768
REMARK  5 active torsions:
REMARK  status: ('A' for Active; 'I' for Inactive)
REMARK    1  A    between atoms: O_5  and  C_31
REMARK    2  A    between atoms: O_5  and  C_32
REMARK    3  A    between atoms: N_6  and  C_14
REMARK    4  A    between atoms: N_8  and  C_25
REMARK    5  A    between atoms: C_23  and  C_26
REMARK                            x       y       z     vdW  Elec       q    Type
REMARK                         _______ _______ _______ _____ _____    ______ ____
ROOT
ATOM      4  O   UNL     1      -6.747 -10.244  13.953  0.00  0.00    -0.267 OA
ATOM      6  N   UNL     1      -2.587 -12.956  13.257  0.00  0.00    -0.298 NA
ATOM      7  N   UNL     1      -4.449 -10.547  14.208  0.00  0.00    -0.311 N 
ATOM      9  C   UNL     1      -2.843 -10.689  12.216  0.00  0.00    +0.024 C 
ATOM     10  C   UNL     1      -1.970 -10.875  14.495  0.00  0.00    +0.050 C 
ATOM     11  C   UNL     1      -1.823 -10.107  13.185  0.00  0.00    +0.017 C 
ATOM     12  C   UNL     1      -2.570 -12.193  12.002  0.00  0.00    +0.090 C 
ATOM     13  C   UNL     1      -1.674 -12.373  14.251  0.00  0.00    +0.094 C 
ATOM     15  C   UNL     1      -4.253 -10.416  12.756  0.00  0.00    +0.130 C 
ATOM     16  C   UNL     1      -3.362 -10.697  15.072  0.00  0.00    +0.026 A 
ATOM     21  C   UNL     1      -3.554 -10.702  16.401  0.00  0.00    +0.022 A 
ATOM     22  C   UNL     1      -5.768 -10.411  14.682  0.00  0.00    +0.259 A 
ATOM     23  C   UNL     1      -5.955 -10.454  16.176  0.00  0.00    +0.047 A 
ATOM     24  C   UNL     1      -4.873 -10.584  16.956  0.00  0.00    +0.015 A 
ENDROOT
BRANCH   6  14
ATOM      8  N   UNL     1      -4.635 -15.931  13.829  0.00  0.00    -0.305 NA
ATOM     14  C   UNL     1      -2.272 -14.366  13.019  0.00  0.00    +0.059 C 
ATOM     17  C   UNL     1      -3.258 -14.967  12.012  0.00  0.00    +0.034 C 
ATOM     18  C   UNL     1      -2.339 -15.155  14.331  0.00  0.00    +0.034 C 
ATOM     19  C   UNL     1      -4.664 -15.132  12.596  0.00  0.00    +0.085 C 
ATOM     20  C   UNL     1      -3.772 -15.314  14.847  0.00  0.00    +0.085 C 
ATOM     25  C   UNL     1      -5.989 -16.119  14.351  0.00  0.00    +0.104 C 
ENDBRANCH   6  14
BRANCH  23  26
ATOM     26  C   UNL     1      -7.297 -10.365  16.780  0.00  0.00    -0.012 A 
ATOM     27  C   UNL     1      -7.870  -9.119  17.027  0.00  0.00    +0.012 A 
ATOM     28  C   UNL     1      -7.993 -11.530  17.106  0.00  0.00    +0.012 A 
ATOM     29  C   UNL     1      -9.140  -9.035  17.600  0.00  0.00    +0.046 A 
ATOM     30  C   UNL     1      -9.263 -11.447  17.678  0.00  0.00    +0.046 A 
ATOM     31  C   UNL     1      -9.836 -10.199  17.925  0.00  0.00    +0.130 A 
BRANCH  31   5
ATOM      5  O   UNL     1     -11.075 -10.118  18.484  0.00  0.00    -0.406 OA
BRANCH   5  32
ATOM      1  F   UNL     1     -11.594 -11.671  20.037  0.00  0.00    -0.133 F 
ATOM      2  F   UNL     1     -10.026 -10.225  20.514  0.00  0.00    -0.133 F 
ATOM      3  F   UNL     1     -12.143  -9.593  20.437  0.00  0.00    -0.133 F 
ATOM     32  C   UNL     1     -11.205 -10.386  19.875  0.00  0.00    +0.575 C 
ENDBRANCH   5  32
ENDBRANCH  31   5
ENDBRANCH  23  26
TORSDOF 4
ENDMDL
MODEL 3
REMARK VINA RESULT:      -6.7      4.806      8.041
REMARK  Name = 7674768
REMARK  5 active torsions:
REMARK  status: ('A' for Active; 'I' for Inactive)
REMARK    1  A    between atoms: O_5  and  C_31
REMARK    2  A    between atoms: O_5  and  C_32
REMARK    3  A    between atoms: N_6  and  C_14
REMARK    4  A    between atoms: N_8  and  C_25
REMARK    5  A    between atoms: C_23  and  C_26
REMARK                            x       y       z     vdW  Elec       q    Type
REMARK                         _______ _______ _______ _____ _____    ______ ____
ROOT
ATOM      4  O   UNL     1       9.758   7.452   1.855  0.00  0.00    -0.267 OA
ATOM      6  N   UNL     1      11.500   7.820   6.542  0.00  0.00    -0.298 NA
ATOM      7  N   UNL     1       9.777   6.754   4.079  0.00  0.00    -0.311 N 
ATOM      9  C   UNL     1       9.093   8.286   6.016  0.00  0.00    +0.024 C 
ATOM     10  C   UNL     1       9.801   5.989   6.477  0.00  0.00    +0.050 C 
ATOM     11  C   UNL     1       8.673   6.992   6.698  0.00  0.00    +0.017 C 
ATOM     12  C   UNL     1      10.412   8.802   6.629  0.00  0.00    +0.090 C 
ATOM     13  C   UNL     1      11.102   6.527   7.117  0.00  0.00    +0.094 C 
ATOM     15  C   UNL     1       9.202   8.038   4.506  0.00  0.00    +0.130 C 
ATOM     16  C   UNL     1      10.008   5.726   4.997  0.00  0.00    +0.026 A 
ATOM     21  C   UNL     1      10.427   4.525   4.570  0.00  0.00    +0.022 A 
ATOM     22  C   UNL     1       9.982   6.581   2.697  0.00  0.00    +0.259 A 
ATOM     23  C   UNL     1      10.485   5.233   2.253  0.00  0.00    +0.047 A 
ATOM     24  C   UNL     1      10.674   4.281   3.178  0.00  0.00    +0.015 A 
ENDROOT
BRANCH   6  14
ATOM      8  N   UNL     1      14.730   8.677   5.056  0.00  0.00    -0.305 NA
ATOM     14  C   UNL     1      12.717   8.326   7.181  0.00  0.00    +0.059 C 
ATOM     17  C   UNL     1      13.089   9.696   6.605  0.00  0.00    +0.034 C 
ATOM     18  C   UNL     1      13.877   7.349   6.964  0.00  0.00    +0.034 C 
ATOM     19  C   UNL     1      13.596   9.607   5.162  0.00  0.00    +0.085 C 
ATOM     20  C   UNL     1      14.361   7.328   5.510  0.00  0.00    +0.085 C 
ATOM     25  C   UNL     1      15.233   8.636   3.683  0.00  0.00    +0.104 C 
ENDBRANCH   6  14
BRANCH  23  26
ATOM     26  C   UNL     1      10.777   4.956   0.834  0.00  0.00    -0.012 A 
ATOM     27  C   UNL     1      12.032   4.479   0.460  0.00  0.00    +0.012 A 
ATOM     28  C   UNL     1       9.796   5.173  -0.134  0.00  0.00    +0.012 A 
ATOM     29  C   UNL     1      12.308   4.218  -0.883  0.00  0.00    +0.046 A 
ATOM     30  C   UNL     1      10.071   4.912  -1.477  0.00  0.00    +0.046 A 
ATOM     31  C   UNL     1      11.328   4.434  -1.851  0.00  0.00    +0.130 A 
BRANCH  31   5
ATOM      5  O   UNL     1      11.597   4.180  -3.161  0.00  0.00    -0.406 OA
BRANCH   5  32
ATOM      1  F   UNL     1      11.137   2.802  -4.889  0.00  0.00    -0.133 F 
ATOM      2  F   UNL     1      12.793   2.272  -3.565  0.00  0.00    -0.133 F 
ATOM      3  F   UNL     1      10.703   2.095  -2.867  0.00  0.00    -0.133 F 
ATOM     32  C   UNL     1      11.563   2.828  -3.606  0.00  0.00    +0.575 C 
ENDBRANCH   5  32
ENDBRANCH  31   5
ENDBRANCH  23  26
TORSDOF 4
ENDMDL
MODEL 4
REMARK VINA RESULT:      -6.5      3.679      5.325
REMARK  Name = 7674768
REMARK  5 active torsions:
REMARK  status: ('A' for Active; 'I' for Inactive)
REMARK    1  A    between atoms: O_5  and  C_31
REMARK    2  A    between atoms: O_5  and  C_32
REMARK    3  A    between atoms: N_6  and  C_14
REMARK    4  A    between atoms: N_8  and  C_25
REMARK    5  A    between atoms: C_23  and  C_26
REMARK                            x       y       z     vdW  Elec       q    Type
REMARK                         _______ _______ _______ _____ _____    ______ ____
ROOT
ATOM      4  O   UNL     1      12.047   7.839   2.066  0.00  0.00    -0.267 OA
ATOM      6  N   UNL     1      13.421   4.049  -0.916  0.00  0.00    -0.298 NA
ATOM      7  N   UNL     1      12.713   5.625   1.766  0.00  0.00    -0.311 N 
ATOM      9  C   UNL     1      14.997   4.986   0.794  0.00  0.00    +0.024 C 
ATOM     10  C   UNL     1      13.420   3.231   1.445  0.00  0.00    +0.050 C 
ATOM     11  C   UNL     1      14.846   3.735   1.649  0.00  0.00    +0.017 C 
ATOM     12  C   UNL     1      14.743   4.647  -0.690  0.00  0.00    +0.090 C 
ATOM     13  C   UNL     1      13.203   2.884  -0.046  0.00  0.00    +0.094 C 
ATOM     15  C   UNL     1      14.045   6.066   1.324  0.00  0.00    +0.130 C 
ATOM     16  C   UNL     1      12.410   4.268   1.901  0.00  0.00    +0.026 A 
ATOM     21  C   UNL     1      11.228   3.890   2.411  0.00  0.00    +0.022 A 
ATOM     22  C   UNL     1      11.804   6.634   2.139  0.00  0.00    +0.259 A 
ATOM     23  C   UNL     1      10.474   6.178   2.677  0.00  0.00    +0.047 A 
ATOM     24  C   UNL     1      10.246   4.862   2.798  0.00  0.00    +0.015 A 
ENDROOT
BRANCH   6  14
ATOM      8  N   UNL     1      10.755   4.995  -3.234  0.00  0.00    -0.305 NA
ATOM     14  C   UNL     1      13.239   3.693  -2.325  0.00  0.00    +0.059 C 
ATOM     17  C   UNL     1      13.230   4.955  -3.194  0.00  0.00    +0.034 C 
ATOM     18  C   UNL     1      11.923   2.933  -2.516  0.00  0.00    +0.034 C 
ATOM     19  C   UNL     1      11.965   5.795  -2.995  0.00  0.00    +0.085 C 
ATOM     20  C   UNL     1      10.695   3.832  -2.336  0.00  0.00    +0.085 C 
ATOM     25  C   UNL     1       9.557   5.820  -3.085  0.00  0.00    +0.104 C 
ENDBRANCH   6  14
BRANCH  23  26
ATOM     26  C   UNL     1       9.431   7.148   3.057  0.00  0.00    -0.012 A 
ATOM     27  C   UNL     1       8.942   7.173   4.363  0.00  0.00    +0.012 A 
ATOM     28  C   UNL     1       8.931   8.042   2.109  0.00  0.00    +0.012 A 
ATOM     29  C   UNL     1       7.955   8.090   4.722  0.00  0.00    +0.046 A 
ATOM     30  C   UNL     1       7.943   8.959   2.468  0.00  0.00    +0.046 A 
ATOM     31  C   UNL     1       7.456   8.984   3.775  0.00  0.00    +0.130 A 
BRANCH  31   5
ATOM      5  O   UNL     1       6.492   9.879   4.125  0.00  0.00    -0.406 OA
BRANCH   5  32
ATOM      1  F   UNL     1       5.997  11.833   5.140  0.00  0.00    -0.133 F 
ATOM      2  F   UNL     1       8.103  11.347   4.816  0.00  0.00    -0.133 F 
ATOM      3  F   UNL     1       6.811  11.905   3.113  0.00  0.00    -0.133 F 
ATOM     32  C   UNL     1       6.865  11.242   4.288  0.00  0.00    +0.575 C 
ENDBRANCH   5  32
ENDBRANCH  31   5
ENDBRANCH  23  26
TORSDOF 4
ENDMDL
MODEL 5
REMARK VINA RESULT:      -6.4      2.604      4.101
REMARK  Name = 7674768
REMARK  5 active torsions:
REMARK  status: ('A' for Active; 'I' for Inactive)
REMARK    1  A    between atoms: O_5  and  C_31
REMARK    2  A    between atoms: O_5  and  C_32
REMARK    3  A    between atoms: N_6  and  C_14
REMARK    4  A    between atoms: N_8  and  C_25
REMARK    5  A    between atoms: C_23  and  C_26
REMARK                            x       y       z     vdW  Elec       q    Type
REMARK                         _______ _______ _______ _____ _____    ______ ____
ROOT
ATOM      4  O   UNL     1      12.926   7.348   3.370  0.00  0.00    -0.267 OA
ATOM      6  N   UNL     1      12.341   5.128  -1.088  0.00  0.00    -0.298 NA
ATOM      7  N   UNL     1      12.928   5.438   2.032  0.00  0.00    -0.311 N 
ATOM      9  C   UNL     1      14.559   5.117   0.080  0.00  0.00    +0.024 C 
ATOM     10  C   UNL     1      12.920   3.373   0.593  0.00  0.00    +0.050 C 
ATOM     11  C   UNL     1      14.409   3.634   0.393  0.00  0.00    +0.017 C 
ATOM     12  C   UNL     1      13.764   5.472  -1.194  0.00  0.00    +0.090 C 
ATOM     13  C   UNL     1      12.155   3.721  -0.706  0.00  0.00    +0.094 C 
ATOM     15  C   UNL     1      14.107   5.929   1.302  0.00  0.00    +0.130 C 
ATOM     16  C   UNL     1      12.382   4.183   1.758  0.00  0.00    +0.026 A 
ATOM     21  C   UNL     1      11.376   3.707   2.511  0.00  0.00    +0.022 A 
ATOM     22  C   UNL     1      12.449   6.250   3.078  0.00  0.00    +0.259 A 
ATOM     23  C   UNL     1      11.299   5.705   3.882  0.00  0.00    +0.047 A 
ATOM     24  C   UNL     1      10.826   4.486   3.584  0.00  0.00    +0.015 A 
ENDROOT
BRANCH   6  14
ATOM      8  N   UNL     1       9.610   7.480  -1.708  0.00  0.00    -0.305 NA
ATOM     14  C   UNL     1      11.633   5.430  -2.335  0.00  0.00    +0.059 C 
ATOM     17  C   UNL     1      11.805   6.908  -2.698  0.00  0.00    +0.034 C 
ATOM     18  C   UNL     1      10.142   5.111  -2.190  0.00  0.00    +0.034 C 
ATOM     19  C   UNL     1      11.035   7.837  -1.755  0.00  0.00    +0.085 C 
ATOM     20  C   UNL     1       9.420   6.093  -1.262  0.00  0.00    +0.085 C 
ATOM     25  C   UNL     1       8.878   8.403  -0.840  0.00  0.00    +0.104 C 
ENDBRANCH   6  14
BRANCH  23  26
ATOM     26  C   UNL     1      10.690   6.489   4.972  0.00  0.00    -0.012 A 
ATOM     27  C   UNL     1      11.198   6.395   6.268  0.00  0.00    +0.012 A 
ATOM     28  C   UNL     1       9.604   7.324   4.708  0.00  0.00    +0.012 A 
ATOM     29  C   UNL     1      10.620   7.136   7.299  0.00  0.00    +0.046 A 
ATOM     30  C   UNL     1       9.027   8.066   5.739  0.00  0.00    +0.046 A 
ATOM     31  C   UNL     1       9.536   7.972   7.035  0.00  0.00    +0.130 A 
BRANCH  31   5
ATOM      5  O   UNL     1       8.972   8.695   8.041  0.00  0.00    -0.406 OA
BRANCH   5  32
ATOM      1  F   UNL     1       8.928  10.453   9.456  0.00  0.00    -0.133 F 
ATOM      2  F   UNL     1      10.840   9.914   8.546  0.00  0.00    -0.133 F 
ATOM      3  F   UNL     1       9.250  10.851   7.331  0.00  0.00    -0.133 F 
ATOM     32  C   UNL     1       9.509   9.981   8.330  0.00  0.00    +0.575 C 
ENDBRANCH   5  32
ENDBRANCH  31   5
ENDBRANCH  23  26
TORSDOF 4
ENDMDL
MODEL 6
REMARK VINA RESULT:      -6.4     17.753     21.884
REMARK  Name = 7674768
REMARK  5 active torsions:
REMARK  status: ('A' for Active; 'I' for Inactive)
REMARK    1  A    between atoms: O_5  and  C_31
REMARK    2  A    between atoms: O_5  and  C_32
REMARK    3  A    between atoms: N_6  and  C_14
REMARK    4  A    between atoms: N_8  and  C_25
REMARK    5  A    between atoms: C_23  and  C_26
REMARK                            x       y       z     vdW  Elec       q    Type
REMARK                         _______ _______ _______ _____ _____    ______ ____
ROOT
ATOM      4  O   UNL     1      20.452   3.759  20.768  0.00  0.00    -0.267 OA
ATOM      6  N   UNL     1      24.616   5.047  23.245  0.00  0.00    -0.298 NA
ATOM      7  N   UNL     1      22.530   4.812  20.844  0.00  0.00    -0.311 N 
ATOM      9  C   UNL     1      24.715   3.535  21.248  0.00  0.00    +0.024 C 
ATOM     10  C   UNL     1      24.769   5.961  20.925  0.00  0.00    +0.050 C 
ATOM     11  C   UNL     1      25.345   4.643  20.415  0.00  0.00    +0.017 C 
ATOM     12  C   UNL     1      25.052   3.740  22.740  0.00  0.00    +0.090 C 
ATOM     13  C   UNL     1      25.137   6.144  22.416  0.00  0.00    +0.094 C 
ATOM     15  C   UNL     1      23.204   3.513  20.981  0.00  0.00    +0.130 C 
ATOM     16  C   UNL     1      23.262   5.997  20.743  0.00  0.00    +0.026 A 
ATOM     21  C   UNL     1      22.633   7.159  20.505  0.00  0.00    +0.022 A 
ATOM     22  C   UNL     1      21.128   4.787  20.717  0.00  0.00    +0.259 A 
ATOM     23  C   UNL     1      20.448   6.110  20.485  0.00  0.00    +0.047 A 
ATOM     24  C   UNL     1      21.204   7.212  20.381  0.00  0.00    +0.015 A 
ENDROOT
BRANCH   6  14
ATOM      8  N   UNL     1      22.590   6.097  26.103  0.00  0.00    -0.305 NA
ATOM     14  C   UNL     1      25.000   5.223  24.648  0.00  0.00    +0.059 C 
ATOM     17  C   UNL     1      24.183   4.287  25.543  0.00  0.00    +0.034 C 
ATOM     18  C   UNL     1      24.771   6.674  25.084  0.00  0.00    +0.034 C 
ATOM     19  C   UNL     1      22.713   4.706  25.644  0.00  0.00    +0.085 C 
ATOM     20  C   UNL     1      23.284   7.024  25.197  0.00  0.00    +0.085 C 
ATOM     25  C   UNL     1      21.182   6.469  26.238  0.00  0.00    +0.104 C 
ENDBRANCH   6  14
BRANCH  23  26
ATOM     26  C   UNL     1      18.980   6.207  20.382  0.00  0.00    -0.012 A 
ATOM     27  C   UNL     1      18.329   5.746  19.239  0.00  0.00    +0.012 A 
ATOM     28  C   UNL     1      18.243   6.762  21.429  0.00  0.00    +0.012 A 
ATOM     29  C   UNL     1      16.941   5.838  19.141  0.00  0.00    +0.046 A 
ATOM     30  C   UNL     1      16.854   6.854  21.331  0.00  0.00    +0.046 A 
ATOM     31  C   UNL     1      16.203   6.391  20.187  0.00  0.00    +0.130 A 
BRANCH  31   5
ATOM      5  O   UNL     1      14.848   6.482  20.091  0.00  0.00    -0.406 OA
BRANCH   5  32
ATOM      1  F   UNL     1      15.283   8.481  19.138  0.00  0.00    -0.133 F 
ATOM      2  F   UNL     1      13.746   7.222  18.229  0.00  0.00    -0.133 F 
ATOM      3  F   UNL     1      13.368   8.225  20.161  0.00  0.00    -0.133 F 
ATOM     32  C   UNL     1      14.294   7.598  19.404  0.00  0.00    +0.575 C 
ENDBRANCH   5  32
ENDBRANCH  31   5
ENDBRANCH  23  26
TORSDOF 4
ENDMDL
MODEL 7
REMARK VINA RESULT:      -6.3     14.544     17.215
REMARK  Name = 7674768
REMARK  5 active torsions:
REMARK  status: ('A' for Active; 'I' for Inactive)
REMARK    1  A    between atoms: O_5  and  C_31
REMARK    2  A    between atoms: O_5  and  C_32
REMARK    3  A    between atoms: N_6  and  C_14
REMARK    4  A    between atoms: N_8  and  C_25
REMARK    5  A    between atoms: C_23  and  C_26
REMARK                            x       y       z     vdW  Elec       q    Type
REMARK                         _______ _______ _______ _____ _____    ______ ____
ROOT
ATOM      4  O   UNL     1      21.266  -5.863  -2.113  0.00  0.00    -0.267 OA
ATOM      6  N   UNL     1      22.986  -7.798   2.181  0.00  0.00    -0.298 NA
ATOM      7  N   UNL     1      21.881  -5.625   0.123  0.00  0.00    -0.311 N 
ATOM      9  C   UNL     1      24.272  -6.032   0.952  0.00  0.00    +0.024 C 
ATOM     10  C   UNL     1      22.534  -5.367   2.541  0.00  0.00    +0.050 C 
ATOM     11  C   UNL     1      23.920  -5.004   2.018  0.00  0.00    +0.017 C 
ATOM     12  C   UNL     1      24.270  -7.449   1.562  0.00  0.00    +0.090 C 
ATOM     13  C   UNL     1      22.569  -6.783   3.161  0.00  0.00    +0.094 C 
ATOM     15  C   UNL     1      23.287  -5.891  -0.217  0.00  0.00    +0.130 C 
ATOM     16  C   UNL     1      21.503  -5.301   1.428  0.00  0.00    +0.026 A 
ATOM     21  C   UNL     1      20.235  -4.952   1.695  0.00  0.00    +0.022 A 
ATOM     22  C   UNL     1      20.963  -5.615  -0.945  0.00  0.00    +0.259 A 
ATOM     23  C   UNL     1      19.541  -5.253  -0.608  0.00  0.00    +0.047 A 
ATOM     24  C   UNL     1      19.241  -4.935   0.659  0.00  0.00    +0.015 A 
ENDROOT
BRANCH   6  14
ATOM      8  N   UNL     1      20.894 -10.736   1.573  0.00  0.00    -0.305 NA
ATOM     14  C   UNL     1      23.041  -9.127   2.794  0.00  0.00    +0.059 C 
ATOM     17  C   UNL     1      23.305 -10.193   1.727  0.00  0.00    +0.034 C 
ATOM     18  C   UNL     1      21.723  -9.437   3.511  0.00  0.00    +0.034 C 
ATOM     19  C   UNL     1      22.102 -10.407   0.803  0.00  0.00    +0.085 C 
ATOM     20  C   UNL     1      20.567  -9.673   2.535  0.00  0.00    +0.085 C 
ATOM     25  C   UNL     1      19.765 -10.982   0.676  0.00  0.00    +0.104 C 
ENDBRANCH   6  14
BRANCH  23  26
ATOM     26  C   UNL     1      18.489  -5.253  -1.641  0.00  0.00    -0.012 A 
ATOM     27  C   UNL     1      17.924  -4.050  -2.063  0.00  0.00    +0.012 A 
ATOM     28  C   UNL     1      18.055  -6.458  -2.194  0.00  0.00    +0.012 A 
ATOM     29  C   UNL     1      16.928  -4.051  -3.039  0.00  0.00    +0.046 A 
ATOM     30  C   UNL     1      17.059  -6.459  -3.171  0.00  0.00    +0.046 A 
ATOM     31  C   UNL     1      16.495  -5.255  -3.593  0.00  0.00    +0.130 A 
BRANCH  31   5
ATOM      5  O   UNL     1      15.523  -5.256  -4.546  0.00  0.00    -0.406 OA
BRANCH   5  32
ATOM      1  F   UNL     1      13.335  -5.043  -5.058  0.00  0.00    -0.133 F 
ATOM      2  F   UNL     1      13.990  -6.894  -4.099  0.00  0.00    -0.133 F 
ATOM      3  F   UNL     1      13.904  -5.009  -2.948  0.00  0.00    -0.133 F 
ATOM     32  C   UNL     1      14.190  -5.560  -4.148  0.00  0.00    +0.575 C 
ENDBRANCH   5  32
ENDBRANCH  31   5
ENDBRANCH  23  26
TORSDOF 4
ENDMDL
MODEL 8
REMARK VINA RESULT:      -6.3     32.728     35.078
REMARK  Name = 7674768
REMARK  5 active torsions:
REMARK  status: ('A' for Active; 'I' for Inactive)
REMARK    1  A    between atoms: O_5  and  C_31
REMARK    2  A    between atoms: O_5  and  C_32
REMARK    3  A    between atoms: N_6  and  C_14
REMARK    4  A    between atoms: N_8  and  C_25
REMARK    5  A    between atoms: C_23  and  C_26
REMARK                            x       y       z     vdW  Elec       q    Type
REMARK                         _______ _______ _______ _____ _____    ______ ____
ROOT
ATOM      4  O   UNL     1       9.473  -9.380  32.560  0.00  0.00    -0.267 OA
ATOM      6  N   UNL     1       8.470  -6.073  36.192  0.00  0.00    -0.298 NA
ATOM      7  N   UNL     1       8.686  -7.299  33.256  0.00  0.00    -0.311 N 
ATOM      9  C   UNL     1      10.179  -5.576  34.427  0.00  0.00    +0.024 C 
ATOM     10  C   UNL     1       7.825  -5.055  34.004  0.00  0.00    +0.050 C 
ATOM     11  C   UNL     1       9.250  -4.554  33.786  0.00  0.00    +0.017 C 
ATOM     12  C   UNL     1       9.867  -5.704  35.933  0.00  0.00    +0.090 C 
ATOM     13  C   UNL     1       7.538  -5.155  35.520  0.00  0.00    +0.094 C 
ATOM     15  C   UNL     1      10.039  -6.909  33.680  0.00  0.00    +0.130 C 
ATOM     16  C   UNL     1       7.619  -6.402  33.334  0.00  0.00    +0.026 A 
ATOM     21  C   UNL     1       6.418  -6.739  32.839  0.00  0.00    +0.022 A 
ATOM     22  C   UNL     1       8.548  -8.575  32.677  0.00  0.00    +0.259 A 
ATOM     23  C   UNL     1       7.181  -8.937  32.161  0.00  0.00    +0.047 A 
ATOM     24  C   UNL     1       6.199  -8.029  32.249  0.00  0.00    +0.015 A 
ENDROOT
BRANCH   6  14
ATOM      8  N   UNL     1       7.081  -8.800  38.195  0.00  0.00    -0.305 NA
ATOM     14  C   UNL     1       8.200  -6.132  37.631  0.00  0.00    +0.059 C 
ATOM     17  C   UNL     1       9.015  -7.256  38.278  0.00  0.00    +0.034 C 
ATOM     18  C   UNL     1       6.708  -6.373  37.883  0.00  0.00    +0.034 C 
ATOM     19  C   UNL     1       8.510  -8.648  37.883  0.00  0.00    +0.085 C 
ATOM     20  C   UNL     1       6.271  -7.790  37.500  0.00  0.00    +0.085 C 
ATOM     25  C   UNL     1       6.624 -10.147  37.855  0.00  0.00    +0.104 C 
ENDBRANCH   6  14
BRANCH  23  26
ATOM     26  C   UNL     1       6.913 -10.263  31.575  0.00  0.00    -0.012 A 
ATOM     27  C   UNL     1       7.152 -10.490  30.220  0.00  0.00    +0.012 A 
ATOM     28  C   UNL     1       6.417 -11.292  32.377  0.00  0.00    +0.012 A 
ATOM     29  C   UNL     1       6.897 -11.745  29.667  0.00  0.00    +0.046 A 
ATOM     30  C   UNL     1       6.162 -12.547  31.824  0.00  0.00    +0.046 A 
ATOM     31  C   UNL     1       6.402 -12.774  30.468  0.00  0.00    +0.130 A 
BRANCH  31   5
ATOM      5  O   UNL     1       6.153 -13.998  29.928  0.00  0.00    -0.406 OA
BRANCH   5  32
ATOM      1  F   UNL     1       4.742 -15.201  28.642  0.00  0.00    -0.133 F 
ATOM      2  F   UNL     1       4.302 -15.039  30.776  0.00  0.00    -0.133 F 
ATOM      3  F   UNL     1       4.030 -13.297  29.444  0.00  0.00    -0.133 F 
ATOM     32  C   UNL     1       4.798 -14.375  29.711  0.00  0.00    +0.575 C 
ENDBRANCH   5  32
ENDBRANCH  31   5
ENDBRANCH  23  26
TORSDOF 4
ENDMDL
MODEL 9
REMARK VINA RESULT:      -6.2     23.763     26.473
REMARK  Name = 7674768
REMARK  5 active torsions:
REMARK  status: ('A' for Active; 'I' for Inactive)
REMARK    1  A    between atoms: O_5  and  C_31
REMARK    2  A    between atoms: O_5  and  C_32
REMARK    3  A    between atoms: N_6  and  C_14
REMARK    4  A    between atoms: N_8  and  C_25
REMARK    5  A    between atoms: C_23  and  C_26
REMARK                            x       y       z     vdW  Elec       q    Type
REMARK                         _______ _______ _______ _____ _____    ______ ____
ROOT
ATOM      4  O   UNL     1      -6.963  -9.697  13.476  0.00  0.00    -0.267 OA
ATOM      6  N   UNL     1      -5.884 -10.863   8.720  0.00  0.00    -0.298 NA
ATOM      7  N   UNL     1      -5.587  -9.526  11.601  0.00  0.00    -0.311 N 
ATOM      9  C   UNL     1      -6.380  -8.499   9.391  0.00  0.00    +0.024 C 
ATOM     10  C   UNL     1      -4.093  -9.349   9.583  0.00  0.00    +0.050 C 
ATOM     11  C   UNL     1      -4.917  -8.119   9.212  0.00  0.00    +0.017 C 
ATOM     12  C   UNL     1      -6.733  -9.690   8.476  0.00  0.00    +0.090 C 
ATOM     13  C   UNL     1      -4.457 -10.518   8.638  0.00  0.00    +0.094 C 
ATOM     15  C   UNL     1      -6.637  -8.797  10.874  0.00  0.00    +0.130 C 
ATOM     16  C   UNL     1      -4.331  -9.742  11.029  0.00  0.00    +0.026 A 
ATOM     21  C   UNL     1      -3.352 -10.311  11.750  0.00  0.00    +0.022 A 
ATOM     22  C   UNL     1      -5.879  -9.900  12.927  0.00  0.00    +0.259 A 
ATOM     23  C   UNL     1      -4.771 -10.566  13.699  0.00  0.00    +0.047 A 
ATOM     24  C   UNL     1      -3.582 -10.732  13.103  0.00  0.00    +0.015 A 
ENDROOT
BRANCH   6  14
ATOM      8  N   UNL     1      -6.958 -14.283   9.440  0.00  0.00    -0.305 NA
ATOM     14  C   UNL     1      -6.214 -11.951   7.797  0.00  0.00    +0.059 C 
ATOM     17  C   UNL     1      -7.666 -12.397   8.001  0.00  0.00    +0.034 C 
ATOM     18  C   UNL     1      -5.278 -13.143   8.024  0.00  0.00    +0.034 C 
ATOM     19  C   UNL     1      -7.871 -13.137   9.326  0.00  0.00    +0.085 C 
ATOM     20  C   UNL     1      -5.553 -13.860   9.349  0.00  0.00    +0.085 C 
ATOM     25  C   UNL     1      -7.197 -15.007  10.689  0.00  0.00    +0.104 C 
ENDBRANCH   6  14
BRANCH  23  26
ATOM     26  C   UNL     1      -4.980 -11.038  15.080  0.00  0.00    -0.012 A 
ATOM     27  C   UNL     1      -5.676 -12.222  15.316  0.00  0.00    +0.012 A 
ATOM     28  C   UNL     1      -4.481 -10.297  16.153  0.00  0.00    +0.012 A 
ATOM     29  C   UNL     1      -5.874 -12.668  16.623  0.00  0.00    +0.046 A 
ATOM     30  C   UNL     1      -4.679 -10.743  17.460  0.00  0.00    +0.046 A 
ATOM     31  C   UNL     1      -5.375 -11.929  17.695  0.00  0.00    +0.130 A 
BRANCH  31   5
ATOM      5  O   UNL     1      -5.568 -12.363  18.970  0.00  0.00    -0.406 OA
BRANCH   5  32
ATOM      1  F   UNL     1      -5.955 -10.980  20.712  0.00  0.00    -0.133 F 
ATOM      2  F   UNL     1      -7.318 -10.889  19.005  0.00  0.00    -0.133 F 
ATOM      3  F   UNL     1      -7.356 -12.624  20.374  0.00  0.00    -0.133 F 
ATOM     32  C   UNL     1      -6.564 -11.720  19.758  0.00  0.00    +0.575 C 
ENDBRANCH   5  32
ENDBRANCH  31   5
ENDBRANCH  23  26
TORSDOF 4
ENDMDL
MODEL 10
REMARK VINA RESULT:      -6.0     17.521     20.873
REMARK  Name = 7674768
REMARK  5 active torsions:
REMARK  status: ('A' for Active; 'I' for Inactive)
REMARK    1  A    between atoms: O_5  and  C_31
REMARK    2  A    between atoms: O_5  and  C_32
REMARK    3  A    between atoms: N_6  and  C_14
REMARK    4  A    between atoms: N_8  and  C_25
REMARK    5  A    between atoms: C_23  and  C_26
REMARK                            x       y       z     vdW  Elec       q    Type
REMARK                         _______ _______ _______ _____ _____    ______ ____
ROOT
ATOM      4  O   UNL     1      19.155   7.545  22.777  0.00  0.00    -0.267 OA
ATOM      6  N   UNL     1      24.039   6.775  21.947  0.00  0.00    -0.298 NA
ATOM      7  N   UNL     1      20.961   6.108  22.450  0.00  0.00    -0.311 N 
ATOM      9  C   UNL     1      22.948   5.993  24.065  0.00  0.00    +0.024 C 
ATOM     10  C   UNL     1      22.907   4.552  22.087  0.00  0.00    +0.050 C 
ATOM     11  C   UNL     1      23.049   4.545  23.606  0.00  0.00    +0.017 C 
ATOM     12  C   UNL     1      24.068   6.833  23.414  0.00  0.00    +0.090 C 
ATOM     13  C   UNL     1      24.051   5.386  21.465  0.00  0.00    +0.094 C 
ATOM     15  C   UNL     1      21.546   6.522  23.734  0.00  0.00    +0.130 C 
ATOM     16  C   UNL     1      21.558   5.112  21.673  0.00  0.00    +0.026 A 
ATOM     21  C   UNL     1      20.949   4.670  20.561  0.00  0.00    +0.022 A 
ATOM     22  C   UNL     1      19.727   6.690  22.101  0.00  0.00    +0.259 A 
ATOM     23  C   UNL     1      19.086   6.198  20.830  0.00  0.00    +0.047 A 
ATOM     24  C   UNL     1      19.697   5.229  20.135  0.00  0.00    +0.015 A 
ENDROOT
BRANCH   6  14
ATOM      8  N   UNL     1      23.998  10.001  20.226  0.00  0.00    -0.305 NA
ATOM     14  C   UNL     1      25.148   7.539  21.370  0.00  0.00    +0.059 C 
ATOM     17  C   UNL     1      25.261   8.906  22.052  0.00  0.00    +0.034 C 
ATOM     18  C   UNL     1      24.930   7.736  19.866  0.00  0.00    +0.034 C 
ATOM     19  C   UNL     1      24.107   9.843  21.683  0.00  0.00    +0.085 C 
ATOM     20  C   UNL     1      23.785   8.707  19.561  0.00  0.00    +0.085 C 
ATOM     25  C   UNL     1      22.922  10.933  19.890  0.00  0.00    +0.104 C 
ENDBRANCH   6  14
BRANCH  23  26
ATOM     26  C   UNL     1      17.815   6.768  20.346  0.00  0.00    -0.012 A 
ATOM     27  C   UNL     1      17.020   6.046  19.457  0.00  0.00    +0.012 A 
ATOM     28  C   UNL     1      17.409   8.032  20.777  0.00  0.00    +0.012 A 
ATOM     29  C   UNL     1      15.818   6.587  18.998  0.00  0.00    +0.046 A 
ATOM     30  C   UNL     1      16.208   8.572  20.318  0.00  0.00    +0.046 A 
ATOM     31  C   UNL     1      15.412   7.849  19.429  0.00  0.00    +0.130 A 
BRANCH  31   5
ATOM      5  O   UNL     1      14.240   8.377  18.981  0.00  0.00    -0.406 OA
BRANCH   5  32
ATOM      1  F   UNL     1      13.244   7.555  20.832  0.00  0.00    -0.133 F 
ATOM      2  F   UNL     1      12.065   8.841  19.516  0.00  0.00    -0.133 F 
ATOM      3  F   UNL     1      12.596   6.789  18.891  0.00  0.00    -0.133 F 
ATOM     32  C   UNL     1      13.025   7.892  19.541  0.00  0.00    +0.575 C 
ENDBRANCH   5  32
ENDBRANCH  31   5
ENDBRANCH  23  26
TORSDOF 4
ENDMDL
