MODEL 1
REMARK VINA RESULT:      -7.7      0.000      0.000
REMARK  Name = 75536757
REMARK  8 active torsions:
REMARK  status: ('A' for Active; 'I' for Inactive)
REMARK    1  A    between atoms: S_1  and  C_25
REMARK    2  A    between atoms: S_1  and  C_28
REMARK    3  A    between atoms: O_3  and  C_12
REMARK    4  A    between atoms: N_8  and  C_11
REMARK    5  A    between atoms: N_8  and  C_16
REMARK    6  A    between atoms: N_9  and  C_15
REMARK    7  A    between atoms: C_13  and  C_15
REMARK    8  A    between atoms: C_16  and  C_18
REMARK                            x       y       z     vdW  Elec       q    Type
REMARK                         _______ _______ _______ _____ _____    ______ ____
ROOT
ATOM      2  O   UNL     1      11.102   8.818  19.971  0.00  0.00    -0.371 OA
ATOM     11  C   UNL     1      12.508   6.944  19.581  0.00  0.00    +0.111 C 
ATOM     12  C   UNL     1      12.218   7.046  21.068  0.00  0.00    +0.164 C 
ATOM     13  C   UNL     1      10.955   7.897  21.062  0.00  0.00    +0.165 C 
ATOM     14  C   UNL     1      12.152   8.345  19.109  0.00  0.00    +0.181 C 
ENDROOT
BRANCH  12   3
ATOM      3  O   UNL     1      12.002   5.784  21.668  0.00  0.00    -0.388 OA
ATOM     30  H   UNL     1      12.129   5.097  20.993  0.00  0.00    +0.210 HD
ENDBRANCH  12   3
BRANCH  11   8
ATOM      8  N   UNL     1      13.882   6.577  19.278  0.00  0.00    -0.305 NA
ATOM     29  H   UNL     1      13.939   6.273  18.306  0.00  0.00    +0.123 HD
BRANCH   8  16
ATOM     16  C   UNL     1      14.782   7.708  19.472  0.00  0.00    +0.116 C 
BRANCH  16  18
ATOM     18  C   UNL     1      16.162   7.263  19.876  0.00  0.00    -0.033 A 
ATOM     23  C   UNL     1      16.842   7.938  20.890  0.00  0.00    +0.007 A 
ATOM     24  C   UNL     1      16.760   6.178  19.237  0.00  0.00    +0.007 A 
ATOM     25  C   UNL     1      18.720   6.440  20.627  0.00  0.00    +0.088 A 
ATOM     26  C   UNL     1      18.121   7.526  21.266  0.00  0.00    +0.027 A 
ATOM     27  C   UNL     1      18.040   5.766  19.612  0.00  0.00    +0.027 A 
BRANCH  25   1
ATOM      1  S   UNL     1      20.320   5.924  21.098  0.00  0.00    -0.006 S 
ATOM      6  O   UNL     1      20.401   5.909  22.553  0.00  0.00    -0.170 OA
ATOM      7  O   UNL     1      20.642   4.720  20.344  0.00  0.00    -0.170 OA
ATOM     28  C   UNL     1      21.390   7.226  20.533  0.00  0.00    +0.200 C 
ENDBRANCH  25   1
ENDBRANCH  16  18
ENDBRANCH   8  16
ENDBRANCH  11   8
BRANCH  13  15
ATOM     15  C   UNL     1      10.742   8.662  22.356  0.00  0.00    +0.140 C 
BRANCH  15   9
ATOM      4  O   UNL     1      12.286  14.891  22.411  0.00  0.00    -0.377 OA
ATOM      5  O   UNL     1      10.964  10.565  24.416  0.00  0.00    -0.253 OA
ATOM      9  N   UNL     1      10.959  10.079  22.174  0.00  0.00    -0.297 N 
ATOM     10  N   UNL     1      11.261  12.305  22.912  0.00  0.00    -0.281 N 
ATOM     17  C   UNL     1      11.058  10.957  23.248  0.00  0.00    +0.302 C 
ATOM     19  C   UNL     1      11.370  13.300  23.981  0.00  0.00    +0.137 C 
ATOM     20  C   UNL     1      11.232  12.874  21.556  0.00  0.00    +0.137 C 
ATOM     21  C   UNL     1      12.486  14.292  23.692  0.00  0.00    +0.179 C 
ATOM     22  C   UNL     1      12.339  13.907  21.378  0.00  0.00    +0.179 C 
ATOM     31  H   UNL     1      11.017  10.400  21.218  0.00  0.00    +0.150 HD
ENDBRANCH  15   9
ENDBRANCH  13  15
TORSDOF 7
ENDMDL
MODEL 2
REMARK VINA RESULT:      -7.5      1.581      2.054
REMARK  Name = 75536757
REMARK  8 active torsions:
REMARK  status: ('A' for Active; 'I' for Inactive)
REMARK    1  A    between atoms: S_1  and  C_25
REMARK    2  A    between atoms: S_1  and  C_28
REMARK    3  A    between atoms: O_3  and  C_12
REMARK    4  A    between atoms: N_8  and  C_11
REMARK    5  A    between atoms: N_8  and  C_16
REMARK    6  A    between atoms: N_9  and  C_15
REMARK    7  A    between atoms: C_13  and  C_15
REMARK    8  A    between atoms: C_16  and  C_18
REMARK                            x       y       z     vdW  Elec       q    Type
REMARK                         _______ _______ _______ _____ _____    ______ ____
ROOT
ATOM      2  O   UNL     1      11.535   8.850  20.065  0.00  0.00    -0.371 OA
ATOM     11  C   UNL     1      12.805   6.865  19.769  0.00  0.00    +0.111 C 
ATOM     12  C   UNL     1      12.302   6.924  21.200  0.00  0.00    +0.164 C 
ATOM     13  C   UNL     1      11.138   7.896  21.063  0.00  0.00    +0.165 C 
ATOM     14  C   UNL     1      12.657   8.316  19.339  0.00  0.00    +0.181 C 
ENDROOT
BRANCH  12   3
ATOM      3  O   UNL     1      11.882   5.662  21.681  0.00  0.00    -0.388 OA
ATOM     30  H   UNL     1      12.522   4.992  21.387  0.00  0.00    +0.210 HD
ENDBRANCH  12   3
BRANCH  11   8
ATOM      8  N   UNL     1      14.170   6.377  19.650  0.00  0.00    -0.305 NA
ATOM     29  H   UNL     1      14.216   5.701  18.887  0.00  0.00    +0.123 HD
BRANCH   8  16
ATOM     16  C   UNL     1      15.095   7.469  19.369  0.00  0.00    +0.116 C 
BRANCH  16  18
ATOM     18  C   UNL     1      16.473   7.188  19.904  0.00  0.00    -0.033 A 
ATOM     23  C   UNL     1      17.199   6.098  19.422  0.00  0.00    +0.007 A 
ATOM     24  C   UNL     1      17.025   8.016  20.881  0.00  0.00    +0.007 A 
ATOM     25  C   UNL     1      19.029   6.666  20.893  0.00  0.00    +0.088 A 
ATOM     26  C   UNL     1      18.477   5.838  19.917  0.00  0.00    +0.027 A 
ATOM     27  C   UNL     1      18.303   7.756  21.376  0.00  0.00    +0.027 A 
BRANCH  25   1
ATOM      1  S   UNL     1      20.630   6.341  21.511  0.00  0.00    -0.006 S 
ATOM      6  O   UNL     1      21.488   7.482  21.222  0.00  0.00    -0.170 OA
ATOM      7  O   UNL     1      20.493   5.868  22.881  0.00  0.00    -0.170 OA
ATOM     28  C   UNL     1      21.219   4.986  20.522  0.00  0.00    +0.200 C 
ENDBRANCH  25   1
ENDBRANCH  16  18
ENDBRANCH   8  16
ENDBRANCH  11   8
BRANCH  13  15
ATOM     15  C   UNL     1      10.802   8.614  22.357  0.00  0.00    +0.140 C 
BRANCH  15   9
ATOM      4  O   UNL     1      14.925  12.945  24.688  0.00  0.00    -0.377 OA
ATOM      5  O   UNL     1      10.824  11.428  22.373  0.00  0.00    -0.253 OA
ATOM      9  N   UNL     1      11.897   9.446  22.801  0.00  0.00    -0.297 N 
ATOM     10  N   UNL     1      12.977  11.504  23.233  0.00  0.00    -0.281 N 
ATOM     17  C   UNL     1      11.829  10.834  22.777  0.00  0.00    +0.302 C 
ATOM     19  C   UNL     1      12.995  12.969  23.236  0.00  0.00    +0.137 C 
ATOM     20  C   UNL     1      14.262  10.882  23.584  0.00  0.00    +0.137 C 
ATOM     21  C   UNL     1      13.623  13.504  24.513  0.00  0.00    +0.179 C 
ATOM     22  C   UNL     1      14.851  11.527  24.835  0.00  0.00    +0.179 C 
ATOM     31  H   UNL     1      12.726   8.959  23.113  0.00  0.00    +0.150 HD
ENDBRANCH  15   9
ENDBRANCH  13  15
TORSDOF 7
ENDMDL
MODEL 3
REMARK VINA RESULT:      -6.7     26.865     30.265
REMARK  Name = 75536757
REMARK  8 active torsions:
REMARK  status: ('A' for Active; 'I' for Inactive)
REMARK    1  A    between atoms: S_1  and  C_25
REMARK    2  A    between atoms: S_1  and  C_28
REMARK    3  A    between atoms: O_3  and  C_12
REMARK    4  A    between atoms: N_8  and  C_11
REMARK    5  A    between atoms: N_8  and  C_16
REMARK    6  A    between atoms: N_9  and  C_15
REMARK    7  A    between atoms: C_13  and  C_15
REMARK    8  A    between atoms: C_16  and  C_18
REMARK                            x       y       z     vdW  Elec       q    Type
REMARK                         _______ _______ _______ _____ _____    ______ ____
ROOT
ATOM      2  O   UNL     1     -17.825   4.777  24.976  0.00  0.00    -0.371 OA
ATOM     11  C   UNL     1     -16.356   3.704  23.450  0.00  0.00    +0.111 C 
ATOM     12  C   UNL     1     -15.856   3.474  24.865  0.00  0.00    +0.164 C 
ATOM     13  C   UNL     1     -17.123   3.733  25.669  0.00  0.00    +0.165 C 
ATOM     14  C   UNL     1     -17.283   4.892  23.649  0.00  0.00    +0.181 C 
ENDROOT
BRANCH  12   3
ATOM      3  O   UNL     1     -15.365   2.162  25.062  0.00  0.00    -0.388 OA
ATOM     30  H   UNL     1     -14.827   2.155  25.872  0.00  0.00    +0.210 HD
ENDBRANCH  12   3
BRANCH  11   8
ATOM      8  N   UNL     1     -15.295   3.969  22.492  0.00  0.00    -0.305 NA
ATOM     29  H   UNL     1     -15.703   4.358  21.642  0.00  0.00    +0.123 HD
BRANCH   8  16
ATOM     16  C   UNL     1     -14.329   4.920  23.029  0.00  0.00    +0.116 C 
BRANCH  16  18
ATOM     18  C   UNL     1     -13.767   5.814  21.957  0.00  0.00    -0.033 A 
ATOM     23  C   UNL     1     -14.622   6.611  21.195  0.00  0.00    +0.007 A 
ATOM     24  C   UNL     1     -12.392   5.848  21.725  0.00  0.00    +0.007 A 
ATOM     25  C   UNL     1     -12.727   7.474  19.970  0.00  0.00    +0.088 A 
ATOM     26  C   UNL     1     -14.102   7.441  20.201  0.00  0.00    +0.027 A 
ATOM     27  C   UNL     1     -11.872   6.677  20.732  0.00  0.00    +0.027 A 
BRANCH  25   1
ATOM      1  S   UNL     1     -12.076   8.515  18.728  0.00  0.00    -0.006 S 
ATOM      6  O   UNL     1     -11.268   7.714  17.817  0.00  0.00    -0.170 OA
ATOM      7  O   UNL     1     -13.168   9.323  18.204  0.00  0.00    -0.170 OA
ATOM     28  C   UNL     1     -10.962   9.596  19.594  0.00  0.00    +0.200 C 
ENDBRANCH  25   1
ENDBRANCH  16  18
ENDBRANCH   8  16
ENDBRANCH  11   8
BRANCH  13  15
ATOM     15  C   UNL     1     -16.847   4.160  27.099  0.00  0.00    +0.140 C 
BRANCH  15   9
ATOM      4  O   UNL     1     -14.767  -0.102  31.424  0.00  0.00    -0.377 OA
ATOM      5  O   UNL     1     -15.371   4.408  29.482  0.00  0.00    -0.253 OA
ATOM      9  N   UNL     1     -16.329   3.065  27.888  0.00  0.00    -0.297 N 
ATOM     10  N   UNL     1     -15.163   2.110  29.709  0.00  0.00    -0.281 N 
ATOM     17  C   UNL     1     -15.607   3.272  29.058  0.00  0.00    +0.302 C 
ATOM     19  C   UNL     1     -14.388   2.235  30.946  0.00  0.00    +0.137 C 
ATOM     20  C   UNL     1     -15.267   0.735  29.196  0.00  0.00    +0.137 C 
ATOM     21  C   UNL     1     -14.837   1.212  31.977  0.00  0.00    +0.179 C 
ATOM     22  C   UNL     1     -15.653  -0.231  30.311  0.00  0.00    +0.179 C 
ATOM     31  H   UNL     1     -16.507   2.137  27.530  0.00  0.00    +0.150 HD
ENDBRANCH  15   9
ENDBRANCH  13  15
TORSDOF 7
ENDMDL
MODEL 4
REMARK VINA RESULT:      -6.7      3.569      6.851
REMARK  Name = 75536757
REMARK  8 active torsions:
REMARK  status: ('A' for Active; 'I' for Inactive)
REMARK    1  A    between atoms: S_1  and  C_25
REMARK    2  A    between atoms: S_1  and  C_28
REMARK    3  A    between atoms: O_3  and  C_12
REMARK    4  A    between atoms: N_8  and  C_11
REMARK    5  A    between atoms: N_8  and  C_16
REMARK    6  A    between atoms: N_9  and  C_15
REMARK    7  A    between atoms: C_13  and  C_15
REMARK    8  A    between atoms: C_16  and  C_18
REMARK                            x       y       z     vdW  Elec       q    Type
REMARK                         _______ _______ _______ _____ _____    ______ ____
ROOT
ATOM      2  O   UNL     1      13.030  12.301  23.985  0.00  0.00    -0.371 OA
ATOM     11  C   UNL     1      12.549  13.775  22.186  0.00  0.00    +0.111 C 
ATOM     12  C   UNL     1      11.476  12.702  22.249  0.00  0.00    +0.164 C 
ATOM     13  C   UNL     1      11.627  12.220  23.685  0.00  0.00    +0.165 C 
ATOM     14  C   UNL     1      13.663  13.133  22.997  0.00  0.00    +0.181 C 
ENDROOT
BRANCH  12   3
ATOM      3  O   UNL     1      10.181  13.212  21.997  0.00  0.00    -0.388 OA
ATOM     30  H   UNL     1       9.534  12.639  22.442  0.00  0.00    +0.210 HD
ENDBRANCH  12   3
BRANCH  11   8
ATOM      8  N   UNL     1      12.957  14.113  20.832  0.00  0.00    -0.305 NA
ATOM     29  H   UNL     1      13.120  15.118  20.775  0.00  0.00    +0.123 HD
BRANCH   8  16
ATOM     16  C   UNL     1      14.184  13.415  20.465  0.00  0.00    +0.116 C 
BRANCH  16  18
ATOM     18  C   UNL     1      13.947  12.397  19.382  0.00  0.00    -0.033 A 
ATOM     23  C   UNL     1      14.389  12.645  18.083  0.00  0.00    +0.007 A 
ATOM     24  C   UNL     1      13.286  11.204  19.678  0.00  0.00    +0.007 A 
ATOM     25  C   UNL     1      13.510  10.509  17.375  0.00  0.00    +0.088 A 
ATOM     26  C   UNL     1      14.170  11.702  17.079  0.00  0.00    +0.027 A 
ATOM     27  C   UNL     1      13.068  10.260  18.674  0.00  0.00    +0.027 A 
BRANCH  25   1
ATOM      1  S   UNL     1      13.238   9.327  16.118  0.00  0.00    -0.006 S 
ATOM      6  O   UNL     1      13.710   9.869  14.851  0.00  0.00    -0.170 OA
ATOM      7  O   UNL     1      13.747   8.047  16.591  0.00  0.00    -0.170 OA
ATOM     28  C   UNL     1      11.468   9.203  16.002  0.00  0.00    +0.200 C 
ENDBRANCH  25   1
ENDBRANCH  16  18
ENDBRANCH   8  16
ENDBRANCH  11   8
BRANCH  13  15
ATOM     15  C   UNL     1      11.137  10.799  23.895  0.00  0.00    +0.140 C 
BRANCH  15   9
ATOM      4  O   UNL     1      14.067   6.631  19.991  0.00  0.00    -0.377 OA
ATOM      5  O   UNL     1      10.192   8.725  22.245  0.00  0.00    -0.253 OA
ATOM      9  N   UNL     1      11.959   9.846  23.185  0.00  0.00    -0.297 N 
ATOM     10  N   UNL     1      12.340   7.993  21.767  0.00  0.00    -0.281 N 
ATOM     17  C   UNL     1      11.413   8.847  22.386  0.00  0.00    +0.302 C 
ATOM     19  C   UNL     1      11.851   6.907  20.913  0.00  0.00    +0.137 C 
ATOM     20  C   UNL     1      13.791   7.972  22.001  0.00  0.00    +0.137 C 
ATOM     21  C   UNL     1      12.689   6.787  19.650  0.00  0.00    +0.179 C 
ATOM     22  C   UNL     1      14.548   7.778  20.691  0.00  0.00    +0.179 C 
ATOM     31  H   UNL     1      12.957   9.935  23.316  0.00  0.00    +0.150 HD
ENDBRANCH  15   9
ENDBRANCH  13  15
TORSDOF 7
ENDMDL
MODEL 5
REMARK VINA RESULT:      -6.6     27.110     29.324
REMARK  Name = 75536757
REMARK  8 active torsions:
REMARK  status: ('A' for Active; 'I' for Inactive)
REMARK    1  A    between atoms: S_1  and  C_25
REMARK    2  A    between atoms: S_1  and  C_28
REMARK    3  A    between atoms: O_3  and  C_12
REMARK    4  A    between atoms: N_8  and  C_11
REMARK    5  A    between atoms: N_8  and  C_16
REMARK    6  A    between atoms: N_9  and  C_15
REMARK    7  A    between atoms: C_13  and  C_15
REMARK    8  A    between atoms: C_16  and  C_18
REMARK                            x       y       z     vdW  Elec       q    Type
REMARK                         _______ _______ _______ _____ _____    ______ ____
ROOT
ATOM      2  O   UNL     1      -5.379 -11.488  15.919  0.00  0.00    -0.371 OA
ATOM     11  C   UNL     1      -3.256 -11.151  14.909  0.00  0.00    +0.111 C 
ATOM     12  C   UNL     1      -3.180 -10.748  16.371  0.00  0.00    +0.164 C 
ATOM     13  C   UNL     1      -4.373 -11.499  16.944  0.00  0.00    +0.165 C 
ATOM     14  C   UNL     1      -4.758 -11.133  14.671  0.00  0.00    +0.181 C 
ENDROOT
BRANCH  12   3
ATOM      3  O   UNL     1      -1.966 -11.142  16.981  0.00  0.00    -0.388 OA
ATOM     30  H   UNL     1      -1.506 -10.344  17.293  0.00  0.00    +0.210 HD
ENDBRANCH  12   3
BRANCH  11   8
ATOM      8  N   UNL     1      -2.532 -10.257  14.019  0.00  0.00    -0.305 NA
ATOM     29  H   UNL     1      -1.824  -9.756  14.556  0.00  0.00    +0.123 HD
BRANCH   8  16
ATOM     16  C   UNL     1      -1.875 -11.000  12.950  0.00  0.00    +0.116 C 
BRANCH  16  18
ATOM     18  C   UNL     1      -2.679 -10.978  11.677  0.00  0.00    -0.033 A 
ATOM     23  C   UNL     1      -2.879  -9.775  11.000  0.00  0.00    +0.007 A 
ATOM     24  C   UNL     1      -3.221 -12.161  11.174  0.00  0.00    +0.007 A 
ATOM     25  C   UNL     1      -4.165 -10.937   9.317  0.00  0.00    +0.088 A 
ATOM     26  C   UNL     1      -3.623  -9.755   9.820  0.00  0.00    +0.027 A 
ATOM     27  C   UNL     1      -3.965 -12.140   9.994  0.00  0.00    +0.027 A 
BRANCH  25   1
ATOM      1  S   UNL     1      -5.094 -10.912   7.838  0.00  0.00    -0.006 S 
ATOM      6  O   UNL     1      -5.445  -9.532   7.526  0.00  0.00    -0.170 OA
ATOM      7  O   UNL     1      -4.389 -11.719   6.853  0.00  0.00    -0.170 OA
ATOM     28  C   UNL     1      -6.607 -11.750   8.251  0.00  0.00    +0.200 C 
ENDBRANCH  25   1
ENDBRANCH  16  18
ENDBRANCH   8  16
ENDBRANCH  11   8
BRANCH  13  15
ATOM     15  C   UNL     1      -4.924 -10.871  18.211  0.00  0.00    +0.140 C 
BRANCH  15   9
ATOM      4  O   UNL     1     -11.224  -9.821  18.846  0.00  0.00    -0.377 OA
ATOM      5  O   UNL     1      -6.828 -11.709  20.106  0.00  0.00    -0.253 OA
ATOM      9  N   UNL     1      -6.352 -10.662  18.122  0.00  0.00    -0.297 N 
ATOM     10  N   UNL     1      -8.587 -10.838  18.871  0.00  0.00    -0.281 N 
ATOM     17  C   UNL     1      -7.228 -11.109  19.104  0.00  0.00    +0.302 C 
ATOM     19  C   UNL     1      -9.582 -11.279  19.852  0.00  0.00    +0.137 C 
ATOM     20  C   UNL     1      -9.159 -10.269  17.642  0.00  0.00    +0.137 C 
ATOM     21  C   UNL     1     -10.630 -10.203  20.087  0.00  0.00    +0.179 C 
ATOM     22  C   UNL     1     -10.249  -9.253  17.971  0.00  0.00    +0.179 C 
ATOM     31  H   UNL     1      -6.679 -10.188  17.292  0.00  0.00    +0.150 HD
ENDBRANCH  15   9
ENDBRANCH  13  15
TORSDOF 7
ENDMDL
MODEL 6
REMARK VINA RESULT:      -6.6     27.350     30.054
REMARK  Name = 75536757
REMARK  8 active torsions:
REMARK  status: ('A' for Active; 'I' for Inactive)
REMARK    1  A    between atoms: S_1  and  C_25
REMARK    2  A    between atoms: S_1  and  C_28
REMARK    3  A    between atoms: O_3  and  C_12
REMARK    4  A    between atoms: N_8  and  C_11
REMARK    5  A    between atoms: N_8  and  C_16
REMARK    6  A    between atoms: N_9  and  C_15
REMARK    7  A    between atoms: C_13  and  C_15
REMARK    8  A    between atoms: C_16  and  C_18
REMARK                            x       y       z     vdW  Elec       q    Type
REMARK                         _______ _______ _______ _____ _____    ______ ____
ROOT
ATOM      2  O   UNL     1     -10.302 -12.694  18.532  0.00  0.00    -0.371 OA
ATOM     11  C   UNL     1      -8.648 -11.462  19.710  0.00  0.00    +0.111 C 
ATOM     12  C   UNL     1      -9.922 -10.640  19.639  0.00  0.00    +0.164 C 
ATOM     13  C   UNL     1     -10.956 -11.724  19.366  0.00  0.00    +0.165 C 
ATOM     14  C   UNL     1      -8.882 -12.475  18.600  0.00  0.00    +0.181 C 
ENDROOT
BRANCH  12   3
ATOM      3  O   UNL     1     -10.190  -9.946  20.842  0.00  0.00    -0.388 OA
ATOM     30  H   UNL     1     -10.705 -10.530  21.425  0.00  0.00    +0.210 HD
ENDBRANCH  12   3
BRANCH  11   8
ATOM      8  N   UNL     1      -7.438 -10.680  19.515  0.00  0.00    -0.305 NA
ATOM     29  H   UNL     1      -6.633 -11.308  19.512  0.00  0.00    +0.123 HD
BRANCH   8  16
ATOM     16  C   UNL     1      -7.477  -9.958  18.250  0.00  0.00    +0.116 C 
BRANCH  16  18
ATOM     18  C   UNL     1      -6.266 -10.243  17.403  0.00  0.00    -0.033 A 
ATOM     23  C   UNL     1      -5.113 -10.765  17.989  0.00  0.00    +0.007 A 
ATOM     24  C   UNL     1      -6.297  -9.987  16.032  0.00  0.00    +0.007 A 
ATOM     25  C   UNL     1      -4.021 -10.774  15.834  0.00  0.00    +0.088 A 
ATOM     26  C   UNL     1      -3.990 -11.030  17.205  0.00  0.00    +0.027 A 
ATOM     27  C   UNL     1      -5.174 -10.252  15.248  0.00  0.00    +0.027 A 
BRANCH  25   1
ATOM      1  S   UNL     1      -2.617 -11.108  14.852  0.00  0.00    -0.006 S 
ATOM      6  O   UNL     1      -2.462 -12.552  14.725  0.00  0.00    -0.170 OA
ATOM      7  O   UNL     1      -2.701 -10.283  13.655  0.00  0.00    -0.170 OA
ATOM     28  C   UNL     1      -1.247 -10.524  15.824  0.00  0.00    +0.200 C 
ENDBRANCH  25   1
ENDBRANCH  16  18
ENDBRANCH   8  16
ENDBRANCH  11   8
BRANCH  13  15
ATOM     15  C   UNL     1     -12.201 -11.203  18.670  0.00  0.00    +0.140 C 
BRANCH  15   9
ATOM      4  O   UNL     1     -11.996  -5.740  15.308  0.00  0.00    -0.377 OA
ATOM      5  O   UNL     1     -13.770 -10.183  16.569  0.00  0.00    -0.253 OA
ATOM      9  N   UNL     1     -11.922 -10.002  17.916  0.00  0.00    -0.297 N 
ATOM     10  N   UNL     1     -12.343  -8.384  16.244  0.00  0.00    -0.281 N 
ATOM     17  C   UNL     1     -12.750  -9.564  16.889  0.00  0.00    +0.302 C 
ATOM     19  C   UNL     1     -13.154  -7.854  15.145  0.00  0.00    +0.137 C 
ATOM     20  C   UNL     1     -11.073  -7.674  16.457  0.00  0.00    +0.137 C 
ATOM     21  C   UNL     1     -13.289  -6.343  15.247  0.00  0.00    +0.179 C 
ATOM     22  C   UNL     1     -11.294  -6.165  16.476  0.00  0.00    +0.179 C 
ATOM     31  H   UNL     1     -11.078  -9.507  18.166  0.00  0.00    +0.150 HD
ENDBRANCH  15   9
ENDBRANCH  13  15
TORSDOF 7
ENDMDL
MODEL 7
REMARK VINA RESULT:      -6.5      3.430      5.431
REMARK  Name = 75536757
REMARK  8 active torsions:
REMARK  status: ('A' for Active; 'I' for Inactive)
REMARK    1  A    between atoms: S_1  and  C_25
REMARK    2  A    between atoms: S_1  and  C_28
REMARK    3  A    between atoms: O_3  and  C_12
REMARK    4  A    between atoms: N_8  and  C_11
REMARK    5  A    between atoms: N_8  and  C_16
REMARK    6  A    between atoms: N_9  and  C_15
REMARK    7  A    between atoms: C_13  and  C_15
REMARK    8  A    between atoms: C_16  and  C_18
REMARK                            x       y       z     vdW  Elec       q    Type
REMARK                         _______ _______ _______ _____ _____    ______ ____
ROOT
ATOM      2  O   UNL     1      16.637   7.754  20.775  0.00  0.00    -0.371 OA
ATOM     11  C   UNL     1      18.336   6.412  19.800  0.00  0.00    +0.111 C 
ATOM     12  C   UNL     1      16.980   5.839  19.432  0.00  0.00    +0.164 C 
ATOM     13  C   UNL     1      16.081   7.048  19.654  0.00  0.00    +0.165 C 
ATOM     14  C   UNL     1      17.980   7.286  20.991  0.00  0.00    +0.181 C 
ENDROOT
BRANCH  12   3
ATOM      3  O   UNL     1      16.926   5.381  18.094  0.00  0.00    -0.388 OA
ATOM     30  H   UNL     1      17.027   6.147  17.504  0.00  0.00    +0.210 HD
ENDBRANCH  12   3
BRANCH  11   8
ATOM      8  N   UNL     1      19.330   5.399  20.119  0.00  0.00    -0.305 NA
ATOM     29  H   UNL     1      19.822   5.136  19.265  0.00  0.00    +0.123 HD
BRANCH   8  16
ATOM     16  C   UNL     1      20.298   5.900  21.086  0.00  0.00    +0.116 C 
BRANCH  16  18
ATOM     18  C   UNL     1      21.500   5.001  21.194  0.00  0.00    -0.033 A 
ATOM     23  C   UNL     1      21.381   3.641  20.909  0.00  0.00    +0.007 A 
ATOM     24  C   UNL     1      22.733   5.528  21.578  0.00  0.00    +0.007 A 
ATOM     25  C   UNL     1      23.728   3.334  21.393  0.00  0.00    +0.088 A 
ATOM     26  C   UNL     1      22.495   2.807  21.009  0.00  0.00    +0.027 A 
ATOM     27  C   UNL     1      23.848   4.694  21.678  0.00  0.00    +0.027 A 
BRANCH  25   1
ATOM      1  S   UNL     1      25.123   2.290  21.514  0.00  0.00    -0.006 S 
ATOM      6  O   UNL     1      24.670   0.911  21.645  0.00  0.00    -0.170 OA
ATOM      7  O   UNL     1      26.045   2.650  20.447  0.00  0.00    -0.170 OA
ATOM     28  C   UNL     1      25.877   2.737  23.062  0.00  0.00    +0.200 C 
ENDBRANCH  25   1
ENDBRANCH  16  18
ENDBRANCH   8  16
ENDBRANCH  11   8
BRANCH  13  15
ATOM     15  C   UNL     1      14.638   6.676  19.945  0.00  0.00    +0.140 C 
BRANCH  15   9
ATOM      4  O   UNL     1      10.990  11.477  22.144  0.00  0.00    -0.377 OA
ATOM      5  O   UNL     1      12.383   6.758  21.627  0.00  0.00    -0.253 OA
ATOM      9  N   UNL     1      13.837   7.846  20.224  0.00  0.00    -0.297 N 
ATOM     10  N   UNL     1      12.051   9.020  21.236  0.00  0.00    -0.281 N 
ATOM     17  C   UNL     1      12.734   7.804  21.070  0.00  0.00    +0.302 C 
ATOM     19  C   UNL     1      10.872   9.065  22.105  0.00  0.00    +0.137 C 
ATOM     20  C   UNL     1      12.307  10.266  20.498  0.00  0.00    +0.137 C 
ATOM     21  C   UNL     1      10.879  10.316  22.969  0.00  0.00    +0.179 C 
ATOM     22  C   UNL     1      12.224  11.472  21.427  0.00  0.00    +0.179 C 
ATOM     31  H   UNL     1      14.113   8.697  19.754  0.00  0.00    +0.150 HD
ENDBRANCH  15   9
ENDBRANCH  13  15
TORSDOF 7
ENDMDL
MODEL 8
REMARK VINA RESULT:      -6.5      4.267     10.774
REMARK  Name = 75536757
REMARK  8 active torsions:
REMARK  status: ('A' for Active; 'I' for Inactive)
REMARK    1  A    between atoms: S_1  and  C_25
REMARK    2  A    between atoms: S_1  and  C_28
REMARK    3  A    between atoms: O_3  and  C_12
REMARK    4  A    between atoms: N_8  and  C_11
REMARK    5  A    between atoms: N_8  and  C_16
REMARK    6  A    between atoms: N_9  and  C_15
REMARK    7  A    between atoms: C_13  and  C_15
REMARK    8  A    between atoms: C_16  and  C_18
REMARK                            x       y       z     vdW  Elec       q    Type
REMARK                         _______ _______ _______ _____ _____    ______ ____
ROOT
ATOM      2  O   UNL     1      20.621   8.869  21.484  0.00  0.00    -0.371 OA
ATOM     11  C   UNL     1      18.779   7.574  22.240  0.00  0.00    +0.111 C 
ATOM     12  C   UNL     1      20.069   6.867  22.614  0.00  0.00    +0.164 C 
ATOM     13  C   UNL     1      21.063   8.019  22.554  0.00  0.00    +0.165 C 
ATOM     14  C   UNL     1      19.261   8.528  21.159  0.00  0.00    +0.181 C 
ENDROOT
BRANCH  12   3
ATOM      3  O   UNL     1      20.017   6.282  23.901  0.00  0.00    -0.388 OA
ATOM     30  H   UNL     1      20.551   5.469  23.890  0.00  0.00    +0.210 HD
ENDBRANCH  12   3
BRANCH  11   8
ATOM      8  N   UNL     1      17.734   6.675  21.777  0.00  0.00    -0.305 NA
ATOM     29  H   UNL     1      17.010   6.610  22.493  0.00  0.00    +0.123 HD
BRANCH   8  16
ATOM     16  C   UNL     1      17.133   7.163  20.541  0.00  0.00    +0.116 C 
BRANCH  16  18
ATOM     18  C   UNL     1      15.639   7.300  20.661  0.00  0.00    -0.033 A 
ATOM     23  C   UNL     1      15.082   7.895  21.793  0.00  0.00    +0.007 A 
ATOM     24  C   UNL     1      14.811   6.833  19.640  0.00  0.00    +0.007 A 
ATOM     25  C   UNL     1      12.869   7.556  20.883  0.00  0.00    +0.088 A 
ATOM     26  C   UNL     1      13.697   8.023  21.904  0.00  0.00    +0.027 A 
ATOM     27  C   UNL     1      13.426   6.961  19.751  0.00  0.00    +0.027 A 
BRANCH  25   1
ATOM      1  S   UNL     1      11.136   7.719  21.022  0.00  0.00    -0.006 S 
ATOM      6  O   UNL     1      10.625   8.364  19.819  0.00  0.00    -0.170 OA
ATOM      7  O   UNL     1      10.598   6.430  21.436  0.00  0.00    -0.170 OA
ATOM     28  C   UNL     1      10.904   8.864  22.362  0.00  0.00    +0.200 C 
ENDBRANCH  25   1
ENDBRANCH  16  18
ENDBRANCH   8  16
ENDBRANCH  11   8
BRANCH  13  15
ATOM     15  C   UNL     1      22.489   7.567  22.296  0.00  0.00    +0.140 C 
BRANCH  15   9
ATOM      4  O   UNL     1      23.989   1.326  22.267  0.00  0.00    -0.377 OA
ATOM      5  O   UNL     1      23.862   5.932  20.463  0.00  0.00    -0.253 OA
ATOM      9  N   UNL     1      22.611   6.129  22.376  0.00  0.00    -0.297 N 
ATOM     10  N   UNL     1      23.333   4.003  21.637  0.00  0.00    -0.281 N 
ATOM     17  C   UNL     1      23.309   5.391  21.427  0.00  0.00    +0.302 C 
ATOM     19  C   UNL     1      24.041   3.148  20.681  0.00  0.00    +0.137 C 
ATOM     20  C   UNL     1      22.580   3.268  22.664  0.00  0.00    +0.137 C 
ATOM     21  C   UNL     1      24.842   2.073  21.399  0.00  0.00    +0.179 C 
ATOM     22  C   UNL     1      23.436   2.167  23.280  0.00  0.00    +0.179 C 
ATOM     31  H   UNL     1      22.143   5.686  23.154  0.00  0.00    +0.150 HD
ENDBRANCH  15   9
ENDBRANCH  13  15
TORSDOF 7
ENDMDL
MODEL 9
REMARK VINA RESULT:      -6.4     27.028     29.306
REMARK  Name = 75536757
REMARK  8 active torsions:
REMARK  status: ('A' for Active; 'I' for Inactive)
REMARK    1  A    between atoms: S_1  and  C_25
REMARK    2  A    between atoms: S_1  and  C_28
REMARK    3  A    between atoms: O_3  and  C_12
REMARK    4  A    between atoms: N_8  and  C_11
REMARK    5  A    between atoms: N_8  and  C_16
REMARK    6  A    between atoms: N_9  and  C_15
REMARK    7  A    between atoms: C_13  and  C_15
REMARK    8  A    between atoms: C_16  and  C_18
REMARK                            x       y       z     vdW  Elec       q    Type
REMARK                         _______ _______ _______ _____ _____    ______ ____
ROOT
ATOM      2  O   UNL     1      -4.214 -12.258  15.393  0.00  0.00    -0.371 OA
ATOM     11  C   UNL     1      -2.216 -12.345  14.113  0.00  0.00    +0.111 C 
ATOM     12  C   UNL     1      -2.158 -11.146  15.042  0.00  0.00    +0.164 C 
ATOM     13  C   UNL     1      -3.186 -11.539  16.093  0.00  0.00    +0.165 C 
ATOM     14  C   UNL     1      -3.706 -12.647  14.105  0.00  0.00    +0.181 C 
ENDROOT
BRANCH  12   3
ATOM      3  O   UNL     1      -0.875 -10.954  15.604  0.00  0.00    -0.388 OA
ATOM     30  H   UNL     1      -0.268 -11.606  15.214  0.00  0.00    +0.210 HD
ENDBRANCH  12   3
BRANCH  11   8
ATOM      8  N   UNL     1      -1.686 -12.081  12.785  0.00  0.00    -0.305 NA
ATOM     29  H   UNL     1      -2.103 -12.737  12.124  0.00  0.00    +0.123 HD
BRANCH   8  16
ATOM     16  C   UNL     1      -1.993 -10.721  12.358  0.00  0.00    +0.116 C 
BRANCH  16  18
ATOM     18  C   UNL     1      -2.859 -10.702  11.127  0.00  0.00    -0.033 A 
ATOM     23  C   UNL     1      -3.385 -11.893  10.627  0.00  0.00    +0.007 A 
ATOM     24  C   UNL     1      -3.136  -9.493  10.488  0.00  0.00    +0.007 A 
ATOM     25  C   UNL     1      -4.465 -10.667   8.847  0.00  0.00    +0.088 A 
ATOM     26  C   UNL     1      -4.188 -11.875   9.486  0.00  0.00    +0.027 A 
ATOM     27  C   UNL     1      -3.939  -9.476   9.348  0.00  0.00    +0.027 A 
BRANCH  25   1
ATOM      1  S   UNL     1      -5.473 -10.645   7.421  0.00  0.00    -0.006 S 
ATOM      6  O   UNL     1      -6.103  -9.336   7.308  0.00  0.00    -0.170 OA
ATOM      7  O   UNL     1      -4.688 -11.167   6.311  0.00  0.00    -0.170 OA
ATOM     28  C   UNL     1      -6.765 -11.814   7.773  0.00  0.00    +0.200 C 
ENDBRANCH  25   1
ENDBRANCH  16  18
ENDBRANCH   8  16
ENDBRANCH  11   8
BRANCH  13  15
ATOM     15  C   UNL     1      -3.791 -10.349  16.815  0.00  0.00    +0.140 C 
BRANCH  15   9
ATOM      4  O   UNL     1      -9.195 -12.121  19.791  0.00  0.00    -0.377 OA
ATOM      5  O   UNL     1      -6.475  -9.539  16.564  0.00  0.00    -0.253 OA
ATOM      9  N   UNL     1      -4.878 -10.750  17.680  0.00  0.00    -0.297 N 
ATOM     10  N   UNL     1      -7.124 -10.776  18.415  0.00  0.00    -0.281 N 
ATOM     17  C   UNL     1      -6.180 -10.305  17.488  0.00  0.00    +0.302 C 
ATOM     19  C   UNL     1      -8.521 -10.351  18.292  0.00  0.00    +0.137 C 
ATOM     20  C   UNL     1      -6.835 -11.560  19.625  0.00  0.00    +0.137 C 
ATOM     21  C   UNL     1      -9.469 -11.517  18.526  0.00  0.00    +0.179 C 
ATOM     22  C   UNL     1      -7.873 -12.660  19.819  0.00  0.00    +0.179 C 
ATOM     31  H   UNL     1      -4.632 -11.361  18.446  0.00  0.00    +0.150 HD
ENDBRANCH  15   9
ENDBRANCH  13  15
TORSDOF 7
ENDMDL
MODEL 10
REMARK VINA RESULT:      -6.3     27.004     29.223
REMARK  Name = 75536757
REMARK  8 active torsions:
REMARK  status: ('A' for Active; 'I' for Inactive)
REMARK    1  A    between atoms: S_1  and  C_25
REMARK    2  A    between atoms: S_1  and  C_28
REMARK    3  A    between atoms: O_3  and  C_12
REMARK    4  A    between atoms: N_8  and  C_11
REMARK    5  A    between atoms: N_8  and  C_16
REMARK    6  A    between atoms: N_9  and  C_15
REMARK    7  A    between atoms: C_13  and  C_15
REMARK    8  A    between atoms: C_16  and  C_18
REMARK                            x       y       z     vdW  Elec       q    Type
REMARK                         _______ _______ _______ _____ _____    ______ ____
ROOT
ATOM      2  O   UNL     1      -7.172 -12.993  18.315  0.00  0.00    -0.371 OA
ATOM     11  C   UNL     1      -5.469 -11.339  18.371  0.00  0.00    +0.111 C 
ATOM     12  C   UNL     1      -6.748 -10.752  18.938  0.00  0.00    +0.164 C 
ATOM     13  C   UNL     1      -7.509 -12.016  19.313  0.00  0.00    +0.165 C 
ATOM     14  C   UNL     1      -6.002 -12.543  17.610  0.00  0.00    +0.181 C 
ENDROOT
BRANCH  12   3
ATOM      3  O   UNL     1      -6.516  -9.923  20.061  0.00  0.00    -0.388 OA
ATOM     30  H   UNL     1      -5.563  -9.931  20.256  0.00  0.00    +0.210 HD
ENDBRANCH  12   3
BRANCH  11   8
ATOM      8  N   UNL     1      -4.729 -10.417  17.523  0.00  0.00    -0.305 NA
ATOM     29  H   UNL     1      -4.425  -9.621  18.084  0.00  0.00    +0.123 HD
BRANCH   8  16
ATOM     16  C   UNL     1      -3.557 -11.062  16.944  0.00  0.00    +0.116 C 
BRANCH  16  18
ATOM     18  C   UNL     1      -3.465 -10.829  15.460  0.00  0.00    -0.033 A 
ATOM     23  C   UNL     1      -2.216 -10.712  14.849  0.00  0.00    +0.007 A 
ATOM     24  C   UNL     1      -4.627 -10.730  14.695  0.00  0.00    +0.007 A 
ATOM     25  C   UNL     1      -3.292 -10.398  12.709  0.00  0.00    +0.088 A 
ATOM     26  C   UNL     1      -2.130 -10.497  13.473  0.00  0.00    +0.027 A 
ATOM     27  C   UNL     1      -4.541 -10.515  13.319  0.00  0.00    +0.027 A 
BRANCH  25   1
ATOM      1  S   UNL     1      -3.183 -10.131  10.986  0.00  0.00    -0.006 S 
ATOM      6  O   UNL     1      -2.009  -9.314  10.709  0.00  0.00    -0.170 OA
ATOM      7  O   UNL     1      -3.342 -11.417  10.323  0.00  0.00    -0.170 OA
ATOM     28  C   UNL     1      -4.607  -9.138  10.601  0.00  0.00    +0.200 C 
ENDBRANCH  25   1
ENDBRANCH  16  18
ENDBRANCH   8  16
ENDBRANCH  11   8
BRANCH  13  15
ATOM     15  C   UNL     1      -9.014 -11.820  19.353  0.00  0.00    +0.140 C 
BRANCH  15   9
ATOM      4  O   UNL     1     -11.100  -7.815  14.792  0.00  0.00    -0.377 OA
ATOM      5  O   UNL     1     -10.853  -9.690  19.364  0.00  0.00    -0.253 OA
ATOM      9  N   UNL     1      -9.486 -11.107  18.187  0.00  0.00    -0.297 N 
ATOM     10  N   UNL     1     -10.766  -9.473  17.057  0.00  0.00    -0.281 N 
ATOM     17  C   UNL     1     -10.398 -10.062  18.277  0.00  0.00    +0.302 C 
ATOM     19  C   UNL     1     -11.729  -8.369  17.058  0.00  0.00    +0.137 C 
ATOM     20  C   UNL     1     -10.394  -9.950  15.716  0.00  0.00    +0.137 C 
ATOM     21  C   UNL     1     -11.301  -7.271  16.097  0.00  0.00    +0.179 C 
ATOM     22  C   UNL     1     -10.048  -8.780  14.802  0.00  0.00    +0.179 C 
ATOM     31  H   UNL     1      -9.127 -11.425  17.298  0.00  0.00    +0.150 HD
ENDBRANCH  15   9
ENDBRANCH  13  15
TORSDOF 7
ENDMDL
