MODEL 1
REMARK VINA RESULT:      -6.5      0.000      0.000
REMARK  Name = 26743260
REMARK  8 active torsions:
REMARK  status: ('A' for Active; 'I' for Inactive)
REMARK    1  A    between atoms: N_5  and  C_25
REMARK    2  A    between atoms: C_7  and  C_12
REMARK    3  A    between atoms: C_8  and  C_14
REMARK    4  A    between atoms: C_11  and  C_19
REMARK    5  A    between atoms: C_12  and  C_21
REMARK    6  A    between atoms: C_14  and  C_24
REMARK    7  A    between atoms: C_19  and  C_22
REMARK    8  A    between atoms: C_25  and  C_26
REMARK                            x       y       z     vdW  Elec       q    Type
REMARK                         _______ _______ _______ _____ _____    ______ ____
ROOT
ATOM      3  N   UNL     1      -6.060 -14.205  17.191  0.00  0.00    -0.316 NA
ATOM      7  C   UNL     1      -5.176 -11.945  16.670  0.00  0.00    +0.012 C 
ATOM      8  C   UNL     1      -6.582 -11.322  16.841  0.00  0.00    +0.004 C 
ATOM      9  C   UNL     1      -7.643 -12.407  16.592  0.00  0.00    +0.019 C 
ATOM     10  C   UNL     1      -5.017 -13.228  17.502  0.00  0.00    +0.085 C 
ATOM     13  C   UNL     1      -7.398 -13.665  17.423  0.00  0.00    +0.081 C 
ATOM     31  H   UNL     1      -5.927 -15.036  17.766  0.00  0.00    +0.122 HD
ENDROOT
BRANCH   7  12
ATOM     12  C   UNL     1      -4.043 -10.963  16.976  0.00  0.00    +0.064 C 
BRANCH  12  21
ATOM      1  O   UNL     1      -1.312 -10.508  14.675  0.00  0.00    -0.359 OA
ATOM      4  N   UNL     1      -1.828 -10.672  15.955  0.00  0.00    -0.083 NA
ATOM     21  C   UNL     1      -3.149 -10.772  15.785  0.00  0.00    +0.084 A 
ATOM     22  C   UNL     1      -2.330 -10.511  13.778  0.00  0.00    +0.138 A 
ATOM     23  C   UNL     1      -3.521 -10.677  14.433  0.00  0.00    +0.071 A 
BRANCH  22  19
ATOM     19  C   UNL     1      -1.961 -10.347  12.367  0.00  0.00    +0.080 C 
BRANCH  19  11
ATOM     11  C   UNL     1      -3.168 -10.273  11.434  0.00  0.00    -0.004 C 
ATOM     15  C   UNL     1      -2.942  -9.224  10.336  0.00  0.00    +0.004 C 
ATOM     16  C   UNL     1      -3.464 -11.649  10.822  0.00  0.00    +0.004 C 
ATOM     17  C   UNL     1      -4.114  -9.171   9.359  0.00  0.00    +0.000 C 
ATOM     18  C   UNL     1      -4.635 -11.591   9.843  0.00  0.00    +0.000 C 
ATOM     20  C   UNL     1      -4.411 -10.541   8.759  0.00  0.00    +0.000 C 
ENDBRANCH  19  11
ENDBRANCH  22  19
ENDBRANCH  12  21
ENDBRANCH   7  12
BRANCH   8  14
ATOM     14  C   UNL     1      -6.803 -10.643  18.197  0.00  0.00    +0.099 C 
BRANCH  14  24
ATOM      2  O   UNL     1      -9.064 -10.546  19.048  0.00  0.00    -0.276 OA
ATOM      5  N   UNL     1      -8.345  -8.935  17.536  0.00  0.00    -0.311 N 
ATOM     24  C   UNL     1      -8.194 -10.063  18.329  0.00  0.00    +0.214 C 
ATOM     32  H   UNL     1      -7.567  -8.625  16.961  0.00  0.00    +0.149 HD
BRANCH   5  25
ATOM     25  C   UNL     1      -9.575  -8.179  17.464  0.00  0.00    +0.141 C 
BRANCH  25  26
ATOM      6  N   UNL     1     -12.081  -7.740  14.667  0.00  0.00    -0.263 NA
ATOM     26  C   UNL     1     -10.242  -8.317  16.126  0.00  0.00    -0.012 A 
ATOM     27  C   UNL     1      -9.691  -9.113  15.129  0.00  0.00    +0.008 A 
ATOM     28  C   UNL     1     -11.428  -7.657  15.847  0.00  0.00    +0.115 A 
ATOM     29  C   UNL     1     -10.332  -9.224  13.900  0.00  0.00    +0.020 A 
ATOM     30  C   UNL     1     -11.515  -8.523  13.722  0.00  0.00    +0.111 A 
ENDBRANCH  25  26
ENDBRANCH   5  25
ENDBRANCH  14  24
ENDBRANCH   8  14
TORSDOF 8
ENDMDL
MODEL 2
REMARK VINA RESULT:      -6.3      2.663      6.918
REMARK  Name = 26743260
REMARK  8 active torsions:
REMARK  status: ('A' for Active; 'I' for Inactive)
REMARK    1  A    between atoms: N_5  and  C_25
REMARK    2  A    between atoms: C_7  and  C_12
REMARK    3  A    between atoms: C_8  and  C_14
REMARK    4  A    between atoms: C_11  and  C_19
REMARK    5  A    between atoms: C_12  and  C_21
REMARK    6  A    between atoms: C_14  and  C_24
REMARK    7  A    between atoms: C_19  and  C_22
REMARK    8  A    between atoms: C_25  and  C_26
REMARK                            x       y       z     vdW  Elec       q    Type
REMARK                         _______ _______ _______ _____ _____    ______ ____
ROOT
ATOM      3  N   UNL     1      -2.630 -15.526  11.873  0.00  0.00    -0.316 NA
ATOM      7  C   UNL     1      -3.808 -13.503  12.701  0.00  0.00    +0.012 C 
ATOM      8  C   UNL     1      -2.970 -13.510  14.002  0.00  0.00    +0.004 C 
ATOM      9  C   UNL     1      -2.470 -14.940  14.267  0.00  0.00    +0.019 C 
ATOM     10  C   UNL     1      -3.056 -14.167  11.536  0.00  0.00    +0.085 C 
ATOM     13  C   UNL     1      -1.769 -15.548  13.054  0.00  0.00    +0.081 C 
ATOM     31  H   UNL     1      -2.129 -15.928  11.083  0.00  0.00    +0.122 HD
ENDROOT
BRANCH   7  12
ATOM     12  C   UNL     1      -4.287 -12.105  12.303  0.00  0.00    +0.064 C 
BRANCH  12  21
ATOM      1  O   UNL     1      -6.003 -10.086  14.741  0.00  0.00    -0.359 OA
ATOM      4  N   UNL     1      -4.981 -10.305  13.824  0.00  0.00    -0.083 NA
ATOM     21  C   UNL     1      -5.209 -11.529  13.339  0.00  0.00    +0.084 A 
ATOM     22  C   UNL     1      -6.810 -11.176  14.781  0.00  0.00    +0.138 A 
ATOM     23  C   UNL     1      -6.349 -12.124  13.906  0.00  0.00    +0.071 A 
BRANCH  22  19
ATOM     19  C   UNL     1      -7.949 -11.115  15.704  0.00  0.00    +0.080 C 
BRANCH  19  11
ATOM     11  C   UNL     1      -8.577  -9.726  15.794  0.00  0.00    -0.004 C 
ATOM     15  C   UNL     1      -9.792  -9.618  14.863  0.00  0.00    +0.004 C 
ATOM     16  C   UNL     1      -8.968  -9.401  17.242  0.00  0.00    +0.004 C 
ATOM     17  C   UNL     1     -10.469  -8.254  14.975  0.00  0.00    +0.000 C 
ATOM     18  C   UNL     1      -9.647  -8.037  17.351  0.00  0.00    +0.000 C 
ATOM     20  C   UNL     1     -10.849  -7.931  16.417  0.00  0.00    +0.000 C 
ENDBRANCH  19  11
ENDBRANCH  22  19
ENDBRANCH  12  21
ENDBRANCH   7  12
BRANCH   8  14
ATOM     14  C   UNL     1      -1.803 -12.515  13.998  0.00  0.00    +0.099 C 
BRANCH  14  24
ATOM      2  O   UNL     1      -1.158 -10.534  15.225  0.00  0.00    -0.276 OA
ATOM      5  N   UNL     1      -2.986 -11.776  15.943  0.00  0.00    -0.311 N 
ATOM     24  C   UNL     1      -1.921 -11.489  15.103  0.00  0.00    +0.214 C 
ATOM     32  H   UNL     1      -3.549 -12.603  15.766  0.00  0.00    +0.149 HD
BRANCH   5  25
ATOM     25  C   UNL     1      -3.331 -10.963  17.087  0.00  0.00    +0.141 C 
BRANCH  25  26
ATOM      6  N   UNL     1      -6.161 -13.238  18.138  0.00  0.00    -0.263 NA
ATOM     26  C   UNL     1      -4.577 -11.450  17.767  0.00  0.00    -0.012 A 
ATOM     27  C   UNL     1      -5.297 -10.625  18.623  0.00  0.00    +0.008 A 
ATOM     28  C   UNL     1      -5.048 -12.737  17.560  0.00  0.00    +0.115 A 
ATOM     29  C   UNL     1      -6.449 -11.104  19.238  0.00  0.00    +0.020 A 
ATOM     30  C   UNL     1      -6.835 -12.407  18.964  0.00  0.00    +0.111 A 
ENDBRANCH  25  26
ENDBRANCH   5  25
ENDBRANCH  14  24
ENDBRANCH   8  14
TORSDOF 8
ENDMDL
MODEL 3
REMARK VINA RESULT:      -6.3     25.412     29.575
REMARK  Name = 26743260
REMARK  8 active torsions:
REMARK  status: ('A' for Active; 'I' for Inactive)
REMARK    1  A    between atoms: N_5  and  C_25
REMARK    2  A    between atoms: C_7  and  C_12
REMARK    3  A    between atoms: C_8  and  C_14
REMARK    4  A    between atoms: C_11  and  C_19
REMARK    5  A    between atoms: C_12  and  C_21
REMARK    6  A    between atoms: C_14  and  C_24
REMARK    7  A    between atoms: C_19  and  C_22
REMARK    8  A    between atoms: C_25  and  C_26
REMARK                            x       y       z     vdW  Elec       q    Type
REMARK                         _______ _______ _______ _____ _____    ______ ____
ROOT
ATOM      3  N   UNL     1      10.484   7.958   6.564  0.00  0.00    -0.316 NA
ATOM      7  C   UNL     1      12.072   7.102   4.859  0.00  0.00    +0.012 C 
ATOM      8  C   UNL     1      11.189   5.854   4.619  0.00  0.00    +0.004 C 
ATOM      9  C   UNL     1      10.343   5.590   5.876  0.00  0.00    +0.019 C 
ATOM     10  C   UNL     1      11.244   8.296   5.361  0.00  0.00    +0.085 C 
ATOM     13  C   UNL     1       9.581   6.831   6.338  0.00  0.00    +0.081 C 
ATOM     31  H   UNL     1       9.943   8.769   6.861  0.00  0.00    +0.122 HD
ENDROOT
BRANCH   7  12
ATOM     12  C   UNL     1      12.897   7.498   3.633  0.00  0.00    +0.064 C 
BRANCH  12  21
ATOM      1  O   UNL     1      16.122   7.779   5.207  0.00  0.00    -0.359 OA
ATOM      4  N   UNL     1      14.789   7.390   5.197  0.00  0.00    -0.083 NA
ATOM     21  C   UNL     1      14.328   7.765   4.000  0.00  0.00    +0.084 A 
ATOM     22  C   UNL     1      16.424   8.374   4.025  0.00  0.00    +0.138 A 
ATOM     23  C   UNL     1      15.316   8.390   3.220  0.00  0.00    +0.071 A 
BRANCH  22  19
ATOM     19  C   UNL     1      17.804   8.850   3.864  0.00  0.00    +0.080 C 
BRANCH  19  11
ATOM     11  C   UNL     1      18.804   8.105   4.746  0.00  0.00    -0.004 C 
ATOM     15  C   UNL     1      19.964   7.554   3.905  0.00  0.00    +0.004 C 
ATOM     16  C   UNL     1      19.326   9.018   5.863  0.00  0.00    +0.004 C 
ATOM     17  C   UNL     1      21.005   6.851   4.773  0.00  0.00    +0.000 C 
ATOM     18  C   UNL     1      20.369   8.313   6.728  0.00  0.00    +0.000 C 
ATOM     20  C   UNL     1      21.514   7.759   5.887  0.00  0.00    +0.000 C 
ENDBRANCH  19  11
ENDBRANCH  22  19
ENDBRANCH  12  21
ENDBRANCH   7  12
BRANCH   8  14
ATOM     14  C   UNL     1      10.301   5.948   3.373  0.00  0.00    +0.099 C 
BRANCH  14  24
ATOM      2  O   UNL     1      10.037   4.759   1.284  0.00  0.00    -0.276 OA
ATOM      5  N   UNL     1      11.666   4.070   2.790  0.00  0.00    -0.311 N 
ATOM     24  C   UNL     1      10.629   4.879   2.354  0.00  0.00    +0.214 C 
ATOM     32  H   UNL     1      12.080   4.242   3.702  0.00  0.00    +0.149 HD
BRANCH   5  25
ATOM     25  C   UNL     1      12.185   2.964   2.017  0.00  0.00    +0.141 C 
BRANCH  25  26
ATOM      6  N   UNL     1      15.614   3.975   0.786  0.00  0.00    -0.263 NA
ATOM     26  C   UNL     1      13.288   3.394   1.093  0.00  0.00    -0.012 A 
ATOM     27  C   UNL     1      13.047   3.613  -0.258  0.00  0.00    +0.008 A 
ATOM     28  C   UNL     1      14.578   3.587   1.561  0.00  0.00    +0.115 A 
ATOM     29  C   UNL     1      14.087   4.013  -1.090  0.00  0.00    +0.020 A 
ATOM     30  C   UNL     1      15.342   4.178  -0.523  0.00  0.00    +0.111 A 
ENDBRANCH  25  26
ENDBRANCH   5  25
ENDBRANCH  14  24
ENDBRANCH   8  14
TORSDOF 8
ENDMDL
MODEL 4
REMARK VINA RESULT:      -6.3      2.171      8.037
REMARK  Name = 26743260
REMARK  8 active torsions:
REMARK  status: ('A' for Active; 'I' for Inactive)
REMARK    1  A    between atoms: N_5  and  C_25
REMARK    2  A    between atoms: C_7  and  C_12
REMARK    3  A    between atoms: C_8  and  C_14
REMARK    4  A    between atoms: C_11  and  C_19
REMARK    5  A    between atoms: C_12  and  C_21
REMARK    6  A    between atoms: C_14  and  C_24
REMARK    7  A    between atoms: C_19  and  C_22
REMARK    8  A    between atoms: C_25  and  C_26
REMARK                            x       y       z     vdW  Elec       q    Type
REMARK                         _______ _______ _______ _____ _____    ______ ____
ROOT
ATOM      3  N   UNL     1      -5.917 -12.799  18.636  0.00  0.00    -0.316 NA
ATOM      7  C   UNL     1      -5.882 -11.112  16.814  0.00  0.00    +0.012 C 
ATOM      8  C   UNL     1      -4.336 -11.052  16.860  0.00  0.00    +0.004 C 
ATOM      9  C   UNL     1      -3.859 -11.489  18.255  0.00  0.00    +0.019 C 
ATOM     10  C   UNL     1      -6.412 -12.472  17.298  0.00  0.00    +0.085 C 
ATOM     13  C   UNL     1      -4.457 -12.827  18.684  0.00  0.00    +0.081 C 
ATOM     31  H   UNL     1      -6.282 -13.708  18.918  0.00  0.00    +0.122 HD
ENDROOT
BRANCH   7  12
ATOM     12  C   UNL     1      -6.455 -10.772  15.437  0.00  0.00    +0.064 C 
BRANCH  12  21
ATOM      1  O   UNL     1      -9.423  -8.800  14.922  0.00  0.00    -0.359 OA
ATOM      4  N   UNL     1      -8.407  -9.635  14.472  0.00  0.00    -0.083 NA
ATOM     21  C   UNL     1      -7.662  -9.886  15.552  0.00  0.00    +0.084 A 
ATOM     22  C   UNL     1      -9.260  -8.573  16.250  0.00  0.00    +0.138 A 
ATOM     23  C   UNL     1      -8.153  -9.242  16.701  0.00  0.00    +0.071 A 
BRANCH  22  19
ATOM     19  C   UNL     1     -10.253  -7.704  16.894  0.00  0.00    +0.080 C 
BRANCH  19  11
ATOM     11  C   UNL     1     -11.602  -7.698  16.177  0.00  0.00    -0.004 C 
ATOM     15  C   UNL     1     -12.638  -8.513  16.963  0.00  0.00    +0.004 C 
ATOM     16  C   UNL     1     -12.091  -6.260  15.955  0.00  0.00    +0.004 C 
ATOM     17  C   UNL     1     -14.010  -8.476  16.292  0.00  0.00    +0.000 C 
ATOM     18  C   UNL     1     -13.464  -6.227  15.287  0.00  0.00    +0.000 C 
ATOM     20  C   UNL     1     -14.488  -7.046  16.066  0.00  0.00    +0.000 C 
ENDBRANCH  19  11
ENDBRANCH  22  19
ENDBRANCH  12  21
ENDBRANCH   7  12
BRANCH   8  14
ATOM     14  C   UNL     1      -3.647 -11.874  15.765  0.00  0.00    +0.099 C 
BRANCH  14  24
ATOM      2  O   UNL     1      -1.766 -10.399  15.396  0.00  0.00    -0.276 OA
ATOM      5  N   UNL     1      -3.045 -11.090  13.584  0.00  0.00    -0.311 N 
ATOM     24  C   UNL     1      -2.704 -11.037  14.927  0.00  0.00    +0.214 C 
ATOM     32  H   UNL     1      -3.853 -11.636  13.299  0.00  0.00    +0.149 HD
BRANCH   5  25
ATOM     25  C   UNL     1      -2.317 -10.383  12.556  0.00  0.00    +0.141 C 
BRANCH  25  26
ATOM      6  N   UNL     1      -4.144 -11.686   9.513  0.00  0.00    -0.263 NA
ATOM     26  C   UNL     1      -3.039 -10.405  11.240  0.00  0.00    -0.012 A 
ATOM     27  C   UNL     1      -3.276  -9.232  10.532  0.00  0.00    +0.008 A 
ATOM     28  C   UNL     1      -3.490 -11.595  10.692  0.00  0.00    +0.115 A 
ATOM     29  C   UNL     1      -3.946  -9.284   9.314  0.00  0.00    +0.020 A 
ATOM     30  C   UNL     1      -4.355 -10.525   8.853  0.00  0.00    +0.111 A 
ENDBRANCH  25  26
ENDBRANCH   5  25
ENDBRANCH  14  24
ENDBRANCH   8  14
TORSDOF 8
ENDMDL
MODEL 5
REMARK VINA RESULT:      -6.2     24.787     27.885
REMARK  Name = 26743260
REMARK  8 active torsions:
REMARK  status: ('A' for Active; 'I' for Inactive)
REMARK    1  A    between atoms: N_5  and  C_25
REMARK    2  A    between atoms: C_7  and  C_12
REMARK    3  A    between atoms: C_8  and  C_14
REMARK    4  A    between atoms: C_11  and  C_19
REMARK    5  A    between atoms: C_12  and  C_21
REMARK    6  A    between atoms: C_14  and  C_24
REMARK    7  A    between atoms: C_19  and  C_22
REMARK    8  A    between atoms: C_25  and  C_26
REMARK                            x       y       z     vdW  Elec       q    Type
REMARK                         _______ _______ _______ _____ _____    ______ ____
ROOT
ATOM      3  N   UNL     1       7.655   7.838   5.385  0.00  0.00    -0.316 NA
ATOM      7  C   UNL     1       9.596   6.435   4.731  0.00  0.00    +0.012 C 
ATOM      8  C   UNL     1      10.566   7.367   5.496  0.00  0.00    +0.004 C 
ATOM      9  C   UNL     1       9.934   8.765   5.608  0.00  0.00    +0.019 C 
ATOM     10  C   UNL     1       8.180   6.474   5.329  0.00  0.00    +0.085 C 
ATOM     13  C   UNL     1       8.515   8.720   6.173  0.00  0.00    +0.081 C 
ATOM     31  H   UNL     1       6.722   7.824   5.794  0.00  0.00    +0.122 HD
ENDROOT
BRANCH   7  12
ATOM     12  C   UNL     1      10.100   4.994   4.635  0.00  0.00    +0.064 C 
BRANCH  12  21
ATOM      1  O   UNL     1      12.600   5.353   2.070  0.00  0.00    -0.359 OA
ATOM      4  N   UNL     1      11.853   5.839   3.136  0.00  0.00    -0.083 NA
ATOM     21  C   UNL     1      11.060   4.825   3.493  0.00  0.00    +0.084 A 
ATOM     22  C   UNL     1      12.237   4.070   1.817  0.00  0.00    +0.138 A 
ATOM     23  C   UNL     1      11.259   3.685   2.696  0.00  0.00    +0.071 A 
BRANCH  22  19
ATOM     19  C   UNL     1      12.932   3.398   0.713  0.00  0.00    +0.080 C 
BRANCH  19  11
ATOM     11  C   UNL     1      12.407   3.800  -0.663  0.00  0.00    -0.004 C 
ATOM     15  C   UNL     1      12.564   2.646  -1.663  0.00  0.00    +0.004 C 
ATOM     16  C   UNL     1      10.943   4.250  -0.574  0.00  0.00    +0.004 C 
ATOM     17  C   UNL     1      11.996   3.007  -3.034  0.00  0.00    +0.000 C 
ATOM     18  C   UNL     1      10.377   4.608  -1.947  0.00  0.00    +0.000 C 
ATOM     20  C   UNL     1      10.543   3.462  -2.940  0.00  0.00    +0.000 C 
ENDBRANCH  19  11
ENDBRANCH  22  19
ENDBRANCH  12  21
ENDBRANCH   7  12
BRANCH   8  14
ATOM     14  C   UNL     1      10.978   6.842   6.876  0.00  0.00    +0.099 C 
BRANCH  14  24
ATOM      2  O   UNL     1      13.008   6.063   7.935  0.00  0.00    -0.276 OA
ATOM      5  N   UNL     1      13.137   7.163   5.892  0.00  0.00    -0.311 N 
ATOM     24  C   UNL     1      12.472   6.631   6.987  0.00  0.00    +0.214 C 
ATOM     32  H   UNL     1      12.602   7.630   5.166  0.00  0.00    +0.149 HD
BRANCH   5  25
ATOM     25  C   UNL     1      14.572   7.107   5.736  0.00  0.00    +0.141 C 
BRANCH  25  26
ATOM      6  N   UNL     1      17.220   9.792   6.007  0.00  0.00    -0.263 NA
ATOM     26  C   UNL     1      15.217   8.438   5.990  0.00  0.00    -0.012 A 
ATOM     27  C   UNL     1      14.471   9.524   6.432  0.00  0.00    +0.008 A 
ATOM     28  C   UNL     1      16.577   8.623   5.795  0.00  0.00    +0.115 A 
ATOM     29  C   UNL     1      15.096  10.745   6.661  0.00  0.00    +0.020 A 
ATOM     30  C   UNL     1      16.461  10.825   6.436  0.00  0.00    +0.111 A 
ENDBRANCH  25  26
ENDBRANCH   5  25
ENDBRANCH  14  24
ENDBRANCH   8  14
TORSDOF 8
ENDMDL
MODEL 6
REMARK VINA RESULT:      -6.1      1.519      2.073
REMARK  Name = 26743260
REMARK  8 active torsions:
REMARK  status: ('A' for Active; 'I' for Inactive)
REMARK    1  A    between atoms: N_5  and  C_25
REMARK    2  A    between atoms: C_7  and  C_12
REMARK    3  A    between atoms: C_8  and  C_14
REMARK    4  A    between atoms: C_11  and  C_19
REMARK    5  A    between atoms: C_12  and  C_21
REMARK    6  A    between atoms: C_14  and  C_24
REMARK    7  A    between atoms: C_19  and  C_22
REMARK    8  A    between atoms: C_25  and  C_26
REMARK                            x       y       z     vdW  Elec       q    Type
REMARK                         _______ _______ _______ _____ _____    ______ ____
ROOT
ATOM      3  N   UNL     1      -5.509 -14.913  15.898  0.00  0.00    -0.316 NA
ATOM      7  C   UNL     1      -5.164 -12.495  16.343  0.00  0.00    +0.012 C 
ATOM      8  C   UNL     1      -6.481 -12.425  17.152  0.00  0.00    +0.004 C 
ATOM      9  C   UNL     1      -7.415 -13.555  16.687  0.00  0.00    +0.019 C 
ATOM     10  C   UNL     1      -4.556 -13.907  16.367  0.00  0.00    +0.085 C 
ATOM     13  C   UNL     1      -6.731 -14.920  16.700  0.00  0.00    +0.081 C 
ATOM     31  H   UNL     1      -5.074 -15.834  15.937  0.00  0.00    +0.122 HD
ENDROOT
BRANCH   7  12
ATOM     12  C   UNL     1      -4.130 -11.458  16.788  0.00  0.00    +0.064 C 
BRANCH  12  21
ATOM      1  O   UNL     1      -1.583 -10.135  14.615  0.00  0.00    -0.359 OA
ATOM      4  N   UNL     1      -2.105 -10.411  15.873  0.00  0.00    -0.083 NA
ATOM     21  C   UNL     1      -3.276 -11.010  15.637  0.00  0.00    +0.084 A 
ATOM     22  C   UNL     1      -2.448 -10.572  13.665  0.00  0.00    +0.138 A 
ATOM     23  C   UNL     1      -3.543 -11.137  14.264  0.00  0.00    +0.071 A 
BRANCH  22  19
ATOM     19  C   UNL     1      -2.051 -10.359  12.268  0.00  0.00    +0.080 C 
BRANCH  19  11
ATOM     11  C   UNL     1      -3.237 -10.297  11.308  0.00  0.00    -0.004 C 
ATOM     15  C   UNL     1      -3.027  -9.198  10.257  0.00  0.00    +0.004 C 
ATOM     16  C   UNL     1      -3.462 -11.659  10.637  0.00  0.00    +0.004 C 
ATOM     17  C   UNL     1      -4.176  -9.153   9.252  0.00  0.00    +0.000 C 
ATOM     18  C   UNL     1      -4.610 -11.610   9.631  0.00  0.00    +0.000 C 
ATOM     20  C   UNL     1      -4.402 -10.511   8.594  0.00  0.00    +0.000 C 
ENDBRANCH  19  11
ENDBRANCH  22  19
ENDBRANCH  12  21
ENDBRANCH   7  12
BRANCH   8  14
ATOM     14  C   UNL     1      -6.283 -12.471  18.671  0.00  0.00    +0.099 C 
BRANCH  14  24
ATOM      2  O   UNL     1      -6.707 -10.524  20.043  0.00  0.00    -0.276 OA
ATOM      5  N   UNL     1      -8.500 -11.756  19.225  0.00  0.00    -0.311 N 
ATOM     24  C   UNL     1      -7.154 -11.466  19.394  0.00  0.00    +0.214 C 
ATOM     32  H   UNL     1      -8.768 -12.572  18.681  0.00  0.00    +0.149 HD
BRANCH   5  25
ATOM     25  C   UNL     1      -9.558 -10.963  19.808  0.00  0.00    +0.141 C 
BRANCH  25  26
ATOM      6  N   UNL     1     -10.298  -9.037  16.639  0.00  0.00    -0.263 NA
ATOM     26  C   UNL     1     -10.308 -10.178  18.771  0.00  0.00    -0.012 A 
ATOM     27  C   UNL     1     -11.649  -9.858  18.945  0.00  0.00    +0.008 A 
ATOM     28  C   UNL     1      -9.684  -9.748  17.611  0.00  0.00    +0.115 A 
ATOM     29  C   UNL     1     -12.317  -9.128  17.968  0.00  0.00    +0.020 A 
ATOM     30  C   UNL     1     -11.602  -8.745  16.844  0.00  0.00    +0.111 A 
ENDBRANCH  25  26
ENDBRANCH   5  25
ENDBRANCH  14  24
ENDBRANCH   8  14
TORSDOF 8
ENDMDL
MODEL 7
REMARK VINA RESULT:      -6.1      3.833      7.160
REMARK  Name = 26743260
REMARK  8 active torsions:
REMARK  status: ('A' for Active; 'I' for Inactive)
REMARK    1  A    between atoms: N_5  and  C_25
REMARK    2  A    between atoms: C_7  and  C_12
REMARK    3  A    between atoms: C_8  and  C_14
REMARK    4  A    between atoms: C_11  and  C_19
REMARK    5  A    between atoms: C_12  and  C_21
REMARK    6  A    between atoms: C_14  and  C_24
REMARK    7  A    between atoms: C_19  and  C_22
REMARK    8  A    between atoms: C_25  and  C_26
REMARK                            x       y       z     vdW  Elec       q    Type
REMARK                         _______ _______ _______ _____ _____    ______ ____
ROOT
ATOM      3  N   UNL     1      -1.583  -9.172  10.700  0.00  0.00    -0.316 NA
ATOM      7  C   UNL     1      -3.613 -10.590  10.519  0.00  0.00    +0.012 C 
ATOM      8  C   UNL     1      -3.345 -11.204  11.914  0.00  0.00    +0.004 C 
ATOM      9  C   UNL     1      -1.844 -11.093  12.229  0.00  0.00    +0.019 C 
ATOM     10  C   UNL     1      -3.014  -9.180  10.394  0.00  0.00    +0.085 C 
ATOM     13  C   UNL     1      -1.312  -9.673  12.046  0.00  0.00    +0.081 C 
ATOM     31  H   UNL     1      -1.225  -8.222  10.615  0.00  0.00    +0.122 HD
ENDROOT
BRANCH   7  12
ATOM     12  C   UNL     1      -5.096 -10.579  10.143  0.00  0.00    +0.064 C 
BRANCH  12  21
ATOM      1  O   UNL     1      -6.107 -12.558   7.311  0.00  0.00    -0.359 OA
ATOM      4  N   UNL     1      -6.117 -12.256   8.667  0.00  0.00    -0.083 NA
ATOM     21  C   UNL     1      -5.322 -11.190   8.790  0.00  0.00    +0.084 A 
ATOM     22  C   UNL     1      -5.311 -11.671   6.661  0.00  0.00    +0.138 A 
ATOM     23  C   UNL     1      -4.787 -10.778   7.558  0.00  0.00    +0.071 A 
BRANCH  22  19
ATOM     19  C   UNL     1      -5.185 -11.845   5.209  0.00  0.00    +0.080 C 
BRANCH  19  11
ATOM     11  C   UNL     1      -3.769 -12.205   4.766  0.00  0.00    -0.004 C 
ATOM     15  C   UNL     1      -3.212 -13.358   5.612  0.00  0.00    +0.004 C 
ATOM     16  C   UNL     1      -3.742 -12.560   3.273  0.00  0.00    +0.004 C 
ATOM     17  C   UNL     1      -1.816 -13.772   5.151  0.00  0.00    +0.000 C 
ATOM     18  C   UNL     1      -2.345 -12.976   2.816  0.00  0.00    +0.000 C 
ATOM     20  C   UNL     1      -1.792 -14.116   3.665  0.00  0.00    +0.000 C 
ENDBRANCH  19  11
ENDBRANCH  22  19
ENDBRANCH  12  21
ENDBRANCH   7  12
BRANCH   8  14
ATOM     14  C   UNL     1      -4.187 -10.590  13.038  0.00  0.00    +0.099 C 
BRANCH  14  24
ATOM      2  O   UNL     1      -3.956 -12.523  14.473  0.00  0.00    -0.276 OA
ATOM      5  N   UNL     1      -3.846 -10.395  15.400  0.00  0.00    -0.311 N 
ATOM     24  C   UNL     1      -3.986 -11.301  14.359  0.00  0.00    +0.214 C 
ATOM     32  H   UNL     1      -3.902  -9.400  15.203  0.00  0.00    +0.149 HD
BRANCH   5  25
ATOM     25  C   UNL     1      -3.643 -10.796  16.773  0.00  0.00    +0.141 C 
BRANCH  25  26
ATOM      6  N   UNL     1      -7.225 -10.030  17.711  0.00  0.00    -0.263 NA
ATOM     26  C   UNL     1      -4.910 -10.713  17.575  0.00  0.00    -0.012 A 
ATOM     27  C   UNL     1      -4.971 -11.206  18.873  0.00  0.00    +0.008 A 
ATOM     28  C   UNL     1      -6.055 -10.139  17.045  0.00  0.00    +0.115 A 
ATOM     29  C   UNL     1      -6.158 -11.113  19.592  0.00  0.00    +0.020 A 
ATOM     30  C   UNL     1      -7.247 -10.521  18.971  0.00  0.00    +0.111 A 
ENDBRANCH  25  26
ENDBRANCH   5  25
ENDBRANCH  14  24
ENDBRANCH   8  14
TORSDOF 8
ENDMDL
MODEL 8
REMARK VINA RESULT:      -6.0      3.188      8.391
REMARK  Name = 26743260
REMARK  8 active torsions:
REMARK  status: ('A' for Active; 'I' for Inactive)
REMARK    1  A    between atoms: N_5  and  C_25
REMARK    2  A    between atoms: C_7  and  C_12
REMARK    3  A    between atoms: C_8  and  C_14
REMARK    4  A    between atoms: C_11  and  C_19
REMARK    5  A    between atoms: C_12  and  C_21
REMARK    6  A    between atoms: C_14  and  C_24
REMARK    7  A    between atoms: C_19  and  C_22
REMARK    8  A    between atoms: C_25  and  C_26
REMARK                            x       y       z     vdW  Elec       q    Type
REMARK                         _______ _______ _______ _____ _____    ______ ____
ROOT
ATOM      3  N   UNL     1     -11.534 -10.815  15.839  0.00  0.00    -0.316 NA
ATOM      7  C   UNL     1     -10.770  -8.795  17.063  0.00  0.00    +0.012 C 
ATOM      8  C   UNL     1      -9.550  -9.561  17.629  0.00  0.00    +0.004 C 
ATOM      9  C   UNL     1      -9.869 -11.066  17.646  0.00  0.00    +0.019 C 
ATOM     10  C   UNL     1     -11.243  -9.386  15.725  0.00  0.00    +0.085 C 
ATOM     13  C   UNL     1     -10.370 -11.572  16.295  0.00  0.00    +0.081 C 
ATOM     31  H   UNL     1     -11.835 -11.171  14.933  0.00  0.00    +0.122 HD
ENDROOT
BRANCH   7  12
ATOM     12  C   UNL     1     -10.523  -7.291  16.929  0.00  0.00    +0.064 C 
BRANCH  12  21
ATOM      1  O   UNL     1     -13.496  -6.111  15.277  0.00  0.00    -0.359 OA
ATOM      4  N   UNL     1     -12.845  -6.831  16.271  0.00  0.00    -0.083 NA
ATOM     21  C   UNL     1     -11.543  -6.647  16.034  0.00  0.00    +0.084 A 
ATOM     22  C   UNL     1     -12.575  -5.518  14.476  0.00  0.00    +0.138 A 
ATOM     23  C   UNL     1     -11.315  -5.828  14.916  0.00  0.00    +0.071 A 
BRANCH  22  19
ATOM     19  C   UNL     1     -13.093  -4.711  13.366  0.00  0.00    +0.080 C 
BRANCH  19  11
ATOM     11  C   UNL     1     -12.201  -4.747  12.127  0.00  0.00    -0.004 C 
ATOM     15  C   UNL     1     -12.528  -5.970  11.258  0.00  0.00    +0.004 C 
ATOM     16  C   UNL     1     -12.342  -3.450  11.319  0.00  0.00    +0.004 C 
ATOM     17  C   UNL     1     -11.685  -5.998   9.985  0.00  0.00    +0.000 C 
ATOM     18  C   UNL     1     -11.499  -3.483  10.046  0.00  0.00    +0.000 C 
ATOM     20  C   UNL     1     -11.821  -4.704   9.190  0.00  0.00    +0.000 C 
ENDBRANCH  19  11
ENDBRANCH  22  19
ENDBRANCH  12  21
ENDBRANCH   7  12
BRANCH   8  14
ATOM     14  C   UNL     1      -8.241  -9.290  16.880  0.00  0.00    +0.099 C 
BRANCH  14  24
ATOM      2  O   UNL     1      -6.962  -9.994  18.808  0.00  0.00    -0.276 OA
ATOM      5  N   UNL     1      -6.066 -10.271  16.682  0.00  0.00    -0.311 N 
ATOM     24  C   UNL     1      -7.042  -9.883  17.588  0.00  0.00    +0.214 C 
ATOM     32  H   UNL     1      -6.222 -10.121  15.690  0.00  0.00    +0.149 HD
BRANCH   5  25
ATOM     25  C   UNL     1      -4.811 -10.868  17.081  0.00  0.00    +0.141 C 
BRANCH  25  26
ATOM      6  N   UNL     1      -3.215 -10.528  13.670  0.00  0.00    -0.263 NA
ATOM     26  C   UNL     1      -3.761 -10.731  16.016  0.00  0.00    -0.012 A 
ATOM     27  C   UNL     1      -2.411 -10.682  16.343  0.00  0.00    +0.008 A 
ATOM     28  C   UNL     1      -4.108 -10.651  14.677  0.00  0.00    +0.115 A 
ATOM     29  C   UNL     1      -1.461 -10.556  15.335  0.00  0.00    +0.020 A 
ATOM     30  C   UNL     1      -1.911 -10.484  14.026  0.00  0.00    +0.111 A 
ENDBRANCH  25  26
ENDBRANCH   5  25
ENDBRANCH  14  24
ENDBRANCH   8  14
TORSDOF 8
ENDMDL
MODEL 9
REMARK VINA RESULT:      -6.0     24.037     28.031
REMARK  Name = 26743260
REMARK  8 active torsions:
REMARK  status: ('A' for Active; 'I' for Inactive)
REMARK    1  A    between atoms: N_5  and  C_25
REMARK    2  A    between atoms: C_7  and  C_12
REMARK    3  A    between atoms: C_8  and  C_14
REMARK    4  A    between atoms: C_11  and  C_19
REMARK    5  A    between atoms: C_12  and  C_21
REMARK    6  A    between atoms: C_14  and  C_24
REMARK    7  A    between atoms: C_19  and  C_22
REMARK    8  A    between atoms: C_25  and  C_26
REMARK                            x       y       z     vdW  Elec       q    Type
REMARK                         _______ _______ _______ _____ _____    ______ ____
ROOT
ATOM      3  N   UNL     1      15.824   3.770   1.160  0.00  0.00    -0.316 NA
ATOM      7  C   UNL     1      13.376   4.163   1.292  0.00  0.00    +0.012 C 
ATOM      8  C   UNL     1      13.295   4.365  -0.240  0.00  0.00    +0.004 C 
ATOM      9  C   UNL     1      14.672   4.814  -0.759  0.00  0.00    +0.019 C 
ATOM     10  C   UNL     1      14.557   3.260   1.685  0.00  0.00    +0.085 C 
ATOM     13  C   UNL     1      15.799   3.893  -0.296  0.00  0.00    +0.081 C 
ATOM     31  H   UNL     1      16.579   3.143   1.433  0.00  0.00    +0.122 HD
ENDROOT
BRANCH   7  12
ATOM     12  C   UNL     1      12.073   3.636   1.897  0.00  0.00    +0.064 C 
BRANCH  12  21
ATOM      1  O   UNL     1      11.169   6.541   3.821  0.00  0.00    -0.359 OA
ATOM      4  N   UNL     1      11.993   5.862   2.932  0.00  0.00    -0.083 NA
ATOM     21  C   UNL     1      11.439   4.654   2.801  0.00  0.00    +0.084 A 
ATOM     22  C   UNL     1      10.151   5.727   4.199  0.00  0.00    +0.138 A 
ATOM     23  C   UNL     1      10.276   4.513   3.576  0.00  0.00    +0.071 A 
BRANCH  22  19
ATOM     19  C   UNL     1       9.179   6.288   5.144  0.00  0.00    +0.080 C 
BRANCH  19  11
ATOM     11  C   UNL     1       9.590   6.115   6.605  0.00  0.00    -0.004 C 
ATOM     15  C   UNL     1       8.675   6.932   7.527  0.00  0.00    +0.004 C 
ATOM     16  C   UNL     1       9.579   4.632   6.999  0.00  0.00    +0.004 C 
ATOM     17  C   UNL     1       9.034   6.733   8.997  0.00  0.00    +0.000 C 
ATOM     18  C   UNL     1       9.937   4.437   8.471  0.00  0.00    +0.000 C 
ATOM     20  C   UNL     1       9.030   5.257   9.383  0.00  0.00    +0.000 C 
ENDBRANCH  19  11
ENDBRANCH  22  19
ENDBRANCH  12  21
ENDBRANCH   7  12
BRANCH   8  14
ATOM     14  C   UNL     1      12.798   3.134  -1.007  0.00  0.00    +0.099 C 
BRANCH  14  24
ATOM      2  O   UNL     1      10.623   4.177  -1.181  0.00  0.00    -0.276 OA
ATOM      5  N   UNL     1      11.199   2.485  -2.666  0.00  0.00    -0.311 N 
ATOM     24  C   UNL     1      11.423   3.346  -1.602  0.00  0.00    +0.214 C 
ATOM     32  H   UNL     1      11.921   1.820  -2.927  0.00  0.00    +0.149 HD
BRANCH   5  25
ATOM     25  C   UNL     1       9.966   2.466  -3.420  0.00  0.00    +0.141 C 
BRANCH  25  26
ATOM      6  N   UNL     1       9.740   5.565  -5.575  0.00  0.00    -0.263 NA
ATOM     26  C   UNL     1      10.031   3.361  -4.624  0.00  0.00    -0.012 A 
ATOM     27  C   UNL     1      10.418   2.868  -5.864  0.00  0.00    +0.008 A 
ATOM     28  C   UNL     1       9.705   4.705  -4.533  0.00  0.00    +0.115 A 
ATOM     29  C   UNL     1      10.467   3.721  -6.962  0.00  0.00    +0.020 A 
ATOM     30  C   UNL     1      10.120   5.049  -6.766  0.00  0.00    +0.111 A 
ENDBRANCH  25  26
ENDBRANCH   5  25
ENDBRANCH  14  24
ENDBRANCH   8  14
TORSDOF 8
ENDMDL
MODEL 10
REMARK VINA RESULT:      -5.9     24.942     28.395
REMARK  Name = 26743260
REMARK  8 active torsions:
REMARK  status: ('A' for Active; 'I' for Inactive)
REMARK    1  A    between atoms: N_5  and  C_25
REMARK    2  A    between atoms: C_7  and  C_12
REMARK    3  A    between atoms: C_8  and  C_14
REMARK    4  A    between atoms: C_11  and  C_19
REMARK    5  A    between atoms: C_12  and  C_21
REMARK    6  A    between atoms: C_14  and  C_24
REMARK    7  A    between atoms: C_19  and  C_22
REMARK    8  A    between atoms: C_25  and  C_26
REMARK                            x       y       z     vdW  Elec       q    Type
REMARK                         _______ _______ _______ _____ _____    ______ ____
ROOT
ATOM      3  N   UNL     1       7.710   7.994   5.130  0.00  0.00    -0.316 NA
ATOM      7  C   UNL     1       9.569   6.461   4.527  0.00  0.00    +0.012 C 
ATOM      8  C   UNL     1      10.583   7.339   5.299  0.00  0.00    +0.004 C 
ATOM      9  C   UNL     1      10.040   8.775   5.384  0.00  0.00    +0.019 C 
ATOM     10  C   UNL     1       8.148   6.598   5.099  0.00  0.00    +0.085 C 
ATOM     13  C   UNL     1       8.611   8.828   5.923  0.00  0.00    +0.081 C 
ATOM     31  H   UNL     1       6.771   8.044   5.521  0.00  0.00    +0.122 HD
ENDROOT
BRANCH   7  12
ATOM     12  C   UNL     1       9.980   4.989   4.458  0.00  0.00    +0.064 C 
BRANCH  12  21
ATOM      1  O   UNL     1      12.706   5.222   2.117  0.00  0.00    -0.359 OA
ATOM      4  N   UNL     1      11.873   5.756   3.093  0.00  0.00    -0.083 NA
ATOM     21  C   UNL     1      11.036   4.766   3.414  0.00  0.00    +0.084 A 
ATOM     22  C   UNL     1      12.348   3.935   1.880  0.00  0.00    +0.138 A 
ATOM     23  C   UNL     1      11.290   3.595   2.680  0.00  0.00    +0.071 A 
BRANCH  22  19
ATOM     19  C   UNL     1      13.129   3.213   0.868  0.00  0.00    +0.080 C 
BRANCH  19  11
ATOM     11  C   UNL     1      13.998   4.130   0.011  0.00  0.00    -0.004 C 
ATOM     15  C   UNL     1      15.477   4.000   0.403  0.00  0.00    +0.004 C 
ATOM     16  C   UNL     1      13.800   3.827  -1.480  0.00  0.00    +0.004 C 
ATOM     17  C   UNL     1      16.372   4.869  -0.478  0.00  0.00    +0.000 C 
ATOM     18  C   UNL     1      14.698   4.696  -2.358  0.00  0.00    +0.000 C 
ATOM     20  C   UNL     1      16.165   4.570  -1.959  0.00  0.00    +0.000 C 
ENDBRANCH  19  11
ENDBRANCH  22  19
ENDBRANCH  12  21
ENDBRANCH   7  12
BRANCH   8  14
ATOM     14  C   UNL     1      10.936   6.806   6.693  0.00  0.00    +0.099 C 
BRANCH  14  24
ATOM      2  O   UNL     1      12.932   6.155   7.893  0.00  0.00    -0.276 OA
ATOM      5  N   UNL     1      13.127   7.075   5.768  0.00  0.00    -0.311 N 
ATOM     24  C   UNL     1      12.427   6.630   6.879  0.00  0.00    +0.214 C 
ATOM     32  H   UNL     1      12.615   7.468   4.983  0.00  0.00    +0.149 HD
BRANCH   5  25
ATOM     25  C   UNL     1      14.569   7.028   5.672  0.00  0.00    +0.141 C 
BRANCH  25  26
ATOM      6  N   UNL     1      16.534   9.899   4.191  0.00  0.00    -0.263 NA
ATOM     26  C   UNL     1      15.164   8.395   5.498  0.00  0.00    -0.012 A 
ATOM     27  C   UNL     1      14.931   9.403   6.426  0.00  0.00    +0.008 A 
ATOM     28  C   UNL     1      15.966   8.692   4.407  0.00  0.00    +0.115 A 
ATOM     29  C   UNL     1      15.497  10.659   6.240  0.00  0.00    +0.020 A 
ATOM     30  C   UNL     1      16.285  10.854   5.116  0.00  0.00    +0.111 A 
ENDBRANCH  25  26
ENDBRANCH   5  25
ENDBRANCH  14  24
ENDBRANCH   8  14
TORSDOF 8
ENDMDL
