MODEL 1
REMARK VINA RESULT:      -7.8      0.000      0.000
REMARK  Name = 45360923
REMARK  10 active torsions:
REMARK  status: ('A' for Active; 'I' for Inactive)
REMARK    1  A    between atoms: S_1  and  C_28
REMARK    2  A    between atoms: S_1  and  C_30
REMARK    3  A    between atoms: N_7  and  C_18
REMARK    4  A    between atoms: N_8  and  C_20
REMARK    5  A    between atoms: N_10  and  C_29
REMARK    6  A    between atoms: C_15  and  C_19
REMARK    7  A    between atoms: C_18  and  C_22
REMARK    8  A    between atoms: C_19  and  C_21
REMARK    9  A    between atoms: C_21  and  C_25
REMARK   10  A    between atoms: C_29  and  C_31
REMARK                            x       y       z     vdW  Elec       q    Type
REMARK                         _______ _______ _______ _____ _____    ______ ____
ROOT
ATOM      3  O   UNL     1      14.332  10.208  22.019  0.00  0.00    -0.274 OA
ATOM      7  N   UNL     1      12.021   9.112  21.153  0.00  0.00    -0.286 NA
ATOM      8  N   UNL     1      14.723   7.463  19.317  0.00  0.00    -0.296 NA
ATOM      9  N   UNL     1      15.513   8.249  21.978  0.00  0.00    -0.312 N 
ATOM     11  C   UNL     1      13.359   7.531  19.888  0.00  0.00    +0.084 C 
ATOM     12  C   UNL     1      13.173   8.199  21.282  0.00  0.00    +0.161 C 
ATOM     13  C   UNL     1      12.356   8.313  19.020  0.00  0.00    +0.036 C 
ATOM     14  C   UNL     1      11.253   8.671  19.993  0.00  0.00    +0.087 C 
ATOM     15  C   UNL     1      15.681   6.638  20.104  0.00  0.00    +0.074 C 
ATOM     16  C   UNL     1      14.372   9.002  21.779  0.00  0.00    +0.232 C 
ATOM     17  C   UNL     1      15.615   6.845  21.630  0.00  0.00    +0.123 C 
ATOM     20  C   UNL     1      14.682   7.002  17.919  0.00  0.00    +0.105 C 
ATOM     37  H   UNL     1      16.341   8.718  22.331  0.00  0.00    +0.149 HD
ENDROOT
BRANCH   7  18
ATOM     18  C   UNL     1      11.203   9.183  22.358  0.00  0.00    +0.120 C 
BRANCH  18  22
ATOM     22  C   UNL     1      11.106  10.588  22.887  0.00  0.00    -0.033 A 
ATOM     23  C   UNL     1      10.972  10.810  24.257  0.00  0.00    +0.007 A 
ATOM     24  C   UNL     1      11.149  11.670  22.006  0.00  0.00    +0.007 A 
ATOM     26  C   UNL     1      10.882  12.113  24.748  0.00  0.00    +0.027 A 
ATOM     27  C   UNL     1      11.058  12.973  22.497  0.00  0.00    +0.027 A 
ATOM     28  C   UNL     1      10.925  13.195  23.868  0.00  0.00    +0.088 A 
BRANCH  28   1
ATOM      1  S   UNL     1      10.815  14.824  24.482  0.00  0.00    -0.006 S 
ATOM      5  O   UNL     1      11.984  15.574  24.044  0.00  0.00    -0.170 OA
ATOM      6  O   UNL     1       9.481  15.327  24.186  0.00  0.00    -0.170 OA
ATOM     30  C   UNL     1      10.950  14.642  26.246  0.00  0.00    +0.200 C 
ENDBRANCH  28   1
ENDBRANCH  18  22
ENDBRANCH   7  18
BRANCH  15  19
ATOM     19  C   UNL     1      17.131   6.923  19.660  0.00  0.00    +0.029 C 
BRANCH  19  21
ATOM     21  C   UNL     1      18.031   5.744  19.980  0.00  0.00    +0.097 C 
BRANCH  21  25
ATOM      4  O   UNL     1      19.268   6.884  21.722  0.00  0.00    -0.276 OA
ATOM     10  N   UNL     1      20.432   5.689  20.108  0.00  0.00    -0.311 N 
ATOM     25  C   UNL     1      19.286   6.180  20.716  0.00  0.00    +0.213 C 
ATOM     38  H   UNL     1      20.360   5.135  19.260  0.00  0.00    +0.149 HD
BRANCH  10  29
ATOM     29  C   UNL     1      21.754   5.967  20.619  0.00  0.00    +0.139 C 
BRANCH  29  31
ATOM      2  F   UNL     1      24.933   1.320  20.836  0.00  0.00    -0.205 F 
ATOM     31  C   UNL     1      22.604   4.725  20.677  0.00  0.00    -0.030 A 
ATOM     32  C   UNL     1      23.882   4.729  20.120  0.00  0.00    +0.008 A 
ATOM     33  C   UNL     1      22.112   3.571  21.287  0.00  0.00    +0.008 A 
ATOM     34  C   UNL     1      24.670   3.579  20.173  0.00  0.00    +0.038 A 
ATOM     35  C   UNL     1      22.899   2.422  21.341  0.00  0.00    +0.038 A 
ATOM     36  C   UNL     1      24.178   2.425  20.784  0.00  0.00    +0.123 A 
ENDBRANCH  29  31
ENDBRANCH  10  29
ENDBRANCH  21  25
ENDBRANCH  19  21
ENDBRANCH  15  19
TORSDOF 8
ENDMDL
MODEL 2
REMARK VINA RESULT:      -7.6     27.769     30.308
REMARK  Name = 45360923
REMARK  10 active torsions:
REMARK  status: ('A' for Active; 'I' for Inactive)
REMARK    1  A    between atoms: S_1  and  C_28
REMARK    2  A    between atoms: S_1  and  C_30
REMARK    3  A    between atoms: N_7  and  C_18
REMARK    4  A    between atoms: N_8  and  C_20
REMARK    5  A    between atoms: N_10  and  C_29
REMARK    6  A    between atoms: C_15  and  C_19
REMARK    7  A    between atoms: C_18  and  C_22
REMARK    8  A    between atoms: C_19  and  C_21
REMARK    9  A    between atoms: C_21  and  C_25
REMARK   10  A    between atoms: C_29  and  C_31
REMARK                            x       y       z     vdW  Elec       q    Type
REMARK                         _______ _______ _______ _____ _____    ______ ____
ROOT
ATOM      3  O   UNL     1      -7.908  -9.507  15.327  0.00  0.00    -0.274 OA
ATOM      7  N   UNL     1      -8.878 -10.831  17.472  0.00  0.00    -0.286 NA
ATOM      8  N   UNL     1      -5.669 -12.379  16.640  0.00  0.00    -0.296 NA
ATOM      9  N   UNL     1      -5.730  -9.561  16.024  0.00  0.00    -0.312 N 
ATOM     11  C   UNL     1      -6.767 -12.024  17.567  0.00  0.00    +0.084 C 
ATOM     12  C   UNL     1      -7.419 -10.616  17.437  0.00  0.00    +0.161 C 
ATOM     13  C   UNL     1      -7.991 -12.954  17.471  0.00  0.00    +0.036 C 
ATOM     14  C   UNL     1      -9.105 -12.135  18.085  0.00  0.00    +0.087 C 
ATOM     15  C   UNL     1      -4.446 -11.540  16.782  0.00  0.00    +0.074 C 
ATOM     16  C   UNL     1      -7.073  -9.859  16.159  0.00  0.00    +0.232 C 
ATOM     17  C   UNL     1      -4.712 -10.029  16.943  0.00  0.00    +0.123 C 
ATOM     20  C   UNL     1      -5.323 -13.805  16.760  0.00  0.00    +0.105 C 
ATOM     37  H   UNL     1      -5.435  -9.037  15.206  0.00  0.00    +0.149 HD
ENDROOT
BRANCH   7  18
ATOM     18  C   UNL     1      -9.602  -9.768  18.160  0.00  0.00    +0.120 C 
BRANCH  18  22
ATOM     22  C   UNL     1     -10.392  -8.918  17.201  0.00  0.00    -0.033 A 
ATOM     23  C   UNL     1     -11.354  -9.504  16.380  0.00  0.00    +0.007 A 
ATOM     24  C   UNL     1     -10.162  -7.543  17.135  0.00  0.00    +0.007 A 
ATOM     26  C   UNL     1     -12.087  -8.716  15.491  0.00  0.00    +0.027 A 
ATOM     27  C   UNL     1     -10.894  -6.755  16.246  0.00  0.00    +0.027 A 
ATOM     28  C   UNL     1     -11.857  -7.341  15.425  0.00  0.00    +0.088 A 
BRANCH  28   1
ATOM      1  S   UNL     1     -12.775  -6.355  14.316  0.00  0.00    -0.006 S 
ATOM      5  O   UNL     1     -14.151  -6.272  14.786  0.00  0.00    -0.170 OA
ATOM      6  O   UNL     1     -12.020  -5.135  14.069  0.00  0.00    -0.170 OA
ATOM     30  C   UNL     1     -12.802  -7.296  12.806  0.00  0.00    +0.200 C 
ENDBRANCH  28   1
ENDBRANCH  18  22
ENDBRANCH   7  18
BRANCH  15  19
ATOM     19  C   UNL     1      -3.522 -11.720  15.560  0.00  0.00    +0.029 C 
BRANCH  19  21
ATOM     21  C   UNL     1      -2.226 -10.953  15.750  0.00  0.00    +0.097 C 
BRANCH  21  25
ATOM      4  O   UNL     1      -0.993  -9.354  14.415  0.00  0.00    -0.276 OA
ATOM     10  N   UNL     1      -2.303 -10.945  13.346  0.00  0.00    -0.311 N 
ATOM     25  C   UNL     1      -1.758 -10.314  14.455  0.00  0.00    +0.213 C 
ATOM     38  H   UNL     1      -2.951 -11.718  13.469  0.00  0.00    +0.149 HD
BRANCH  10  29
ATOM     29  C   UNL     1      -2.012 -10.521  11.997  0.00  0.00    +0.139 C 
BRANCH  29  31
ATOM      2  F   UNL     1      -6.523  -8.258   9.491  0.00  0.00    -0.205 F 
ATOM     31  C   UNL     1      -3.217  -9.916  11.327  0.00  0.00    -0.030 A 
ATOM     32  C   UNL     1      -3.091  -9.318  10.074  0.00  0.00    +0.008 A 
ATOM     33  C   UNL     1      -4.460  -9.954  11.961  0.00  0.00    +0.008 A 
ATOM     34  C   UNL     1      -4.207  -8.758   9.453  0.00  0.00    +0.038 A 
ATOM     35  C   UNL     1      -5.575  -9.394  11.341  0.00  0.00    +0.038 A 
ATOM     36  C   UNL     1      -5.450  -8.796  10.087  0.00  0.00    +0.123 A 
ENDBRANCH  29  31
ENDBRANCH  10  29
ENDBRANCH  21  25
ENDBRANCH  19  21
ENDBRANCH  15  19
TORSDOF 8
ENDMDL
MODEL 3
REMARK VINA RESULT:      -7.5      4.056      9.257
REMARK  Name = 45360923
REMARK  10 active torsions:
REMARK  status: ('A' for Active; 'I' for Inactive)
REMARK    1  A    between atoms: S_1  and  C_28
REMARK    2  A    between atoms: S_1  and  C_30
REMARK    3  A    between atoms: N_7  and  C_18
REMARK    4  A    between atoms: N_8  and  C_20
REMARK    5  A    between atoms: N_10  and  C_29
REMARK    6  A    between atoms: C_15  and  C_19
REMARK    7  A    between atoms: C_18  and  C_22
REMARK    8  A    between atoms: C_19  and  C_21
REMARK    9  A    between atoms: C_21  and  C_25
REMARK   10  A    between atoms: C_29  and  C_31
REMARK                            x       y       z     vdW  Elec       q    Type
REMARK                         _______ _______ _______ _____ _____    ______ ____
ROOT
ATOM      3  O   UNL     1      15.066   8.950  22.668  0.00  0.00    -0.274 OA
ATOM      7  N   UNL     1      16.746  10.554  21.290  0.00  0.00    -0.286 NA
ATOM      8  N   UNL     1      13.375  11.896  20.810  0.00  0.00    -0.296 NA
ATOM      9  N   UNL     1      13.712  10.647  23.389  0.00  0.00    -0.312 N 
ATOM     11  C   UNL     1      14.850  12.009  20.865  0.00  0.00    +0.084 C 
ATOM     12  C   UNL     1      15.613  11.215  21.966  0.00  0.00    +0.161 C 
ATOM     13  C   UNL     1      15.561  11.541  19.581  0.00  0.00    +0.036 C 
ATOM     14  C   UNL     1      16.978  11.272  20.042  0.00  0.00    +0.087 C 
ATOM     15  C   UNL     1      12.671  12.424  22.012  0.00  0.00    +0.074 C 
ATOM     16  C   UNL     1      14.789  10.149  22.682  0.00  0.00    +0.232 C 
ATOM     17  C   UNL     1      13.313  12.040  23.360  0.00  0.00    +0.123 C 
ATOM     20  C   UNL     1      12.847  12.530  19.591  0.00  0.00    +0.105 C 
ATOM     37  H   UNL     1      13.135   9.992  23.908  0.00  0.00    +0.149 HD
ENDROOT
BRANCH   7  18
ATOM     18  C   UNL     1      17.947  10.483  22.113  0.00  0.00    +0.120 C 
BRANCH  18  22
ATOM     22  C   UNL     1      18.708   9.205  21.885  0.00  0.00    -0.033 A 
ATOM     23  C   UNL     1      20.094   9.181  22.039  0.00  0.00    +0.007 A 
ATOM     24  C   UNL     1      18.027   8.043  21.520  0.00  0.00    +0.007 A 
ATOM     26  C   UNL     1      20.800   7.996  21.827  0.00  0.00    +0.027 A 
ATOM     27  C   UNL     1      18.732   6.858  21.308  0.00  0.00    +0.027 A 
ATOM     28  C   UNL     1      20.119   6.834  21.462  0.00  0.00    +0.088 A 
BRANCH  28   1
ATOM      1  S   UNL     1      21.001   5.351  21.200  0.00  0.00    -0.006 S 
ATOM      5  O   UNL     1      21.327   4.762  22.491  0.00  0.00    -0.170 OA
ATOM      6  O   UNL     1      20.277   4.567  20.209  0.00  0.00    -0.170 OA
ATOM     30  C   UNL     1      22.535   5.873  20.468  0.00  0.00    +0.200 C 
ENDBRANCH  28   1
ENDBRANCH  18  22
ENDBRANCH   7  18
BRANCH  15  19
ATOM     19  C   UNL     1      11.208  11.935  22.038  0.00  0.00    +0.029 C 
BRANCH  19  21
ATOM     21  C   UNL     1      11.056  10.749  22.973  0.00  0.00    +0.097 C 
BRANCH  21  25
ATOM      4  O   UNL     1      10.624   8.380  22.727  0.00  0.00    -0.276 OA
ATOM     10  N   UNL     1      11.295   9.603  20.872  0.00  0.00    -0.311 N 
ATOM     25  C   UNL     1      10.959   9.441  22.208  0.00  0.00    +0.213 C 
ATOM     38  H   UNL     1      11.588  10.513  20.529  0.00  0.00    +0.149 HD
BRANCH  10  29
ATOM     29  C   UNL     1      11.282   8.505  19.935  0.00  0.00    +0.139 C 
BRANCH  29  31
ATOM      2  F   UNL     1      16.474   6.589  18.876  0.00  0.00    -0.205 F 
ATOM     31  C   UNL     1      12.669   7.993  19.652  0.00  0.00    -0.030 A 
ATOM     32  C   UNL     1      13.248   7.046  20.496  0.00  0.00    +0.008 A 
ATOM     33  C   UNL     1      13.376   8.466  18.546  0.00  0.00    +0.008 A 
ATOM     34  C   UNL     1      14.533   6.571  20.235  0.00  0.00    +0.038 A 
ATOM     35  C   UNL     1      14.660   7.992  18.285  0.00  0.00    +0.038 A 
ATOM     36  C   UNL     1      15.239   7.044  19.129  0.00  0.00    +0.123 A 
ENDBRANCH  29  31
ENDBRANCH  10  29
ENDBRANCH  21  25
ENDBRANCH  19  21
ENDBRANCH  15  19
TORSDOF 8
ENDMDL
MODEL 4
REMARK VINA RESULT:      -7.5     27.854     30.971
REMARK  Name = 45360923
REMARK  10 active torsions:
REMARK  status: ('A' for Active; 'I' for Inactive)
REMARK    1  A    between atoms: S_1  and  C_28
REMARK    2  A    between atoms: S_1  and  C_30
REMARK    3  A    between atoms: N_7  and  C_18
REMARK    4  A    between atoms: N_8  and  C_20
REMARK    5  A    between atoms: N_10  and  C_29
REMARK    6  A    between atoms: C_15  and  C_19
REMARK    7  A    between atoms: C_18  and  C_22
REMARK    8  A    between atoms: C_19  and  C_21
REMARK    9  A    between atoms: C_21  and  C_25
REMARK   10  A    between atoms: C_29  and  C_31
REMARK                            x       y       z     vdW  Elec       q    Type
REMARK                         _______ _______ _______ _____ _____    ______ ____
ROOT
ATOM      3  O   UNL     1      -5.869  -9.548  13.396  0.00  0.00    -0.274 OA
ATOM      7  N   UNL     1      -3.740 -10.600  12.110  0.00  0.00    -0.286 NA
ATOM      8  N   UNL     1      -3.025 -10.823  15.692  0.00  0.00    -0.296 NA
ATOM      9  N   UNL     1      -5.840 -11.065  15.109  0.00  0.00    -0.312 N 
ATOM     11  C   UNL     1      -2.873 -11.249  14.283  0.00  0.00    +0.084 C 
ATOM     12  C   UNL     1      -4.135 -11.256  13.371  0.00  0.00    +0.161 C 
ATOM     13  C   UNL     1      -1.895 -10.379  13.470  0.00  0.00    +0.036 C 
ATOM     14  C   UNL     1      -2.284 -10.661  12.034  0.00  0.00    +0.087 C 
ATOM     15  C   UNL     1      -3.901 -11.707  16.512  0.00  0.00    +0.074 C 
ATOM     16  C   UNL     1      -5.346 -10.521  13.939  0.00  0.00    +0.232 C 
ATOM     17  C   UNL     1      -5.201 -12.158  15.815  0.00  0.00    +0.123 C 
ATOM     20  C   UNL     1      -1.710 -10.671  16.338  0.00  0.00    +0.105 C 
ATOM     37  H   UNL     1      -6.660 -10.637  15.528  0.00  0.00    +0.149 HD
ENDROOT
BRANCH   7  18
ATOM     18  C   UNL     1      -4.375 -11.180  10.934  0.00  0.00    +0.120 C 
BRANCH  18  22
ATOM     22  C   UNL     1      -5.315 -10.211  10.269  0.00  0.00    -0.033 A 
ATOM     23  C   UNL     1      -6.580 -10.633   9.861  0.00  0.00    +0.007 A 
ATOM     24  C   UNL     1      -4.921  -8.889  10.061  0.00  0.00    +0.007 A 
ATOM     26  C   UNL     1      -7.451  -9.735   9.244  0.00  0.00    +0.027 A 
ATOM     27  C   UNL     1      -5.792  -7.990   9.444  0.00  0.00    +0.027 A 
ATOM     28  C   UNL     1      -7.057  -8.413   9.036  0.00  0.00    +0.088 A 
BRANCH  28   1
ATOM      1  S   UNL     1      -8.148  -7.288   8.268  0.00  0.00    -0.006 S 
ATOM      5  O   UNL     1      -9.441  -7.355   8.934  0.00  0.00    -0.170 OA
ATOM      6  O   UNL     1      -7.462  -6.009   8.147  0.00  0.00    -0.170 OA
ATOM     30  C   UNL     1      -8.376  -7.943   6.630  0.00  0.00    +0.200 C 
ENDBRANCH  28   1
ENDBRANCH  18  22
ENDBRANCH   7  18
BRANCH  15  19
ATOM     19  C   UNL     1      -4.300 -11.003  17.825  0.00  0.00    +0.029 C 
BRANCH  19  21
ATOM     21  C   UNL     1      -4.587 -12.021  18.913  0.00  0.00    +0.097 C 
BRANCH  21  25
ATOM      4  O   UNL     1      -5.957 -11.278  20.766  0.00  0.00    -0.276 OA
ATOM     10  N   UNL     1      -6.990 -12.033  18.829  0.00  0.00    -0.311 N 
ATOM     25  C   UNL     1      -5.896 -11.728  19.625  0.00  0.00    +0.213 C 
ATOM     38  H   UNL     1      -6.851 -12.428  17.904  0.00  0.00    +0.149 HD
BRANCH  10  29
ATOM     29  C   UNL     1      -8.349 -11.844  19.281  0.00  0.00    +0.139 C 
BRANCH  29  31
ATOM      2  F   UNL     1     -10.750  -7.347  16.882  0.00  0.00    -0.205 F 
ATOM     31  C   UNL     1      -8.990 -10.642  18.641  0.00  0.00    -0.030 A 
ATOM     32  C   UNL     1     -10.302 -10.297  18.964  0.00  0.00    +0.008 A 
ATOM     33  C   UNL     1      -8.273  -9.875  17.722  0.00  0.00    +0.008 A 
ATOM     34  C   UNL     1     -10.897  -9.184  18.371  0.00  0.00    +0.038 A 
ATOM     35  C   UNL     1      -8.868  -8.763  17.129  0.00  0.00    +0.038 A 
ATOM     36  C   UNL     1     -10.179  -8.417  17.453  0.00  0.00    +0.123 A 
ENDBRANCH  29  31
ENDBRANCH  10  29
ENDBRANCH  21  25
ENDBRANCH  19  21
ENDBRANCH  15  19
TORSDOF 8
ENDMDL
MODEL 5
REMARK VINA RESULT:      -7.4     28.977     30.707
REMARK  Name = 45360923
REMARK  10 active torsions:
REMARK  status: ('A' for Active; 'I' for Inactive)
REMARK    1  A    between atoms: S_1  and  C_28
REMARK    2  A    between atoms: S_1  and  C_30
REMARK    3  A    between atoms: N_7  and  C_18
REMARK    4  A    between atoms: N_8  and  C_20
REMARK    5  A    between atoms: N_10  and  C_29
REMARK    6  A    between atoms: C_15  and  C_19
REMARK    7  A    between atoms: C_18  and  C_22
REMARK    8  A    between atoms: C_19  and  C_21
REMARK    9  A    between atoms: C_21  and  C_25
REMARK   10  A    between atoms: C_29  and  C_31
REMARK                            x       y       z     vdW  Elec       q    Type
REMARK                         _______ _______ _______ _____ _____    ______ ____
ROOT
ATOM      3  O   UNL     1      -8.989  -9.269  14.642  0.00  0.00    -0.274 OA
ATOM      7  N   UNL     1      -9.658  -9.231  17.259  0.00  0.00    -0.286 NA
ATOM      8  N   UNL     1      -7.133 -11.848  16.854  0.00  0.00    -0.296 NA
ATOM      9  N   UNL     1      -6.765  -9.662  15.009  0.00  0.00    -0.312 N 
ATOM     11  C   UNL     1      -7.877 -10.836  17.637  0.00  0.00    +0.084 C 
ATOM     12  C   UNL     1      -8.239  -9.487  16.948  0.00  0.00    +0.161 C 
ATOM     13  C   UNL     1      -9.251 -11.319  18.138  0.00  0.00    +0.036 C 
ATOM     14  C   UNL     1      -9.991 -10.031  18.432  0.00  0.00    +0.087 C 
ATOM     15  C   UNL     1      -5.768 -11.423  16.436  0.00  0.00    +0.074 C 
ATOM     16  C   UNL     1      -8.066  -9.469  15.432  0.00  0.00    +0.232 C 
ATOM     17  C   UNL     1      -5.672  -9.979  15.906  0.00  0.00    +0.123 C 
ATOM     20  C   UNL     1      -7.068 -13.127  17.581  0.00  0.00    +0.105 C 
ATOM     37  H   UNL     1      -6.577  -9.638  14.011  0.00  0.00    +0.149 HD
ENDROOT
BRANCH   7  18
ATOM     18  C   UNL     1      -9.960  -7.818  17.455  0.00  0.00    +0.120 C 
BRANCH  18  22
ATOM     22  C   UNL     1     -11.026  -7.336  16.508  0.00  0.00    -0.033 A 
ATOM     23  C   UNL     1     -10.806  -6.200  15.730  0.00  0.00    +0.007 A 
ATOM     24  C   UNL     1     -12.235  -8.026  16.408  0.00  0.00    +0.007 A 
ATOM     26  C   UNL     1     -11.794  -5.753  14.852  0.00  0.00    +0.027 A 
ATOM     27  C   UNL     1     -13.223  -7.579  15.531  0.00  0.00    +0.027 A 
ATOM     28  C   UNL     1     -13.003  -6.443  14.752  0.00  0.00    +0.088 A 
BRANCH  28   1
ATOM      1  S   UNL     1     -14.237  -5.885  13.652  0.00  0.00    -0.006 S 
ATOM      5  O   UNL     1     -14.171  -6.674  12.430  0.00  0.00    -0.170 OA
ATOM      6  O   UNL     1     -15.489  -5.798  14.389  0.00  0.00    -0.170 OA
ATOM     30  C   UNL     1     -13.737  -4.232  13.227  0.00  0.00    +0.200 C 
ENDBRANCH  28   1
ENDBRANCH  18  22
ENDBRANCH   7  18
BRANCH  15  19
ATOM     19  C   UNL     1      -5.225 -12.358  15.335  0.00  0.00    +0.029 C 
BRANCH  19  21
ATOM     21  C   UNL     1      -3.786 -12.744  15.621  0.00  0.00    +0.097 C 
BRANCH  21  25
ATOM      4  O   UNL     1      -1.774 -11.479  15.161  0.00  0.00    -0.276 OA
ATOM     10  N   UNL     1      -3.253 -11.917  13.427  0.00  0.00    -0.311 N 
ATOM     25  C   UNL     1      -2.814 -11.978  14.742  0.00  0.00    +0.213 C 
ATOM     38  H   UNL     1      -4.142 -12.335  13.168  0.00  0.00    +0.149 HD
BRANCH  10  29
ATOM     29  C   UNL     1      -2.504 -11.240  12.395  0.00  0.00    +0.139 C 
BRANCH  29  31
ATOM      2  F   UNL     1      -5.731  -7.679   9.454  0.00  0.00    -0.205 F 
ATOM     31  C   UNL     1      -3.366 -10.288  11.609  0.00  0.00    -0.030 A 
ATOM     32  C   UNL     1      -4.633  -9.945  12.080  0.00  0.00    +0.008 A 
ATOM     33  C   UNL     1      -2.898  -9.750  10.410  0.00  0.00    +0.008 A 
ATOM     34  C   UNL     1      -5.433  -9.063  11.353  0.00  0.00    +0.038 A 
ATOM     35  C   UNL     1      -3.697  -8.870   9.683  0.00  0.00    +0.038 A 
ATOM     36  C   UNL     1      -4.964  -8.525  10.154  0.00  0.00    +0.123 A 
ENDBRANCH  29  31
ENDBRANCH  10  29
ENDBRANCH  21  25
ENDBRANCH  19  21
ENDBRANCH  15  19
TORSDOF 8
ENDMDL
MODEL 6
REMARK VINA RESULT:      -7.3      5.013     11.662
REMARK  Name = 45360923
REMARK  10 active torsions:
REMARK  status: ('A' for Active; 'I' for Inactive)
REMARK    1  A    between atoms: S_1  and  C_28
REMARK    2  A    between atoms: S_1  and  C_30
REMARK    3  A    between atoms: N_7  and  C_18
REMARK    4  A    between atoms: N_8  and  C_20
REMARK    5  A    between atoms: N_10  and  C_29
REMARK    6  A    between atoms: C_15  and  C_19
REMARK    7  A    between atoms: C_18  and  C_22
REMARK    8  A    between atoms: C_19  and  C_21
REMARK    9  A    between atoms: C_21  and  C_25
REMARK   10  A    between atoms: C_29  and  C_31
REMARK                            x       y       z     vdW  Elec       q    Type
REMARK                         _______ _______ _______ _____ _____    ______ ____
ROOT
ATOM      3  O   UNL     1      18.105   5.837  19.464  0.00  0.00    -0.274 OA
ATOM      7  N   UNL     1      19.074   7.364  21.471  0.00  0.00    -0.286 NA
ATOM      8  N   UNL     1      16.067   9.039  20.229  0.00  0.00    -0.296 NA
ATOM      9  N   UNL     1      15.906   6.167  20.005  0.00  0.00    -0.312 N 
ATOM     11  C   UNL     1      17.077   8.728  21.265  0.00  0.00    +0.084 C 
ATOM     12  C   UNL     1      17.606   7.267  21.370  0.00  0.00    +0.161 C 
ATOM     13  C   UNL     1      18.383   9.532  21.125  0.00  0.00    +0.036 C 
ATOM     14  C   UNL     1      19.385   8.718  21.916  0.00  0.00    +0.087 C 
ATOM     15  C   UNL     1      14.768   8.331  20.403  0.00  0.00    +0.074 C 
ATOM     16  C   UNL     1      17.261   6.369  20.185  0.00  0.00    +0.232 C 
ATOM     17  C   UNL     1      14.887   6.841  20.784  0.00  0.00    +0.123 C 
ATOM     20  C   UNL     1      15.846  10.491  20.133  0.00  0.00    +0.105 C 
ATOM     37  H   UNL     1      15.609   5.560  19.247  0.00  0.00    +0.149 HD
ENDROOT
BRANCH   7  18
ATOM     18  C   UNL     1      19.661   6.352  22.341  0.00  0.00    +0.120 C 
BRANCH  18  22
ATOM     22  C   UNL     1      21.033   5.943  21.878  0.00  0.00    -0.033 A 
ATOM     23  C   UNL     1      21.468   6.284  20.597  0.00  0.00    +0.007 A 
ATOM     24  C   UNL     1      21.871   5.223  22.729  0.00  0.00    +0.007 A 
ATOM     26  C   UNL     1      22.740   5.904  20.167  0.00  0.00    +0.027 A 
ATOM     27  C   UNL     1      23.143   4.843  22.300  0.00  0.00    +0.027 A 
ATOM     28  C   UNL     1      23.578   5.184  21.019  0.00  0.00    +0.088 A 
BRANCH  28   1
ATOM      1  S   UNL     1      25.170   4.712  20.482  0.00  0.00    -0.006 S 
ATOM      5  O   UNL     1      25.614   5.638  19.450  0.00  0.00    -0.170 OA
ATOM      6  O   UNL     1      25.995   4.496  21.662  0.00  0.00    -0.170 OA
ATOM     30  C   UNL     1      24.922   3.138  19.693  0.00  0.00    +0.200 C 
ENDBRANCH  28   1
ENDBRANCH  18  22
ENDBRANCH   7  18
BRANCH  15  19
ATOM     19  C   UNL     1      13.930   8.413  19.110  0.00  0.00    +0.029 C 
BRANCH  19  21
ATOM     21  C   UNL     1      12.730   7.488  19.189  0.00  0.00    +0.097 C 
BRANCH  21  25
ATOM      4  O   UNL     1      10.546   8.532  19.139  0.00  0.00    -0.276 OA
ATOM     10  N   UNL     1      11.675   8.371  21.161  0.00  0.00    -0.311 N 
ATOM     25  C   UNL     1      11.524   8.183  19.795  0.00  0.00    +0.213 C 
ATOM     38  H   UNL     1      12.530   8.076  21.623  0.00  0.00    +0.149 HD
BRANCH  10  29
ATOM     29  C   UNL     1      10.663   9.013  21.967  0.00  0.00    +0.139 C 
BRANCH  29  31
ATOM      2  F   UNL     1      12.255  14.158  23.625  0.00  0.00    -0.205 F 
ATOM     31  C   UNL     1      11.089  10.388  22.410  0.00  0.00    -0.030 A 
ATOM     32  C   UNL     1      10.967  10.757  23.750  0.00  0.00    +0.008 A 
ATOM     33  C   UNL     1      11.604  11.292  21.481  0.00  0.00    +0.008 A 
ATOM     34  C   UNL     1      11.361  12.030  24.161  0.00  0.00    +0.038 A 
ATOM     35  C   UNL     1      11.997  12.565  21.892  0.00  0.00    +0.038 A 
ATOM     36  C   UNL     1      11.876  12.934  23.232  0.00  0.00    +0.123 A 
ENDBRANCH  29  31
ENDBRANCH  10  29
ENDBRANCH  21  25
ENDBRANCH  19  21
ENDBRANCH  15  19
TORSDOF 8
ENDMDL
MODEL 7
REMARK VINA RESULT:      -7.1     28.674     31.131
REMARK  Name = 45360923
REMARK  10 active torsions:
REMARK  status: ('A' for Active; 'I' for Inactive)
REMARK    1  A    between atoms: S_1  and  C_28
REMARK    2  A    between atoms: S_1  and  C_30
REMARK    3  A    between atoms: N_7  and  C_18
REMARK    4  A    between atoms: N_8  and  C_20
REMARK    5  A    between atoms: N_10  and  C_29
REMARK    6  A    between atoms: C_15  and  C_19
REMARK    7  A    between atoms: C_18  and  C_22
REMARK    8  A    between atoms: C_19  and  C_21
REMARK    9  A    between atoms: C_21  and  C_25
REMARK   10  A    between atoms: C_29  and  C_31
REMARK                            x       y       z     vdW  Elec       q    Type
REMARK                         _______ _______ _______ _____ _____    ______ ____
ROOT
ATOM      3  O   UNL     1      -8.743 -11.273  15.725  0.00  0.00    -0.274 OA
ATOM      7  N   UNL     1      -9.036 -10.684  18.345  0.00  0.00    -0.286 NA
ATOM      8  N   UNL     1      -5.492 -11.429  17.822  0.00  0.00    -0.296 NA
ATOM      9  N   UNL     1      -6.722 -10.222  15.508  0.00  0.00    -0.312 N 
ATOM     11  C   UNL     1      -6.619 -10.792  18.539  0.00  0.00    +0.084 C 
ATOM     12  C   UNL     1      -7.796 -10.211  17.700  0.00  0.00    +0.161 C 
ATOM     13  C   UNL     1      -7.353 -11.733  19.512  0.00  0.00    +0.036 C 
ATOM     14  C   UNL     1      -8.693 -11.059  19.712  0.00  0.00    +0.087 C 
ATOM     15  C   UNL     1      -4.721 -10.507  16.941  0.00  0.00    +0.074 C 
ATOM     16  C   UNL     1      -7.819 -10.640  16.236  0.00  0.00    +0.232 C 
ATOM     17  C   UNL     1      -5.582  -9.547  16.096  0.00  0.00    +0.123 C 
ATOM     20  C   UNL     1      -4.587 -12.106  18.766  0.00  0.00    +0.105 C 
ATOM     37  H   UNL     1      -6.686 -10.454  14.519  0.00  0.00    +0.149 HD
ENDROOT
BRANCH   7  18
ATOM     18  C   UNL     1     -10.119  -9.709  18.298  0.00  0.00    +0.120 C 
BRANCH  18  22
ATOM     22  C   UNL     1     -11.352 -10.208  19.002  0.00  0.00    -0.033 A 
ATOM     23  C   UNL     1     -11.820  -9.549  20.140  0.00  0.00    +0.007 A 
ATOM     24  C   UNL     1     -12.028 -11.327  18.517  0.00  0.00    +0.007 A 
ATOM     26  C   UNL     1     -12.963 -10.012  20.793  0.00  0.00    +0.027 A 
ATOM     27  C   UNL     1     -13.171 -11.790  19.170  0.00  0.00    +0.027 A 
ATOM     28  C   UNL     1     -13.639 -11.132  20.308  0.00  0.00    +0.088 A 
BRANCH  28   1
ATOM      1  S   UNL     1     -15.071 -11.707  21.123  0.00  0.00    -0.006 S 
ATOM      5  O   UNL     1     -15.715 -10.587  21.793  0.00  0.00    -0.170 OA
ATOM      6  O   UNL     1     -15.828 -12.518  20.180  0.00  0.00    -0.170 OA
ATOM     30  C   UNL     1     -14.452 -12.784  22.396  0.00  0.00    +0.200 C 
ENDBRANCH  28   1
ENDBRANCH  18  22
ENDBRANCH   7  18
BRANCH  15  19
ATOM     19  C   UNL     1      -3.830 -11.308  15.969  0.00  0.00    +0.029 C 
BRANCH  19  21
ATOM     21  C   UNL     1      -2.394 -10.823  16.034  0.00  0.00    +0.097 C 
BRANCH  21  25
ATOM      4  O   UNL     1      -1.081  -9.468  14.516  0.00  0.00    -0.276 OA
ATOM     10  N   UNL     1      -2.454 -11.128  13.650  0.00  0.00    -0.311 N 
ATOM     25  C   UNL     1      -1.889 -10.380  14.673  0.00  0.00    +0.213 C 
ATOM     38  H   UNL     1      -3.137 -11.849  13.864  0.00  0.00    +0.149 HD
BRANCH  10  29
ATOM     29  C   UNL     1      -2.135 -10.898  12.260  0.00  0.00    +0.139 C 
BRANCH  29  31
ATOM      2  F   UNL     1      -6.209  -8.043   9.616  0.00  0.00    -0.205 F 
ATOM     31  C   UNL     1      -3.224 -10.135  11.554  0.00  0.00    -0.030 A 
ATOM     32  C   UNL     1      -4.499 -10.061  12.114  0.00  0.00    +0.008 A 
ATOM     33  C   UNL     1      -2.957  -9.503  10.338  0.00  0.00    +0.008 A 
ATOM     34  C   UNL     1      -5.508  -9.354  11.460  0.00  0.00    +0.038 A 
ATOM     35  C   UNL     1      -3.966  -8.798   9.685  0.00  0.00    +0.038 A 
ATOM     36  C   UNL     1      -5.241  -8.722  10.245  0.00  0.00    +0.123 A 
ENDBRANCH  29  31
ENDBRANCH  10  29
ENDBRANCH  21  25
ENDBRANCH  19  21
ENDBRANCH  15  19
TORSDOF 8
ENDMDL
MODEL 8
REMARK VINA RESULT:      -7.1     16.625     19.833
REMARK  Name = 45360923
REMARK  10 active torsions:
REMARK  status: ('A' for Active; 'I' for Inactive)
REMARK    1  A    between atoms: S_1  and  C_28
REMARK    2  A    between atoms: S_1  and  C_30
REMARK    3  A    between atoms: N_7  and  C_18
REMARK    4  A    between atoms: N_8  and  C_20
REMARK    5  A    between atoms: N_10  and  C_29
REMARK    6  A    between atoms: C_15  and  C_19
REMARK    7  A    between atoms: C_18  and  C_22
REMARK    8  A    between atoms: C_19  and  C_21
REMARK    9  A    between atoms: C_21  and  C_25
REMARK   10  A    between atoms: C_29  and  C_31
REMARK                            x       y       z     vdW  Elec       q    Type
REMARK                         _______ _______ _______ _____ _____    ______ ____
ROOT
ATOM      3  O   UNL     1      15.954   7.076   4.274  0.00  0.00    -0.274 OA
ATOM      7  N   UNL     1      17.092   9.148   5.582  0.00  0.00    -0.286 NA
ATOM      8  N   UNL     1      13.470   9.570   5.887  0.00  0.00    -0.296 NA
ATOM      9  N   UNL     1      14.255   6.796   5.781  0.00  0.00    -0.312 N 
ATOM     11  C   UNL     1      14.868   9.769   6.330  0.00  0.00    +0.084 C 
ATOM     12  C   UNL     1      15.868   8.585   6.183  0.00  0.00    +0.161 C 
ATOM     13  C   UNL     1      15.602  10.902   5.588  0.00  0.00    +0.036 C 
ATOM     14  C   UNL     1      17.064  10.586   5.822  0.00  0.00    +0.087 C 
ATOM     15  C   UNL     1      12.722   8.535   6.654  0.00  0.00    +0.074 C 
ATOM     16  C   UNL     1      15.383   7.436   5.303  0.00  0.00    +0.232 C 
ATOM     17  C   UNL     1      13.514   7.243   6.943  0.00  0.00    +0.123 C 
ATOM     20  C   UNL     1      12.731  10.843   5.897  0.00  0.00    +0.105 C 
ATOM     37  H   UNL     1      13.893   6.006   5.254  0.00  0.00    +0.149 HD
ENDROOT
BRANCH   7  18
ATOM     18  C   UNL     1      18.315   8.532   6.081  0.00  0.00    +0.120 C 
BRANCH  18  22
ATOM     22  C   UNL     1      19.246   8.149   4.963  0.00  0.00    -0.033 A 
ATOM     23  C   UNL     1      18.870   8.365   3.637  0.00  0.00    +0.007 A 
ATOM     24  C   UNL     1      20.486   7.578   5.251  0.00  0.00    +0.007 A 
ATOM     26  C   UNL     1      19.732   8.010   2.600  0.00  0.00    +0.027 A 
ATOM     27  C   UNL     1      21.349   7.222   4.213  0.00  0.00    +0.027 A 
ATOM     28  C   UNL     1      20.972   7.438   2.888  0.00  0.00    +0.088 A 
BRANCH  28   1
ATOM      1  S   UNL     1      22.052   6.997   1.590  0.00  0.00    -0.006 S 
ATOM      5  O   UNL     1      23.178   7.921   1.578  0.00  0.00    -0.170 OA
ATOM      6  O   UNL     1      22.295   5.564   1.676  0.00  0.00    -0.170 OA
ATOM     30  C   UNL     1      21.115   7.305   0.111  0.00  0.00    +0.200 C 
ENDBRANCH  28   1
ENDBRANCH  18  22
ENDBRANCH   7  18
BRANCH  15  19
ATOM     19  C   UNL     1      11.435   8.132   5.905  0.00  0.00    +0.029 C 
BRANCH  19  21
ATOM     21  C   UNL     1      10.809   6.903   6.537  0.00  0.00    +0.097 C 
BRANCH  21  25
ATOM      4  O   UNL     1       9.953   4.770   5.777  0.00  0.00    -0.276 OA
ATOM     10  N   UNL     1      10.792   6.271   4.217  0.00  0.00    -0.311 N 
ATOM     25  C   UNL     1      10.461   5.852   5.498  0.00  0.00    +0.213 C 
ATOM     38  H   UNL     1      11.235   7.173   4.076  0.00  0.00    +0.149 HD
BRANCH  10  29
ATOM     29  C   UNL     1      10.560   5.447   3.054  0.00  0.00    +0.139 C 
BRANCH  29  31
ATOM      2  F   UNL     1      15.373   3.450   0.910  0.00  0.00    -0.205 F 
ATOM     31  C   UNL     1      11.846   4.913   2.481  0.00  0.00    -0.030 A 
ATOM     32  C   UNL     1      11.927   3.583   2.070  0.00  0.00    +0.008 A 
ATOM     33  C   UNL     1      12.957   5.749   2.361  0.00  0.00    +0.008 A 
ATOM     34  C   UNL     1      13.118   3.088   1.539  0.00  0.00    +0.038 A 
ATOM     35  C   UNL     1      14.147   5.255   1.831  0.00  0.00    +0.038 A 
ATOM     36  C   UNL     1      14.228   3.924   1.420  0.00  0.00    +0.123 A 
ENDBRANCH  29  31
ENDBRANCH  10  29
ENDBRANCH  21  25
ENDBRANCH  19  21
ENDBRANCH  15  19
TORSDOF 8
ENDMDL
MODEL 9
REMARK VINA RESULT:      -6.9     29.619     32.980
REMARK  Name = 45360923
REMARK  10 active torsions:
REMARK  status: ('A' for Active; 'I' for Inactive)
REMARK    1  A    between atoms: S_1  and  C_28
REMARK    2  A    between atoms: S_1  and  C_30
REMARK    3  A    between atoms: N_7  and  C_18
REMARK    4  A    between atoms: N_8  and  C_20
REMARK    5  A    between atoms: N_10  and  C_29
REMARK    6  A    between atoms: C_15  and  C_19
REMARK    7  A    between atoms: C_18  and  C_22
REMARK    8  A    between atoms: C_19  and  C_21
REMARK    9  A    between atoms: C_21  and  C_25
REMARK   10  A    between atoms: C_29  and  C_31
REMARK                            x       y       z     vdW  Elec       q    Type
REMARK                         _______ _______ _______ _____ _____    ______ ____
ROOT
ATOM      3  O   UNL     1     -16.402   4.406  28.082  0.00  0.00    -0.274 OA
ATOM      7  N   UNL     1     -16.168   1.825  28.846  0.00  0.00    -0.286 NA
ATOM      8  N   UNL     1     -18.098   1.834  25.737  0.00  0.00    -0.296 NA
ATOM      9  N   UNL     1     -16.169   3.976  25.847  0.00  0.00    -0.312 N 
ATOM     11  C   UNL     1     -17.206   1.210  26.740  0.00  0.00    +0.084 C 
ATOM     12  C   UNL     1     -16.101   2.089  27.397  0.00  0.00    +0.161 C 
ATOM     13  C   UNL     1     -17.944   0.651  27.971  0.00  0.00    +0.036 C 
ATOM     14  C   UNL     1     -16.855   0.550  29.018  0.00  0.00    +0.087 C 
ATOM     15  C   UNL     1     -17.407   2.303  24.504  0.00  0.00    +0.074 C 
ATOM     16  C   UNL     1     -16.252   3.591  27.172  0.00  0.00    +0.232 C 
ATOM     17  C   UNL     1     -16.073   3.037  24.747  0.00  0.00    +0.123 C 
ATOM     20  C   UNL     1     -19.206   0.929  25.387  0.00  0.00    +0.105 C 
ATOM     37  H   UNL     1     -16.238   4.966  25.630  0.00  0.00    +0.149 HD
ENDROOT
BRANCH   7  18
ATOM     18  C   UNL     1     -14.864   1.838  29.497  0.00  0.00    +0.120 C 
BRANCH  18  22
ATOM     22  C   UNL     1     -14.820   2.807  30.647  0.00  0.00    -0.033 A 
ATOM     23  C   UNL     1     -16.006   3.229  31.249  0.00  0.00    +0.007 A 
ATOM     24  C   UNL     1     -13.595   3.285  31.111  0.00  0.00    +0.007 A 
ATOM     26  C   UNL     1     -15.966   4.128  32.315  0.00  0.00    +0.027 A 
ATOM     27  C   UNL     1     -13.555   4.184  32.177  0.00  0.00    +0.027 A 
ATOM     28  C   UNL     1     -14.740   4.606  32.779  0.00  0.00    +0.088 A 
BRANCH  28   1
ATOM      1  S   UNL     1     -14.691   5.728  34.115  0.00  0.00    -0.006 S 
ATOM      5  O   UNL     1     -13.576   6.645  33.920  0.00  0.00    -0.170 OA
ATOM      6  O   UNL     1     -16.034   6.254  34.309  0.00  0.00    -0.170 OA
ATOM     30  C   UNL     1     -14.289   4.720  35.524  0.00  0.00    +0.200 C 
ENDBRANCH  28   1
ENDBRANCH  18  22
ENDBRANCH   7  18
BRANCH  15  19
ATOM     19  C   UNL     1     -18.320   3.254  23.702  0.00  0.00    +0.029 C 
BRANCH  19  21
ATOM     21  C   UNL     1     -17.902   3.295  22.244  0.00  0.00    +0.097 C 
BRANCH  21  25
ATOM      4  O   UNL     1     -18.705   5.550  21.881  0.00  0.00    -0.276 OA
ATOM     10  N   UNL     1     -16.618   4.950  21.062  0.00  0.00    -0.311 N 
ATOM     25  C   UNL     1     -17.814   4.720  21.725  0.00  0.00    +0.213 C 
ATOM     38  H   UNL     1     -15.944   4.198  20.954  0.00  0.00    +0.149 HD
BRANCH  10  29
ATOM     29  C   UNL     1     -16.296   6.229  20.476  0.00  0.00    +0.139 C 
BRANCH  29  31
ATOM      2  F   UNL     1     -10.781   7.345  20.773  0.00  0.00    -0.205 F 
ATOM     31  C   UNL     1     -14.822   6.527  20.555  0.00  0.00    -0.030 A 
ATOM     32  C   UNL     1     -14.021   5.844  21.470  0.00  0.00    +0.008 A 
ATOM     33  C   UNL     1     -14.257   7.487  19.714  0.00  0.00    +0.008 A 
ATOM     34  C   UNL     1     -12.656   6.120  21.545  0.00  0.00    +0.038 A 
ATOM     35  C   UNL     1     -12.893   7.762  19.788  0.00  0.00    +0.038 A 
ATOM     36  C   UNL     1     -12.092   7.079  20.703  0.00  0.00    +0.123 A 
ENDBRANCH  29  31
ENDBRANCH  10  29
ENDBRANCH  21  25
ENDBRANCH  19  21
ENDBRANCH  15  19
TORSDOF 8
ENDMDL
MODEL 10
REMARK VINA RESULT:      -6.8     20.585     24.315
REMARK  Name = 45360923
REMARK  10 active torsions:
REMARK  status: ('A' for Active; 'I' for Inactive)
REMARK    1  A    between atoms: S_1  and  C_28
REMARK    2  A    between atoms: S_1  and  C_30
REMARK    3  A    between atoms: N_7  and  C_18
REMARK    4  A    between atoms: N_8  and  C_20
REMARK    5  A    between atoms: N_10  and  C_29
REMARK    6  A    between atoms: C_15  and  C_19
REMARK    7  A    between atoms: C_18  and  C_22
REMARK    8  A    between atoms: C_19  and  C_21
REMARK    9  A    between atoms: C_21  and  C_25
REMARK   10  A    between atoms: C_29  and  C_31
REMARK                            x       y       z     vdW  Elec       q    Type
REMARK                         _______ _______ _______ _____ _____    ______ ____
ROOT
ATOM      3  O   UNL     1       9.396   4.675   0.924  0.00  0.00    -0.274 OA
ATOM      7  N   UNL     1      12.072   4.876   1.231  0.00  0.00    -0.286 NA
ATOM      8  N   UNL     1      11.502   3.100  -1.918  0.00  0.00    -0.296 NA
ATOM      9  N   UNL     1       9.426   5.018  -1.338  0.00  0.00    -0.312 N 
ATOM     11  C   UNL     1      12.299   3.944  -0.999  0.00  0.00    +0.084 C 
ATOM     12  C   UNL     1      11.557   5.014  -0.145  0.00  0.00    +0.161 C 
ATOM     13  C   UNL     1      13.062   3.148   0.076  0.00  0.00    +0.036 C 
ATOM     14  C   UNL     1      13.353   4.184   1.141  0.00  0.00    +0.087 C 
ATOM     15  C   UNL     1      10.827   3.850  -3.014  0.00  0.00    +0.074 C 
ATOM     16  C   UNL     1      10.038   4.871  -0.108  0.00  0.00    +0.232 C 
ATOM     17  C   UNL     1      10.156   5.169  -2.580  0.00  0.00    +0.123 C 
ATOM     20  C   UNL     1      12.324   2.013  -2.476  0.00  0.00    +0.105 C 
ATOM     37  H   UNL     1       8.413   4.957  -1.380  0.00  0.00    +0.149 HD
ENDROOT
BRANCH   7  18
ATOM     18  C   UNL     1      12.183   6.147   1.935  0.00  0.00    +0.120 C 
BRANCH  18  22
ATOM     22  C   UNL     1      11.710   6.041   3.360  0.00  0.00    -0.033 A 
ATOM     23  C   UNL     1      10.774   5.069   3.713  0.00  0.00    +0.007 A 
ATOM     24  C   UNL     1      12.207   6.915   4.327  0.00  0.00    +0.007 A 
ATOM     26  C   UNL     1      10.334   4.971   5.034  0.00  0.00    +0.027 A 
ATOM     27  C   UNL     1      11.767   6.817   5.648  0.00  0.00    +0.027 A 
ATOM     28  C   UNL     1      10.831   5.845   6.002  0.00  0.00    +0.088 A 
BRANCH  28   1
ATOM      1  S   UNL     1      10.284   5.720   7.654  0.00  0.00    -0.006 S 
ATOM      5  O   UNL     1      11.434   5.820   8.541  0.00  0.00    -0.170 OA
ATOM      6  O   UNL     1       9.159   6.628   7.824  0.00  0.00    -0.170 OA
ATOM     30  C   UNL     1       9.669   4.056   7.791  0.00  0.00    +0.200 C 
ENDBRANCH  28   1
ENDBRANCH  18  22
ENDBRANCH   7  18
BRANCH  15  19
ATOM     19  C   UNL     1       9.743   2.976  -3.679  0.00  0.00    +0.029 C 
BRANCH  19  21
ATOM     21  C   UNL     1       9.937   2.933  -5.183  0.00  0.00    +0.097 C 
BRANCH  21  25
ATOM      4  O   UNL     1       9.747   4.711  -6.815  0.00  0.00    -0.276 OA
ATOM     10  N   UNL     1       8.022   4.384  -5.296  0.00  0.00    -0.311 N 
ATOM     25  C   UNL     1       9.253   4.101  -5.870  0.00  0.00    +0.213 C 
ATOM     38  H   UNL     1       7.699   3.846  -4.497  0.00  0.00    +0.149 HD
BRANCH  10  29
ATOM     29  C   UNL     1       7.177   5.454  -5.771  0.00  0.00    +0.139 C 
BRANCH  29  31
ATOM      2  F   UNL     1       4.500   8.044  -1.544  0.00  0.00    -0.205 F 
ATOM     31  C   UNL     1       6.462   6.146  -4.641  0.00  0.00    -0.030 A 
ATOM     32  C   UNL     1       7.170   6.979  -3.775  0.00  0.00    +0.008 A 
ATOM     33  C   UNL     1       5.092   5.954  -4.461  0.00  0.00    +0.008 A 
ATOM     34  C   UNL     1       6.507   7.621  -2.728  0.00  0.00    +0.038 A 
ATOM     35  C   UNL     1       4.430   6.595  -3.415  0.00  0.00    +0.038 A 
ATOM     36  C   UNL     1       5.137   7.428  -2.549  0.00  0.00    +0.123 A 
ENDBRANCH  29  31
ENDBRANCH  10  29
ENDBRANCH  21  25
ENDBRANCH  19  21
ENDBRANCH  15  19
TORSDOF 8
ENDMDL
