MODEL 1
REMARK VINA RESULT:      -6.4      0.000      0.000
REMARK  Name = 56775692
REMARK  8 active torsions:
REMARK  status: ('A' for Active; 'I' for Inactive)
REMARK    1  A    between atoms: O_3  and  C_21
REMARK    2  A    between atoms: O_3  and  C_26
REMARK    3  A    between atoms: N_4  and  C_7
REMARK    4  A    between atoms: N_4  and  C_11
REMARK    5  A    between atoms: C_7  and  C_10
REMARK    6  A    between atoms: C_10  and  C_12
REMARK    7  A    between atoms: C_11  and  C_13
REMARK    8  A    between atoms: C_15  and  C_18
REMARK                            x       y       z     vdW  Elec       q    Type
REMARK                         _______ _______ _______ _____ _____    ______ ____
ROOT
ATOM      1  O   UNL     1     -18.020   2.421  21.538  0.00  0.00    -0.376 OA
ATOM      7  C   UNL     1     -17.198   3.018  23.416  0.00  0.00    +0.072 C 
ATOM      8  C   UNL     1     -17.629   1.719  22.740  0.00  0.00    +0.184 C 
ATOM      9  C   UNL     1     -17.722   3.695  22.154  0.00  0.00    +0.184 C 
ENDROOT
BRANCH   7   4
ATOM      4  N   UNL     1     -15.735   3.086  23.418  0.00  0.00    -0.302 NA
ATOM     27  H   UNL     1     -15.298   3.025  22.498  0.00  0.00    +0.123 HD
BRANCH   4  11
ATOM     11  C   UNL     1     -15.313   4.319  24.085  0.00  0.00    +0.117 C 
BRANCH  11  13
ATOM     13  C   UNL     1     -14.639   5.266  23.152  0.00  0.00    -0.033 A 
ATOM     16  C   UNL     1     -15.234   6.491  22.850  0.00  0.00    +0.008 A 
ATOM     17  C   UNL     1     -13.411   4.927  22.581  0.00  0.00    +0.008 A 
ATOM     19  C   UNL     1     -14.603   7.377  21.976  0.00  0.00    +0.046 A 
ATOM     20  C   UNL     1     -12.781   5.812  21.707  0.00  0.00    +0.046 A 
ATOM     21  C   UNL     1     -13.376   7.037  21.405  0.00  0.00    +0.120 A 
BRANCH  21   3
ATOM      3  O   UNL     1     -12.760   7.901  20.553  0.00  0.00    -0.495 OA
ATOM     26  C   UNL     1     -11.728   7.370  19.724  0.00  0.00    +0.277 C 
ENDBRANCH  21   3
ENDBRANCH  11  13
ENDBRANCH   4  11
ENDBRANCH   7   4
BRANCH   7  10
ATOM     10  C   UNL     1     -17.801   3.380  24.739  0.00  0.00    +0.085 C 
BRANCH  10  12
ATOM      2  O   UNL     1     -16.465   0.764  26.843  0.00  0.00    -0.353 OA
ATOM      5  N   UNL     1     -16.997   1.228  25.647  0.00  0.00    -0.083 NA
ATOM     12  C   UNL     1     -17.215   2.532  25.848  0.00  0.00    +0.086 A 
ATOM     14  C   UNL     1     -16.844   2.941  27.140  0.00  0.00    +0.077 A 
ATOM     15  C   UNL     1     -16.379   1.793  27.725  0.00  0.00    +0.186 A 
BRANCH  15  18
ATOM      6  N   UNL     1     -15.374   0.201  29.123  0.00  0.00    -0.252 NA
ATOM     18  C   UNL     1     -15.841   1.465  29.013  0.00  0.00    +0.109 A 
ATOM     22  C   UNL     1     -15.819   2.393  30.042  0.00  0.00    +0.031 A 
ATOM     23  C   UNL     1     -15.282   1.999  31.262  0.00  0.00    +0.004 A 
ATOM     24  C   UNL     1     -14.858  -0.145  30.325  0.00  0.00    +0.111 A 
ATOM     25  C   UNL     1     -14.789   0.708  31.415  0.00  0.00    +0.020 A 
ENDBRANCH  15  18
ENDBRANCH  10  12
ENDBRANCH   7  10
TORSDOF 7
ENDMDL
MODEL 2
REMARK VINA RESULT:      -6.3     32.036     35.581
REMARK  Name = 56775692
REMARK  8 active torsions:
REMARK  status: ('A' for Active; 'I' for Inactive)
REMARK    1  A    between atoms: O_3  and  C_21
REMARK    2  A    between atoms: O_3  and  C_26
REMARK    3  A    between atoms: N_4  and  C_7
REMARK    4  A    between atoms: N_4  and  C_11
REMARK    5  A    between atoms: C_7  and  C_10
REMARK    6  A    between atoms: C_10  and  C_12
REMARK    7  A    between atoms: C_11  and  C_13
REMARK    8  A    between atoms: C_15  and  C_18
REMARK                            x       y       z     vdW  Elec       q    Type
REMARK                         _______ _______ _______ _____ _____    ______ ____
ROOT
ATOM      1  O   UNL     1      19.892   8.724  23.372  0.00  0.00    -0.376 OA
ATOM      7  C   UNL     1      19.670   7.319  21.779  0.00  0.00    +0.072 C 
ATOM      8  C   UNL     1      20.237   7.330  23.196  0.00  0.00    +0.184 C 
ATOM      9  C   UNL     1      19.426   8.807  22.006  0.00  0.00    +0.184 C 
ENDROOT
BRANCH   7   4
ATOM      4  N   UNL     1      18.383   6.621  21.792  0.00  0.00    -0.302 NA
ATOM     27  H   UNL     1      17.728   6.935  22.508  0.00  0.00    +0.123 HD
BRANCH   4  11
ATOM     11  C   UNL     1      17.764   6.731  20.470  0.00  0.00    +0.117 C 
BRANCH  11  13
ATOM     13  C   UNL     1      16.290   6.944  20.551  0.00  0.00    -0.033 A 
ATOM     16  C   UNL     1      15.488   6.702  19.436  0.00  0.00    +0.008 A 
ATOM     17  C   UNL     1      15.714   7.387  21.742  0.00  0.00    +0.008 A 
ATOM     19  C   UNL     1      14.109   6.901  19.512  0.00  0.00    +0.046 A 
ATOM     20  C   UNL     1      14.336   7.588  21.818  0.00  0.00    +0.046 A 
ATOM     21  C   UNL     1      13.534   7.345  20.703  0.00  0.00    +0.120 A 
BRANCH  21   3
ATOM      3  O   UNL     1      12.189   7.540  20.777  0.00  0.00    -0.495 OA
ATOM     26  C   UNL     1      11.414   6.498  21.369  0.00  0.00    +0.277 C 
ENDBRANCH  21   3
ENDBRANCH  11  13
ENDBRANCH   4  11
ENDBRANCH   7   4
BRANCH   7  10
ATOM     10  C   UNL     1      20.555   6.892  20.648  0.00  0.00    +0.085 C 
BRANCH  10  12
ATOM      2  O   UNL     1      21.141   3.330  20.807  0.00  0.00    -0.353 OA
ATOM      5  N   UNL     1      20.388   4.437  20.436  0.00  0.00    -0.083 NA
ATOM     12  C   UNL     1      21.082   5.491  20.877  0.00  0.00    +0.086 A 
ATOM     14  C   UNL     1      22.269   5.114  21.527  0.00  0.00    +0.077 A 
ATOM     15  C   UNL     1      22.259   3.746  21.456  0.00  0.00    +0.186 A 
BRANCH  15  18
ATOM      6  N   UNL     1      23.923   2.178  20.931  0.00  0.00    -0.252 NA
ATOM     18  C   UNL     1      23.143   2.707  21.900  0.00  0.00    +0.109 A 
ATOM     22  C   UNL     1      23.170   2.303  23.225  0.00  0.00    +0.031 A 
ATOM     23  C   UNL     1      24.054   1.290  23.578  0.00  0.00    +0.004 A 
ATOM     24  C   UNL     1      24.770   1.195  21.312  0.00  0.00    +0.111 A 
ATOM     25  C   UNL     1      24.873   0.720  22.610  0.00  0.00    +0.020 A 
ENDBRANCH  15  18
ENDBRANCH  10  12
ENDBRANCH   7  10
TORSDOF 7
ENDMDL
MODEL 3
REMARK VINA RESULT:      -6.3      2.596      5.240
REMARK  Name = 56775692
REMARK  8 active torsions:
REMARK  status: ('A' for Active; 'I' for Inactive)
REMARK    1  A    between atoms: O_3  and  C_21
REMARK    2  A    between atoms: O_3  and  C_26
REMARK    3  A    between atoms: N_4  and  C_7
REMARK    4  A    between atoms: N_4  and  C_11
REMARK    5  A    between atoms: C_7  and  C_10
REMARK    6  A    between atoms: C_10  and  C_12
REMARK    7  A    between atoms: C_11  and  C_13
REMARK    8  A    between atoms: C_15  and  C_18
REMARK                            x       y       z     vdW  Elec       q    Type
REMARK                         _______ _______ _______ _____ _____    ______ ____
ROOT
ATOM      1  O   UNL     1     -16.085   8.171  22.242  0.00  0.00    -0.376 OA
ATOM      7  C   UNL     1     -14.198   7.279  21.793  0.00  0.00    +0.072 C 
ATOM      8  C   UNL     1     -15.460   7.677  21.035  0.00  0.00    +0.184 C 
ATOM      9  C   UNL     1     -14.958   7.731  23.035  0.00  0.00    +0.184 C 
ENDROOT
BRANCH   7   4
ATOM      4  N   UNL     1     -13.145   8.255  21.502  0.00  0.00    -0.302 NA
ATOM     27  H   UNL     1     -12.880   8.852  22.285  0.00  0.00    +0.123 HD
BRANCH   4  11
ATOM     11  C   UNL     1     -11.966   7.552  20.994  0.00  0.00    +0.117 C 
BRANCH  11  13
ATOM     13  C   UNL     1     -11.400   8.200  19.776  0.00  0.00    -0.033 A 
ATOM     16  C   UNL     1     -10.848   9.478  19.859  0.00  0.00    +0.008 A 
ATOM     17  C   UNL     1     -11.425   7.528  18.553  0.00  0.00    +0.008 A 
ATOM     19  C   UNL     1     -10.319  10.085  18.719  0.00  0.00    +0.046 A 
ATOM     20  C   UNL     1     -10.897   8.136  17.414  0.00  0.00    +0.046 A 
ATOM     21  C   UNL     1     -10.345   9.414  17.496  0.00  0.00    +0.120 A 
BRANCH  21   3
ATOM      3  O   UNL     1      -9.828  10.005  16.385  0.00  0.00    -0.495 OA
ATOM     26  C   UNL     1     -10.633  10.991  15.742  0.00  0.00    +0.277 C 
ENDBRANCH  21   3
ENDBRANCH  11  13
ENDBRANCH   4  11
ENDBRANCH   7   4
BRANCH   7  10
ATOM     10  C   UNL     1     -13.719   5.861  21.709  0.00  0.00    +0.085 C 
BRANCH  10  12
ATOM      2  O   UNL     1     -16.324   3.656  22.897  0.00  0.00    -0.353 OA
ATOM      5  N   UNL     1     -15.734   4.447  21.919  0.00  0.00    -0.083 NA
ATOM     12  C   UNL     1     -14.630   4.939  22.492  0.00  0.00    +0.086 A 
ATOM     14  C   UNL     1     -14.474   4.497  23.816  0.00  0.00    +0.077 A 
ATOM     15  C   UNL     1     -15.565   3.694  24.022  0.00  0.00    +0.186 A 
BRANCH  15  18
ATOM      6  N   UNL     1     -16.379   1.643  24.816  0.00  0.00    -0.252 NA
ATOM     18  C   UNL     1     -16.050   2.917  25.126  0.00  0.00    +0.109 A 
ATOM     22  C   UNL     1     -16.160   3.461  26.396  0.00  0.00    +0.031 A 
ATOM     23  C   UNL     1     -16.638   2.643  27.414  0.00  0.00    +0.004 A 
ATOM     24  C   UNL     1     -16.841   0.879  25.832  0.00  0.00    +0.111 A 
ATOM     25  C   UNL     1     -16.987   1.327  27.135  0.00  0.00    +0.020 A 
ENDBRANCH  15  18
ENDBRANCH  10  12
ENDBRANCH   7  10
TORSDOF 7
ENDMDL
MODEL 4
REMARK VINA RESULT:      -6.1     20.000     21.299
REMARK  Name = 56775692
REMARK  8 active torsions:
REMARK  status: ('A' for Active; 'I' for Inactive)
REMARK    1  A    between atoms: O_3  and  C_21
REMARK    2  A    between atoms: O_3  and  C_26
REMARK    3  A    between atoms: N_4  and  C_7
REMARK    4  A    between atoms: N_4  and  C_11
REMARK    5  A    between atoms: C_7  and  C_10
REMARK    6  A    between atoms: C_10  and  C_12
REMARK    7  A    between atoms: C_11  and  C_13
REMARK    8  A    between atoms: C_15  and  C_18
REMARK                            x       y       z     vdW  Elec       q    Type
REMARK                         _______ _______ _______ _____ _____    ______ ____
ROOT
ATOM      1  O   UNL     1      -2.094 -14.200  14.051  0.00  0.00    -0.376 OA
ATOM      7  C   UNL     1      -2.175 -12.117  13.591  0.00  0.00    +0.072 C 
ATOM      8  C   UNL     1      -1.105 -13.196  13.727  0.00  0.00    +0.184 C 
ATOM      9  C   UNL     1      -3.145 -13.208  14.032  0.00  0.00    +0.184 C 
ENDROOT
BRANCH   7   4
ATOM      4  N   UNL     1      -2.388 -11.841  12.169  0.00  0.00    -0.302 NA
ATOM     27  H   UNL     1      -3.275 -12.174  11.792  0.00  0.00    +0.123 HD
BRANCH   4  11
ATOM     11  C   UNL     1      -2.261 -10.401  11.935  0.00  0.00    +0.117 C 
BRANCH  11  13
ATOM     13  C   UNL     1      -3.436  -9.839  11.209  0.00  0.00    -0.033 A 
ATOM     16  C   UNL     1      -3.273  -9.289   9.938  0.00  0.00    +0.008 A 
ATOM     17  C   UNL     1      -4.698  -9.863  11.803  0.00  0.00    +0.008 A 
ATOM     19  C   UNL     1      -4.372  -8.763   9.259  0.00  0.00    +0.046 A 
ATOM     20  C   UNL     1      -5.797  -9.336  11.124  0.00  0.00    +0.046 A 
ATOM     21  C   UNL     1      -5.634  -8.786   9.853  0.00  0.00    +0.120 A 
BRANCH  21   3
ATOM      3  O   UNL     1      -6.707  -8.273   9.191  0.00  0.00    -0.495 OA
ATOM     26  C   UNL     1      -7.999  -8.581   9.711  0.00  0.00    +0.277 C 
ENDBRANCH  21   3
ENDBRANCH  11  13
ENDBRANCH   4  11
ENDBRANCH   7   4
BRANCH   7  10
ATOM     10  C   UNL     1      -2.057 -10.872  14.417  0.00  0.00    +0.085 C 
BRANCH  10  12
ATOM      2  O   UNL     1      -4.095 -10.935  17.400  0.00  0.00    -0.353 OA
ATOM      5  N   UNL     1      -2.885 -11.085  16.734  0.00  0.00    -0.083 NA
ATOM     12  C   UNL     1      -3.158 -10.809  15.455  0.00  0.00    +0.086 A 
ATOM     14  C   UNL     1      -4.510 -10.482  15.256  0.00  0.00    +0.077 A 
ATOM     15  C   UNL     1      -5.055 -10.576  16.509  0.00  0.00    +0.186 A 
BRANCH  15  18
ATOM      6  N   UNL     1      -6.639 -11.124  18.150  0.00  0.00    -0.252 NA
ATOM     18  C   UNL     1      -6.368 -10.380  17.054  0.00  0.00    +0.109 A 
ATOM     22  C   UNL     1      -7.261  -9.492  16.478  0.00  0.00    +0.031 A 
ATOM     23  C   UNL     1      -8.515  -9.359  17.065  0.00  0.00    +0.004 A 
ATOM     24  C   UNL     1      -7.867 -10.967  18.693  0.00  0.00    +0.111 A 
ATOM     25  C   UNL     1      -8.831 -10.106  18.194  0.00  0.00    +0.020 A 
ENDBRANCH  15  18
ENDBRANCH  10  12
ENDBRANCH   7  10
TORSDOF 7
ENDMDL
MODEL 5
REMARK VINA RESULT:      -6.1     20.422     22.814
REMARK  Name = 56775692
REMARK  8 active torsions:
REMARK  status: ('A' for Active; 'I' for Inactive)
REMARK    1  A    between atoms: O_3  and  C_21
REMARK    2  A    between atoms: O_3  and  C_26
REMARK    3  A    between atoms: N_4  and  C_7
REMARK    4  A    between atoms: N_4  and  C_11
REMARK    5  A    between atoms: C_7  and  C_10
REMARK    6  A    between atoms: C_10  and  C_12
REMARK    7  A    between atoms: C_11  and  C_13
REMARK    8  A    between atoms: C_15  and  C_18
REMARK                            x       y       z     vdW  Elec       q    Type
REMARK                         _______ _______ _______ _____ _____    ______ ____
ROOT
ATOM      1  O   UNL     1      -2.379 -13.774  13.059  0.00  0.00    -0.376 OA
ATOM      7  C   UNL     1      -2.693 -12.002  14.207  0.00  0.00    +0.072 C 
ATOM      8  C   UNL     1      -3.521 -12.927  13.319  0.00  0.00    +0.184 C 
ATOM      9  C   UNL     1      -1.517 -12.888  13.809  0.00  0.00    +0.184 C 
ENDROOT
BRANCH   7   4
ATOM      4  N   UNL     1      -3.031 -12.266  15.607  0.00  0.00    -0.302 NA
ATOM     27  H   UNL     1      -2.394 -12.896  16.095  0.00  0.00    +0.123 HD
BRANCH   4  11
ATOM     11  C   UNL     1      -3.118 -10.994  16.328  0.00  0.00    +0.117 C 
BRANCH  11  13
ATOM     13  C   UNL     1      -4.261 -10.962  17.284  0.00  0.00    -0.033 A 
ATOM     16  C   UNL     1      -4.177 -11.648  18.495  0.00  0.00    +0.008 A 
ATOM     17  C   UNL     1      -5.415 -10.245  16.967  0.00  0.00    +0.008 A 
ATOM     19  C   UNL     1      -5.247 -11.618  19.391  0.00  0.00    +0.046 A 
ATOM     20  C   UNL     1      -6.485 -10.215  17.862  0.00  0.00    +0.046 A 
ATOM     21  C   UNL     1      -6.401 -10.902  19.073  0.00  0.00    +0.120 A 
BRANCH  21   3
ATOM      3  O   UNL     1      -7.445 -10.872  19.946  0.00  0.00    -0.495 OA
ATOM     26  C   UNL     1      -8.720 -11.271  19.447  0.00  0.00    +0.277 C 
ENDBRANCH  21   3
ENDBRANCH  11  13
ENDBRANCH   4  11
ENDBRANCH   7   4
BRANCH   7  10
ATOM     10  C   UNL     1      -2.644 -10.540  13.883  0.00  0.00    +0.085 C 
BRANCH  10  12
ATOM      2  O   UNL     1      -2.975 -10.010  10.324  0.00  0.00    -0.353 OA
ATOM      5  N   UNL     1      -2.224 -10.262  11.465  0.00  0.00    -0.083 NA
ATOM     12  C   UNL     1      -3.111 -10.287  12.465  0.00  0.00    +0.086 A 
ATOM     14  C   UNL     1      -4.423 -10.059  12.019  0.00  0.00    +0.077 A 
ATOM     15  C   UNL     1      -4.284  -9.891  10.666  0.00  0.00    +0.186 A 
BRANCH  15  18
ATOM      6  N   UNL     1      -6.329  -9.000   9.943  0.00  0.00    -0.252 NA
ATOM     18  C   UNL     1      -5.189  -9.631   9.584  0.00  0.00    +0.109 A 
ATOM     22  C   UNL     1      -4.887 -10.011   8.287  0.00  0.00    +0.031 A 
ATOM     23  C   UNL     1      -5.815  -9.723   7.292  0.00  0.00    +0.004 A 
ATOM     24  C   UNL     1      -7.207  -8.737   8.949  0.00  0.00    +0.111 A 
ATOM     25  C   UNL     1      -6.999  -9.074   7.621  0.00  0.00    +0.020 A 
ENDBRANCH  15  18
ENDBRANCH  10  12
ENDBRANCH   7  10
TORSDOF 7
ENDMDL
MODEL 6
REMARK VINA RESULT:      -6.0     15.179     17.504
REMARK  Name = 56775692
REMARK  8 active torsions:
REMARK  status: ('A' for Active; 'I' for Inactive)
REMARK    1  A    between atoms: O_3  and  C_21
REMARK    2  A    between atoms: O_3  and  C_26
REMARK    3  A    between atoms: N_4  and  C_7
REMARK    4  A    between atoms: N_4  and  C_11
REMARK    5  A    between atoms: C_7  and  C_10
REMARK    6  A    between atoms: C_10  and  C_12
REMARK    7  A    between atoms: C_11  and  C_13
REMARK    8  A    between atoms: C_15  and  C_18
REMARK                            x       y       z     vdW  Elec       q    Type
REMARK                         _______ _______ _______ _____ _____    ______ ____
ROOT
ATOM      1  O   UNL     1     -11.468 -11.674  16.408  0.00  0.00    -0.376 OA
ATOM      7  C   UNL     1     -10.780  -9.686  16.769  0.00  0.00    +0.072 C 
ATOM      8  C   UNL     1     -10.869 -11.000  17.538  0.00  0.00    +0.184 C 
ATOM      9  C   UNL     1     -11.502 -10.439  15.657  0.00  0.00    +0.184 C 
ENDROOT
BRANCH   7   4
ATOM      4  N   UNL     1      -9.389  -9.467  16.367  0.00  0.00    -0.302 NA
ATOM     27  H   UNL     1      -9.251  -8.749  15.656  0.00  0.00    +0.123 HD
BRANCH   4  11
ATOM     11  C   UNL     1      -8.591  -9.150  17.553  0.00  0.00    +0.117 C 
BRANCH  11  13
ATOM     13  C   UNL     1      -7.199  -9.676  17.456  0.00  0.00    -0.033 A 
ATOM     16  C   UNL     1      -6.601 -10.274  18.565  0.00  0.00    +0.008 A 
ATOM     17  C   UNL     1      -6.495  -9.569  16.256  0.00  0.00    +0.008 A 
ATOM     19  C   UNL     1      -5.298 -10.767  18.475  0.00  0.00    +0.046 A 
ATOM     20  C   UNL     1      -5.192 -10.060  16.167  0.00  0.00    +0.046 A 
ATOM     21  C   UNL     1      -4.594 -10.658  17.275  0.00  0.00    +0.120 A 
BRANCH  21   3
ATOM      3  O   UNL     1      -3.324 -11.138  17.187  0.00  0.00    -0.495 OA
ATOM     26  C   UNL     1      -2.557 -10.740  16.052  0.00  0.00    +0.277 C 
ENDBRANCH  21   3
ENDBRANCH  11  13
ENDBRANCH   4  11
ENDBRANCH   7   4
BRANCH   7  10
ATOM     10  C   UNL     1     -11.419  -8.461  17.350  0.00  0.00    +0.085 C 
BRANCH  10  12
ATOM      2  O   UNL     1     -10.939  -5.782  14.973  0.00  0.00    -0.353 OA
ATOM      5  N   UNL     1     -10.472  -6.678  15.926  0.00  0.00    -0.083 NA
ATOM     12  C   UNL     1     -11.550  -7.374  16.304  0.00  0.00    +0.086 A 
ATOM     14  C   UNL     1     -12.712  -6.965  15.629  0.00  0.00    +0.077 A 
ATOM     15  C   UNL     1     -12.275  -5.962  14.805  0.00  0.00    +0.186 A 
BRANCH  15  18
ATOM      6  N   UNL     1     -14.252  -5.176  13.817  0.00  0.00    -0.252 NA
ATOM     18  C   UNL     1     -12.902  -5.103  13.843  0.00  0.00    +0.109 A 
ATOM     22  C   UNL     1     -12.154  -4.277  13.020  0.00  0.00    +0.031 A 
ATOM     23  C   UNL     1     -12.835  -3.472  12.113  0.00  0.00    +0.004 A 
ATOM     24  C   UNL     1     -14.879  -4.380  12.922  0.00  0.00    +0.111 A 
ATOM     25  C   UNL     1     -14.223  -3.519  12.057  0.00  0.00    +0.020 A 
ENDBRANCH  15  18
ENDBRANCH  10  12
ENDBRANCH   7  10
TORSDOF 7
ENDMDL
MODEL 7
REMARK VINA RESULT:      -5.9     18.348     19.740
REMARK  Name = 56775692
REMARK  8 active torsions:
REMARK  status: ('A' for Active; 'I' for Inactive)
REMARK    1  A    between atoms: O_3  and  C_21
REMARK    2  A    between atoms: O_3  and  C_26
REMARK    3  A    between atoms: N_4  and  C_7
REMARK    4  A    between atoms: N_4  and  C_11
REMARK    5  A    between atoms: C_7  and  C_10
REMARK    6  A    between atoms: C_10  and  C_12
REMARK    7  A    between atoms: C_11  and  C_13
REMARK    8  A    between atoms: C_15  and  C_18
REMARK                            x       y       z     vdW  Elec       q    Type
REMARK                         _______ _______ _______ _____ _____    ______ ____
ROOT
ATOM      1  O   UNL     1      -5.944 -13.761  17.337  0.00  0.00    -0.376 OA
ATOM      7  C   UNL     1      -4.834 -11.964  17.030  0.00  0.00    +0.072 C 
ATOM      8  C   UNL     1      -4.888 -13.087  18.060  0.00  0.00    +0.184 C 
ATOM      9  C   UNL     1      -6.010 -12.682  16.377  0.00  0.00    +0.184 C 
ENDROOT
BRANCH   7   4
ATOM      4  N   UNL     1      -3.645 -12.147  16.194  0.00  0.00    -0.302 NA
ATOM     27  H   UNL     1      -3.783 -12.729  15.368  0.00  0.00    +0.123 HD
BRANCH   4  11
ATOM     11  C   UNL     1      -3.131 -10.835  15.796  0.00  0.00    +0.117 C 
BRANCH  11  13
ATOM     13  C   UNL     1      -3.146 -10.646  14.317  0.00  0.00    -0.033 A 
ATOM     16  C   UNL     1      -1.946 -10.507  13.620  0.00  0.00    +0.008 A 
ATOM     17  C   UNL     1      -4.360 -10.606  13.632  0.00  0.00    +0.008 A 
ATOM     19  C   UNL     1      -1.959 -10.329  12.236  0.00  0.00    +0.046 A 
ATOM     20  C   UNL     1      -4.374 -10.428  12.248  0.00  0.00    +0.046 A 
ATOM     21  C   UNL     1      -3.174 -10.289  11.551  0.00  0.00    +0.120 A 
BRANCH  21   3
ATOM      3  O   UNL     1      -3.188 -10.116  10.201  0.00  0.00    -0.495 OA
ATOM     26  C   UNL     1      -3.915  -8.997   9.698  0.00  0.00    +0.277 C 
ENDBRANCH  21   3
ENDBRANCH  11  13
ENDBRANCH   4  11
ENDBRANCH   7   4
BRANCH   7  10
ATOM     10  C   UNL     1      -5.011 -10.549  17.490  0.00  0.00    +0.085 C 
BRANCH  10  12
ATOM      2  O   UNL     1      -8.451 -10.166  18.530  0.00  0.00    -0.353 OA
ATOM      5  N   UNL     1      -7.159 -10.644  18.707  0.00  0.00    -0.083 NA
ATOM     12  C   UNL     1      -6.480 -10.212  17.640  0.00  0.00    +0.086 A 
ATOM     14  C   UNL     1      -7.284  -9.463  16.764  0.00  0.00    +0.077 A 
ATOM     15  C   UNL     1      -8.513  -9.464  17.369  0.00  0.00    +0.186 A 
BRANCH  15  18
ATOM      6  N   UNL     1     -10.825  -9.774  17.122  0.00  0.00    -0.252 NA
ATOM     18  C   UNL     1      -9.794  -8.903  17.050  0.00  0.00    +0.109 A 
ATOM     22  C   UNL     1      -9.928  -7.569  16.699  0.00  0.00    +0.031 A 
ATOM     23  C   UNL     1     -11.203  -7.100  16.404  0.00  0.00    +0.004 A 
ATOM     24  C   UNL     1     -12.049  -9.281  16.829  0.00  0.00    +0.111 A 
ATOM     25  C   UNL     1     -12.289  -7.965  16.468  0.00  0.00    +0.020 A 
ENDBRANCH  15  18
ENDBRANCH  10  12
ENDBRANCH   7  10
TORSDOF 7
ENDMDL
MODEL 8
REMARK VINA RESULT:      -5.9     30.588     36.567
REMARK  Name = 56775692
REMARK  8 active torsions:
REMARK  status: ('A' for Active; 'I' for Inactive)
REMARK    1  A    between atoms: O_3  and  C_21
REMARK    2  A    between atoms: O_3  and  C_26
REMARK    3  A    between atoms: N_4  and  C_7
REMARK    4  A    between atoms: N_4  and  C_11
REMARK    5  A    between atoms: C_7  and  C_10
REMARK    6  A    between atoms: C_10  and  C_12
REMARK    7  A    between atoms: C_11  and  C_13
REMARK    8  A    between atoms: C_15  and  C_18
REMARK                            x       y       z     vdW  Elec       q    Type
REMARK                         _______ _______ _______ _____ _____    ______ ____
ROOT
ATOM      1  O   UNL     1      14.133   6.481   0.965  0.00  0.00    -0.376 OA
ATOM      7  C   UNL     1      12.662   5.446   2.114  0.00  0.00    +0.072 C 
ATOM      8  C   UNL     1      14.177   5.419   1.946  0.00  0.00    +0.184 C 
ATOM      9  C   UNL     1      12.688   6.493   1.006  0.00  0.00    +0.184 C 
ENDROOT
BRANCH   7   4
ATOM      4  N   UNL     1      12.340   6.107   3.381  0.00  0.00    -0.302 NA
ATOM     27  H   UNL     1      12.448   7.121   3.380  0.00  0.00    +0.123 HD
BRANCH   4  11
ATOM     11  C   UNL     1      10.974   5.755   3.773  0.00  0.00    +0.117 C 
BRANCH  11  13
ATOM     13  C   UNL     1      10.819   5.646   5.252  0.00  0.00    -0.033 A 
ATOM     16  C   UNL     1      11.583   6.453   6.095  0.00  0.00    +0.008 A 
ATOM     17  C   UNL     1       9.911   4.735   5.793  0.00  0.00    +0.008 A 
ATOM     19  C   UNL     1      11.438   6.352   7.479  0.00  0.00    +0.046 A 
ATOM     20  C   UNL     1       9.767   4.632   7.177  0.00  0.00    +0.046 A 
ATOM     21  C   UNL     1      10.530   5.440   8.019  0.00  0.00    +0.120 A 
BRANCH  21   3
ATOM      3  O   UNL     1      10.389   5.341   9.369  0.00  0.00    -0.495 OA
ATOM     26  C   UNL     1       9.150   4.826   9.856  0.00  0.00    +0.277 C 
ENDBRANCH  21   3
ENDBRANCH  11  13
ENDBRANCH   4  11
ENDBRANCH   7   4
BRANCH   7  10
ATOM     10  C   UNL     1      11.886   4.182   1.902  0.00  0.00    +0.085 C 
BRANCH  10  12
ATOM      2  O   UNL     1       9.962   4.294  -1.155  0.00  0.00    -0.353 OA
ATOM      5  N   UNL     1      10.112   4.495   0.212  0.00  0.00    -0.083 NA
ATOM     12  C   UNL     1      11.362   4.104   0.484  0.00  0.00    +0.086 A 
ATOM     14  C   UNL     1      12.040   3.652  -0.661  0.00  0.00    +0.077 A 
ATOM     15  C   UNL     1      11.117   3.791  -1.663  0.00  0.00    +0.186 A 
BRANCH  15  18
ATOM      6  N   UNL     1      12.342   3.381  -3.621  0.00  0.00    -0.252 NA
ATOM     18  C   UNL     1      11.115   3.533  -3.074  0.00  0.00    +0.109 A 
ATOM     22  C   UNL     1       9.931   3.452  -3.789  0.00  0.00    +0.031 A 
ATOM     23  C   UNL     1      10.012   3.199  -5.154  0.00  0.00    +0.004 A 
ATOM     24  C   UNL     1      12.380   3.136  -4.950  0.00  0.00    +0.111 A 
ATOM     25  C   UNL     1      11.256   3.036  -5.753  0.00  0.00    +0.020 A 
ENDBRANCH  15  18
ENDBRANCH  10  12
ENDBRANCH   7  10
TORSDOF 7
ENDMDL
MODEL 9
REMARK VINA RESULT:      -5.9     16.580     18.412
REMARK  Name = 56775692
REMARK  8 active torsions:
REMARK  status: ('A' for Active; 'I' for Inactive)
REMARK    1  A    between atoms: O_3  and  C_21
REMARK    2  A    between atoms: O_3  and  C_26
REMARK    3  A    between atoms: N_4  and  C_7
REMARK    4  A    between atoms: N_4  and  C_11
REMARK    5  A    between atoms: C_7  and  C_10
REMARK    6  A    between atoms: C_10  and  C_12
REMARK    7  A    between atoms: C_11  and  C_13
REMARK    8  A    between atoms: C_15  and  C_18
REMARK                            x       y       z     vdW  Elec       q    Type
REMARK                         _______ _______ _______ _____ _____    ______ ____
ROOT
ATOM      1  O   UNL     1      -9.851 -13.365  19.382  0.00  0.00    -0.376 OA
ATOM      7  C   UNL     1      -8.977 -11.485  18.874  0.00  0.00    +0.072 C 
ATOM      8  C   UNL     1      -8.857 -12.937  18.423  0.00  0.00    +0.184 C 
ATOM      9  C   UNL     1      -9.944 -12.027  19.921  0.00  0.00    +0.184 C 
ENDROOT
BRANCH   7   4
ATOM      4  N   UNL     1      -9.739 -10.740  17.868  0.00  0.00    -0.302 NA
ATOM     27  H   UNL     1     -10.372 -11.303  17.301  0.00  0.00    +0.123 HD
BRANCH   4  11
ATOM     11  C   UNL     1     -10.485  -9.668  18.529  0.00  0.00    +0.117 C 
BRANCH  11  13
ATOM     13  C   UNL     1     -11.008  -8.662  17.560  0.00  0.00    -0.033 A 
ATOM     16  C   UNL     1     -10.171  -7.656  17.078  0.00  0.00    +0.008 A 
ATOM     17  C   UNL     1     -12.337  -8.727  17.137  0.00  0.00    +0.008 A 
ATOM     19  C   UNL     1     -10.660  -6.715  16.172  0.00  0.00    +0.046 A 
ATOM     20  C   UNL     1     -12.826  -7.785  16.232  0.00  0.00    +0.046 A 
ATOM     21  C   UNL     1     -11.989  -6.780  15.750  0.00  0.00    +0.120 A 
BRANCH  21   3
ATOM      3  O   UNL     1     -12.467  -5.862  14.866  0.00  0.00    -0.495 OA
ATOM     26  C   UNL     1     -13.796  -6.054  14.386  0.00  0.00    +0.277 C 
ENDBRANCH  21   3
ENDBRANCH  11  13
ENDBRANCH   4  11
ENDBRANCH   7   4
BRANCH   7  10
ATOM     10  C   UNL     1      -7.745 -10.762  19.327  0.00  0.00    +0.085 C 
BRANCH  10  12
ATOM      2  O   UNL     1      -6.121  -9.507  16.353  0.00  0.00    -0.353 OA
ATOM      5  N   UNL     1      -7.154  -9.509  17.282  0.00  0.00    -0.083 NA
ATOM     12  C   UNL     1      -6.832 -10.469  18.155  0.00  0.00    +0.086 A 
ATOM     14  C   UNL     1      -5.619 -11.099  17.831  0.00  0.00    +0.077 A 
ATOM     15  C   UNL     1      -5.213 -10.458  16.690  0.00  0.00    +0.186 A 
BRANCH  15  18
ATOM      6  N   UNL     1      -2.886 -10.634  16.451  0.00  0.00    -0.252 NA
ATOM     18  C   UNL     1      -4.080 -10.573  15.819  0.00  0.00    +0.109 A 
ATOM     22  C   UNL     1      -4.232 -10.615  14.442  0.00  0.00    +0.031 A 
ATOM     23  C   UNL     1      -3.085 -10.728  13.665  0.00  0.00    +0.004 A 
ATOM     24  C   UNL     1      -1.794 -10.743  15.662  0.00  0.00    +0.111 A 
ATOM     25  C   UNL     1      -1.839 -10.794  14.278  0.00  0.00    +0.020 A 
ENDBRANCH  15  18
ENDBRANCH  10  12
ENDBRANCH   7  10
TORSDOF 7
ENDMDL
MODEL 10
REMARK VINA RESULT:      -5.8     32.783     36.462
REMARK  Name = 56775692
REMARK  8 active torsions:
REMARK  status: ('A' for Active; 'I' for Inactive)
REMARK    1  A    between atoms: O_3  and  C_21
REMARK    2  A    between atoms: O_3  and  C_26
REMARK    3  A    between atoms: N_4  and  C_7
REMARK    4  A    between atoms: N_4  and  C_11
REMARK    5  A    between atoms: C_7  and  C_10
REMARK    6  A    between atoms: C_10  and  C_12
REMARK    7  A    between atoms: C_11  and  C_13
REMARK    8  A    between atoms: C_15  and  C_18
REMARK                            x       y       z     vdW  Elec       q    Type
REMARK                         _______ _______ _______ _____ _____    ______ ____
ROOT
ATOM      1  O   UNL     1      21.769   7.320  23.999  0.00  0.00    -0.376 OA
ATOM      7  C   UNL     1      21.121   6.352  22.210  0.00  0.00    +0.072 C 
ATOM      8  C   UNL     1      22.436   6.837  22.811  0.00  0.00    +0.184 C 
ATOM      9  C   UNL     1      20.479   6.972  23.447  0.00  0.00    +0.184 C 
ENDROOT
BRANCH   7   4
ATOM      4  N   UNL     1      21.058   4.893  22.326  0.00  0.00    -0.302 NA
ATOM     27  H   UNL     1      20.117   4.500  22.335  0.00  0.00    +0.123 HD
BRANCH   4  11
ATOM     11  C   UNL     1      21.835   4.293  21.240  0.00  0.00    +0.117 C 
BRANCH  11  13
ATOM     13  C   UNL     1      22.720   3.192  21.719  0.00  0.00    -0.033 A 
ATOM     16  C   UNL     1      23.502   2.480  20.810  0.00  0.00    +0.008 A 
ATOM     17  C   UNL     1      22.766   2.875  23.077  0.00  0.00    +0.008 A 
ATOM     19  C   UNL     1      24.330   1.450  21.258  0.00  0.00    +0.046 A 
ATOM     20  C   UNL     1      23.593   1.845  23.525  0.00  0.00    +0.046 A 
ATOM     21  C   UNL     1      24.374   1.132  22.616  0.00  0.00    +0.120 A 
BRANCH  21   3
ATOM      3  O   UNL     1      25.182   0.128  23.053  0.00  0.00    -0.495 OA
ATOM     26  C   UNL     1      26.576   0.249  22.775  0.00  0.00    +0.277 C 
ENDBRANCH  21   3
ENDBRANCH  11  13
ENDBRANCH   4  11
ENDBRANCH   7   4
BRANCH   7  10
ATOM     10  C   UNL     1      20.716   6.849  20.856  0.00  0.00    +0.085 C 
BRANCH  10  12
ATOM      2  O   UNL     1      17.430   5.659  19.938  0.00  0.00    -0.353 OA
ATOM      5  N   UNL     1      18.813   5.542  19.976  0.00  0.00    -0.083 NA
ATOM     12  C   UNL     1      19.236   6.633  20.623  0.00  0.00    +0.086 A 
ATOM     14  C   UNL     1      18.173   7.466  21.013  0.00  0.00    +0.077 A 
ATOM     15  C   UNL     1      17.060   6.809  20.559  0.00  0.00    +0.186 A 
BRANCH  15  18
ATOM      6  N   UNL     1      15.011   6.902  19.422  0.00  0.00    -0.252 NA
ATOM     18  C   UNL     1      15.650   7.068  20.602  0.00  0.00    +0.109 A 
ATOM     22  C   UNL     1      15.025   7.454  21.776  0.00  0.00    +0.031 A 
ATOM     23  C   UNL     1      13.654   7.686  21.737  0.00  0.00    +0.004 A 
ATOM     24  C   UNL     1      13.679   7.137  19.424  0.00  0.00    +0.111 A 
ATOM     25  C   UNL     1      12.961   7.526  20.543  0.00  0.00    +0.020 A 
ENDBRANCH  15  18
ENDBRANCH  10  12
ENDBRANCH   7  10
TORSDOF 7
ENDMDL
