MODEL 1
REMARK VINA RESULT:      -6.3      0.000      0.000
REMARK  Name = 51136741
REMARK  9 active torsions:
REMARK  status: ('A' for Active; 'I' for Inactive)
REMARK    1  A    between atoms: O_2  and  C_17
REMARK    2  A    between atoms: N_6  and  C_22
REMARK    3  A    between atoms: C_7  and  C_12
REMARK    4  A    between atoms: C_8  and  C_13
REMARK    5  A    between atoms: C_12  and  C_14
REMARK    6  A    between atoms: C_13  and  C_17
REMARK    7  A    between atoms: C_22  and  C_26
REMARK    8  A    between atoms: C_22  and  C_27
REMARK    9  A    between atoms: C_24  and  C_28
REMARK                            x       y       z     vdW  Elec       q    Type
REMARK                         _______ _______ _______ _____ _____    ______ ____
ROOT
ATOM      1  O   UNL     1      -7.926 -11.571  18.666  0.00  0.00    -0.253 OA
ATOM      4  N   UNL     1      -6.355 -10.396  17.428  0.00  0.00    -0.285 N 
ATOM      6  N   UNL     1      -8.588 -10.626  16.684  0.00  0.00    -0.297 N 
ATOM      7  C   UNL     1      -4.789 -10.301  15.509  0.00  0.00    +0.016 C 
ATOM      8  C   UNL     1      -3.627 -10.617  16.487  0.00  0.00    +0.006 C 
ATOM      9  C   UNL     1      -4.120 -11.371  17.736  0.00  0.00    +0.023 C 
ATOM     10  C   UNL     1      -5.927  -9.599  16.269  0.00  0.00    +0.113 C 
ATOM     11  C   UNL     1      -5.291 -10.650  18.400  0.00  0.00    +0.109 C 
ATOM     15  C   UNL     1      -7.642 -10.907  17.663  0.00  0.00    +0.302 C 
ATOM     29  H   UNL     1      -8.313 -10.222  15.799  0.00  0.00    +0.150 HD
ENDROOT
BRANCH   6  22
ATOM     22  C   UNL     1      -9.954 -11.090  16.779  0.00  0.00    +0.068 C 
ATOM     26  C   UNL     1     -10.104 -12.438  16.087  0.00  0.00    +0.027 C 
ATOM     27  C   UNL     1     -10.910 -10.058  16.193  0.00  0.00    +0.027 C 
ENDBRANCH   6  22
BRANCH   7  12
ATOM     12  C   UNL     1      -5.322 -11.526  14.758  0.00  0.00    +0.061 C 
BRANCH  12  14
ATOM      5  N   UNL     1      -7.546 -11.391  13.859  0.00  0.00    -0.287 NA
ATOM     14  C   UNL     1      -6.300 -11.090  13.693  0.00  0.00    +0.044 C 
ATOM     16  C   UNL     1      -5.789 -10.337  12.520  0.00  0.00    -0.001 A 
ATOM     18  C   UNL     1      -6.733  -9.624  11.768  0.00  0.00    -0.037 A 
ATOM     19  C   UNL     1      -8.169  -9.656  12.199  0.00  0.00    +0.059 C 
ATOM     20  C   UNL     1      -8.486 -11.021  12.796  0.00  0.00    +0.146 C 
ATOM     21  C   UNL     1      -4.439 -10.310  12.168  0.00  0.00    +0.013 A 
ATOM     23  C   UNL     1      -6.312  -8.861  10.675  0.00  0.00    +0.004 A 
ATOM     24  C   UNL     1      -4.030  -9.559  11.065  0.00  0.00    -0.050 A 
ATOM     25  C   UNL     1      -4.962  -8.835  10.323  0.00  0.00    +0.003 A 
ATOM     28  C   UNL     1      -2.589  -9.527  10.681  0.00  0.00    +0.044 C 
ENDBRANCH  12  14
ENDBRANCH   7  12
BRANCH   8  13
ATOM     13  C   UNL     1      -2.471 -11.366  15.825  0.00  0.00    +0.124 C 
BRANCH  13  17
ATOM      3  O   UNL     1      -1.491  -9.860  14.178  0.00  0.00    -0.251 OA
ATOM     17  C   UNL     1      -1.445 -10.421  15.263  0.00  0.00    +0.305 C 
BRANCH  17   2
ATOM      2  O   UNL     1      -0.429 -10.267  16.151  0.00  0.00    -0.481 OA
ATOM     30  H   UNL     1      -0.469  -9.400  16.606  0.00  0.00    +0.295 HD
ENDBRANCH  17   2
ENDBRANCH  13  17
ENDBRANCH   8  13
TORSDOF 6
ENDMDL
MODEL 2
REMARK VINA RESULT:      -6.1     26.576     29.540
REMARK  Name = 51136741
REMARK  9 active torsions:
REMARK  status: ('A' for Active; 'I' for Inactive)
REMARK    1  A    between atoms: O_2  and  C_17
REMARK    2  A    between atoms: N_6  and  C_22
REMARK    3  A    between atoms: C_7  and  C_12
REMARK    4  A    between atoms: C_8  and  C_13
REMARK    5  A    between atoms: C_12  and  C_14
REMARK    6  A    between atoms: C_13  and  C_17
REMARK    7  A    between atoms: C_22  and  C_26
REMARK    8  A    between atoms: C_22  and  C_27
REMARK    9  A    between atoms: C_24  and  C_28
REMARK                            x       y       z     vdW  Elec       q    Type
REMARK                         _______ _______ _______ _____ _____    ______ ____
ROOT
ATOM      1  O   UNL     1      15.216  10.366  14.616  0.00  0.00    -0.253 OA
ATOM      4  N   UNL     1      13.702   9.719  16.249  0.00  0.00    -0.285 N 
ATOM      6  N   UNL     1      14.126  12.001  15.797  0.00  0.00    -0.297 N 
ATOM      7  C   UNL     1      13.166   9.376  18.645  0.00  0.00    +0.016 C 
ATOM      8  C   UNL     1      13.447   7.863  18.455  0.00  0.00    +0.006 C 
ATOM      9  C   UNL     1      14.409   7.603  17.281  0.00  0.00    +0.023 C 
ATOM     10  C   UNL     1      12.717   9.990  17.307  0.00  0.00    +0.113 C 
ATOM     11  C   UNL     1      13.934   8.294  16.005  0.00  0.00    +0.109 C 
ATOM     15  C   UNL     1      14.401  10.673  15.492  0.00  0.00    +0.302 C 
ATOM     29  H   UNL     1      13.583  12.243  16.615  0.00  0.00    +0.150 HD
ENDROOT
BRANCH   6  22
ATOM     22  C   UNL     1      14.772  13.098  15.111  0.00  0.00    +0.068 C 
ATOM     26  C   UNL     1      16.146  13.362  15.712  0.00  0.00    +0.027 C 
ATOM     27  C   UNL     1      13.898  14.345  15.158  0.00  0.00    +0.027 C 
ENDBRANCH   6  22
BRANCH   7  12
ATOM     12  C   UNL     1      14.347  10.162  19.225  0.00  0.00    +0.061 C 
BRANCH  12  14
ATOM      5  N   UNL     1      14.568  12.500  18.717  0.00  0.00    -0.287 NA
ATOM     14  C   UNL     1      13.955  11.608  19.422  0.00  0.00    +0.044 C 
ATOM     16  C   UNL     1      12.889  11.931  20.405  0.00  0.00    -0.001 A 
ATOM     18  C   UNL     1      12.287  13.191  20.289  0.00  0.00    -0.037 A 
ATOM     19  C   UNL     1      12.741  14.108  19.192  0.00  0.00    +0.059 C 
ATOM     20  C   UNL     1      14.231  13.907  18.951  0.00  0.00    +0.146 C 
ATOM     21  C   UNL     1      12.477  11.038  21.394  0.00  0.00    +0.013 A 
ATOM     23  C   UNL     1      11.249  13.542  21.156  0.00  0.00    +0.004 A 
ATOM     24  C   UNL     1      11.450  11.403  22.267  0.00  0.00    -0.050 A 
ATOM     25  C   UNL     1      10.836  12.650  22.146  0.00  0.00    +0.003 A 
ATOM     28  C   UNL     1      11.004  10.456  23.328  0.00  0.00    +0.044 C 
ENDBRANCH  12  14
ENDBRANCH   7  12
BRANCH   8  13
ATOM     13  C   UNL     1      13.951   7.181  19.727  0.00  0.00    +0.124 C 
BRANCH  13  17
ATOM      3  O   UNL     1      12.679   7.533  21.776  0.00  0.00    -0.251 OA
ATOM     17  C   UNL     1      12.839   6.952  20.713  0.00  0.00    +0.305 C 
BRANCH  17   2
ATOM      2  O   UNL     1      12.009   5.983  20.250  0.00  0.00    -0.481 OA
ATOM     30  H   UNL     1      11.144   6.347  19.967  0.00  0.00    +0.295 HD
ENDBRANCH  17   2
ENDBRANCH  13  17
ENDBRANCH   8  13
TORSDOF 6
ENDMDL
MODEL 3
REMARK VINA RESULT:      -6.0     26.521     29.183
REMARK  Name = 51136741
REMARK  9 active torsions:
REMARK  status: ('A' for Active; 'I' for Inactive)
REMARK    1  A    between atoms: O_2  and  C_17
REMARK    2  A    between atoms: N_6  and  C_22
REMARK    3  A    between atoms: C_7  and  C_12
REMARK    4  A    between atoms: C_8  and  C_13
REMARK    5  A    between atoms: C_12  and  C_14
REMARK    6  A    between atoms: C_13  and  C_17
REMARK    7  A    between atoms: C_22  and  C_26
REMARK    8  A    between atoms: C_22  and  C_27
REMARK    9  A    between atoms: C_24  and  C_28
REMARK                            x       y       z     vdW  Elec       q    Type
REMARK                         _______ _______ _______ _____ _____    ______ ____
ROOT
ATOM      1  O   UNL     1      11.683  13.273  23.466  0.00  0.00    -0.253 OA
ATOM      4  N   UNL     1      12.507  11.169  22.944  0.00  0.00    -0.285 N 
ATOM      6  N   UNL     1      13.581  13.134  22.186  0.00  0.00    -0.297 N 
ATOM      7  C   UNL     1      12.772   9.328  21.305  0.00  0.00    +0.016 C 
ATOM      8  C   UNL     1      11.608   8.582  22.008  0.00  0.00    +0.006 C 
ATOM      9  C   UNL     1      10.664   9.555  22.739  0.00  0.00    +0.023 C 
ATOM     10  C   UNL     1      13.472  10.256  22.312  0.00  0.00    +0.113 C 
ATOM     11  C   UNL     1      11.435  10.487  23.672  0.00  0.00    +0.109 C 
ATOM     15  C   UNL     1      12.534  12.573  22.907  0.00  0.00    +0.302 C 
ATOM     29  H   UNL     1      14.176  12.560  21.604  0.00  0.00    +0.150 HD
ENDROOT
BRANCH   6  22
ATOM     22  C   UNL     1      13.739  14.565  22.048  0.00  0.00    +0.068 C 
ATOM     26  C   UNL     1      13.065  15.051  20.772  0.00  0.00    +0.027 C 
ATOM     27  C   UNL     1      15.215  14.944  22.073  0.00  0.00    +0.027 C 
ENDBRANCH   6  22
BRANCH   7  12
ATOM     12  C   UNL     1      12.349  10.112  20.058  0.00  0.00    +0.061 C 
BRANCH  12  14
ATOM      5  N   UNL     1      12.996   8.381  18.523  0.00  0.00    -0.287 NA
ATOM     14  C   UNL     1      13.122   9.623  18.857  0.00  0.00    +0.044 C 
ATOM     16  C   UNL     1      13.977  10.587  18.118  0.00  0.00    -0.001 A 
ATOM     18  C   UNL     1      14.361  10.223  16.820  0.00  0.00    -0.037 A 
ATOM     19  C   UNL     1      13.880   8.914  16.268  0.00  0.00    +0.059 C 
ATOM     20  C   UNL     1      13.794   7.893  17.393  0.00  0.00    +0.146 C 
ATOM     21  C   UNL     1      14.381  11.808  18.659  0.00  0.00    +0.013 A 
ATOM     23  C   UNL     1      15.132  11.104  16.056  0.00  0.00    +0.004 A 
ATOM     24  C   UNL     1      15.165  12.674  17.894  0.00  0.00    -0.050 A 
ATOM     25  C   UNL     1      15.536  12.324  16.597  0.00  0.00    +0.003 A 
ATOM     28  C   UNL     1      15.602  13.981  18.466  0.00  0.00    +0.044 C 
ENDBRANCH  12  14
ENDBRANCH   7  12
BRANCH   8  13
ATOM     13  C   UNL     1      10.820   7.674  21.064  0.00  0.00    +0.124 C 
BRANCH  13  17
ATOM      3  O   UNL     1      11.168   5.403  21.879  0.00  0.00    -0.251 OA
ATOM     17  C   UNL     1      11.373   6.275  21.048  0.00  0.00    +0.305 C 
BRANCH  17   2
ATOM      2  O   UNL     1      12.155   6.105  19.952  0.00  0.00    -0.481 OA
ATOM     30  H   UNL     1      12.280   6.943  19.458  0.00  0.00    +0.295 HD
ENDBRANCH  17   2
ENDBRANCH  13  17
ENDBRANCH   8  13
TORSDOF 6
ENDMDL
MODEL 4
REMARK VINA RESULT:      -5.9      2.035      5.896
REMARK  Name = 51136741
REMARK  9 active torsions:
REMARK  status: ('A' for Active; 'I' for Inactive)
REMARK    1  A    between atoms: O_2  and  C_17
REMARK    2  A    between atoms: N_6  and  C_22
REMARK    3  A    between atoms: C_7  and  C_12
REMARK    4  A    between atoms: C_8  and  C_13
REMARK    5  A    between atoms: C_12  and  C_14
REMARK    6  A    between atoms: C_13  and  C_17
REMARK    7  A    between atoms: C_22  and  C_26
REMARK    8  A    between atoms: C_22  and  C_27
REMARK    9  A    between atoms: C_24  and  C_28
REMARK                            x       y       z     vdW  Elec       q    Type
REMARK                         _______ _______ _______ _____ _____    ______ ____
ROOT
ATOM      1  O   UNL     1      -1.783 -10.038  12.209  0.00  0.00    -0.253 OA
ATOM      4  N   UNL     1      -3.096 -11.313  13.634  0.00  0.00    -0.285 N 
ATOM      6  N   UNL     1      -3.973 -10.401  11.636  0.00  0.00    -0.297 N 
ATOM      7  C   UNL     1      -4.839 -11.432  15.391  0.00  0.00    +0.016 C 
ATOM      8  C   UNL     1      -3.715 -11.604  16.446  0.00  0.00    +0.006 C 
ATOM      9  C   UNL     1      -2.383 -10.998  15.965  0.00  0.00    +0.023 C 
ATOM     10  C   UNL     1      -4.355 -11.960  14.030  0.00  0.00    +0.113 C 
ATOM     11  C   UNL     1      -1.999 -11.517  14.581  0.00  0.00    +0.109 C 
ATOM     15  C   UNL     1      -2.874 -10.551  12.474  0.00  0.00    +0.302 C 
ATOM     29  H   UNL     1      -4.896 -10.687  11.934  0.00  0.00    +0.150 HD
ENDROOT
BRANCH   6  22
ATOM     22  C   UNL     1      -3.906  -9.639  10.409  0.00  0.00    +0.068 C 
ATOM     26  C   UNL     1      -4.820  -8.424  10.490  0.00  0.00    +0.027 C 
ATOM     27  C   UNL     1      -4.257 -10.517   9.215  0.00  0.00    +0.027 C 
ENDBRANCH   6  22
BRANCH   7  12
ATOM     12  C   UNL     1      -5.354  -9.995  15.257  0.00  0.00    +0.061 C 
BRANCH  12  14
ATOM      5  N   UNL     1      -6.729  -9.694  13.310  0.00  0.00    -0.287 NA
ATOM     14  C   UNL     1      -6.698  -9.993  14.566  0.00  0.00    +0.044 C 
ATOM     16  C   UNL     1      -7.907 -10.339  15.357  0.00  0.00    -0.001 A 
ATOM     18  C   UNL     1      -9.050 -10.704  14.633  0.00  0.00    -0.037 A 
ATOM     19  C   UNL     1      -8.974 -10.735  13.135  0.00  0.00    +0.059 C 
ATOM     20  C   UNL     1      -8.040  -9.633  12.654  0.00  0.00    +0.146 C 
ATOM     21  C   UNL     1      -7.928 -10.324  16.752  0.00  0.00    +0.013 A 
ATOM     23  C   UNL     1     -10.209 -11.081  15.317  0.00  0.00    +0.004 A 
ATOM     24  C   UNL     1      -9.095 -10.685  17.426  0.00  0.00    -0.050 A 
ATOM     25  C   UNL     1     -10.231 -11.066  16.711  0.00  0.00    +0.003 A 
ATOM     28  C   UNL     1      -9.127 -10.670  18.918  0.00  0.00    +0.044 C 
ENDBRANCH  12  14
ENDBRANCH   7  12
BRANCH   8  13
ATOM     13  C   UNL     1      -4.092 -11.054  17.821  0.00  0.00    +0.124 C 
BRANCH  13  17
ATOM      3  O   UNL     1      -3.332 -12.171  19.850  0.00  0.00    -0.251 OA
ATOM     17  C   UNL     1      -4.067 -12.127  18.875  0.00  0.00    +0.305 C 
BRANCH  17   2
ATOM      2  O   UNL     1      -5.000 -13.072  18.589  0.00  0.00    -0.481 OA
ATOM     30  H   UNL     1      -5.610 -12.779  17.879  0.00  0.00    +0.295 HD
ENDBRANCH  17   2
ENDBRANCH  13  17
ENDBRANCH   8  13
TORSDOF 6
ENDMDL
MODEL 5
REMARK VINA RESULT:      -5.8      1.953      3.514
REMARK  Name = 51136741
REMARK  9 active torsions:
REMARK  status: ('A' for Active; 'I' for Inactive)
REMARK    1  A    between atoms: O_2  and  C_17
REMARK    2  A    between atoms: N_6  and  C_22
REMARK    3  A    between atoms: C_7  and  C_12
REMARK    4  A    between atoms: C_8  and  C_13
REMARK    5  A    between atoms: C_12  and  C_14
REMARK    6  A    between atoms: C_13  and  C_17
REMARK    7  A    between atoms: C_22  and  C_26
REMARK    8  A    between atoms: C_22  and  C_27
REMARK    9  A    between atoms: C_24  and  C_28
REMARK                            x       y       z     vdW  Elec       q    Type
REMARK                         _______ _______ _______ _____ _____    ______ ____
ROOT
ATOM      1  O   UNL     1     -10.549 -10.830  16.990  0.00  0.00    -0.253 OA
ATOM      4  N   UNL     1      -8.382 -10.281  17.610  0.00  0.00    -0.285 N 
ATOM      6  N   UNL     1      -9.422  -9.272  15.741  0.00  0.00    -0.297 N 
ATOM      7  C   UNL     1      -5.940 -10.502  17.249  0.00  0.00    +0.016 C 
ATOM      8  C   UNL     1      -5.898 -11.531  18.410  0.00  0.00    +0.006 C 
ATOM      9  C   UNL     1      -7.258 -12.226  18.607  0.00  0.00    +0.023 C 
ATOM     10  C   UNL     1      -7.121  -9.539  17.457  0.00  0.00    +0.113 C 
ATOM     11  C   UNL     1      -8.391 -11.210  18.740  0.00  0.00    +0.109 C 
ATOM     15  C   UNL     1      -9.522 -10.171  16.796  0.00  0.00    +0.302 C 
ATOM     29  H   UNL     1      -8.534  -8.857  15.496  0.00  0.00    +0.150 HD
ENDROOT
BRANCH   6  22
ATOM     22  C   UNL     1     -10.508  -9.053  14.811  0.00  0.00    +0.068 C 
ATOM     26  C   UNL     1     -10.106  -9.504  13.413  0.00  0.00    +0.027 C 
ATOM     27  C   UNL     1     -10.932  -7.590  14.819  0.00  0.00    +0.027 C 
ENDBRANCH   6  22
BRANCH   7  12
ATOM     12  C   UNL     1      -6.002 -11.135  15.856  0.00  0.00    +0.061 C 
BRANCH  12  14
ATOM      5  N   UNL     1      -3.614 -10.921  15.708  0.00  0.00    -0.287 NA
ATOM     14  C   UNL     1      -4.743 -10.813  15.087  0.00  0.00    +0.044 C 
ATOM     16  C   UNL     1      -4.859 -10.399  13.666  0.00  0.00    -0.001 A 
ATOM     18  C   UNL     1      -3.698 -10.485  12.887  0.00  0.00    -0.037 A 
ATOM     19  C   UNL     1      -2.439 -10.995  13.525  0.00  0.00    +0.059 C 
ATOM     20  C   UNL     1      -2.396 -10.551  14.980  0.00  0.00    +0.146 C 
ATOM     21  C   UNL     1      -6.057  -9.956  13.104  0.00  0.00    +0.013 A 
ATOM     23  C   UNL     1      -3.749 -10.149  11.531  0.00  0.00    +0.004 A 
ATOM     24  C   UNL     1      -6.095  -9.606  11.753  0.00  0.00    -0.050 A 
ATOM     25  C   UNL     1      -4.946  -9.706  10.969  0.00  0.00    +0.003 A 
ATOM     28  C   UNL     1      -7.371  -9.130  11.144  0.00  0.00    +0.044 C 
ENDBRANCH  12  14
ENDBRANCH   7  12
BRANCH   8  13
ATOM     13  C   UNL     1      -4.782 -12.564  18.256  0.00  0.00    +0.124 C 
BRANCH  13  17
ATOM      3  O   UNL     1      -3.414 -12.441  20.269  0.00  0.00    -0.251 OA
ATOM     17  C   UNL     1      -3.576 -12.207  19.081  0.00  0.00    +0.305 C 
BRANCH  17   2
ATOM      2  O   UNL     1      -2.662 -11.570  18.304  0.00  0.00    -0.481 OA
ATOM     30  H   UNL     1      -2.070 -10.995  18.834  0.00  0.00    +0.295 HD
ENDBRANCH  17   2
ENDBRANCH  13  17
ENDBRANCH   8  13
TORSDOF 6
ENDMDL
MODEL 6
REMARK VINA RESULT:      -5.8     27.617     30.378
REMARK  Name = 51136741
REMARK  9 active torsions:
REMARK  status: ('A' for Active; 'I' for Inactive)
REMARK    1  A    between atoms: O_2  and  C_17
REMARK    2  A    between atoms: N_6  and  C_22
REMARK    3  A    between atoms: C_7  and  C_12
REMARK    4  A    between atoms: C_8  and  C_13
REMARK    5  A    between atoms: C_12  and  C_14
REMARK    6  A    between atoms: C_13  and  C_17
REMARK    7  A    between atoms: C_22  and  C_26
REMARK    8  A    between atoms: C_22  and  C_27
REMARK    9  A    between atoms: C_24  and  C_28
REMARK                            x       y       z     vdW  Elec       q    Type
REMARK                         _______ _______ _______ _____ _____    ______ ____
ROOT
ATOM      1  O   UNL     1      13.894  14.064  21.681  0.00  0.00    -0.253 OA
ATOM      4  N   UNL     1      13.221  12.107  20.633  0.00  0.00    -0.285 N 
ATOM      6  N   UNL     1      13.993  12.105  22.869  0.00  0.00    -0.297 N 
ATOM      7  C   UNL     1      13.813   9.987  19.493  0.00  0.00    +0.016 C 
ATOM      8  C   UNL     1      13.540  10.683  18.134  0.00  0.00    +0.006 C 
ATOM      9  C   UNL     1      13.717  12.209  18.228  0.00  0.00    +0.023 C 
ATOM     10  C   UNL     1      12.974  10.658  20.594  0.00  0.00    +0.113 C 
ATOM     11  C   UNL     1      12.907  12.797  19.382  0.00  0.00    +0.109 C 
ATOM     15  C   UNL     1      13.712  12.843  21.725  0.00  0.00    +0.302 C 
ATOM     29  H   UNL     1      13.992  11.095  22.847  0.00  0.00    +0.150 HD
ENDROOT
BRANCH   6  22
ATOM     22  C   UNL     1      14.511  12.719  24.071  0.00  0.00    +0.068 C 
ATOM     26  C   UNL     1      15.965  12.318  24.285  0.00  0.00    +0.027 C 
ATOM     27  C   UNL     1      13.652  12.347  25.274  0.00  0.00    +0.027 C 
ENDBRANCH   6  22
BRANCH   7  12
ATOM     12  C   UNL     1      15.292   9.954  19.891  0.00  0.00    +0.061 C 
BRANCH  12  14
ATOM      5  N   UNL     1      14.989   7.596  19.546  0.00  0.00    -0.287 NA
ATOM     14  C   UNL     1      15.762   8.523  20.007  0.00  0.00    +0.044 C 
ATOM     16  C   UNL     1      17.080   8.254  20.635  0.00  0.00    -0.001 A 
ATOM     18  C   UNL     1      17.653   7.000  20.384  0.00  0.00    -0.037 A 
ATOM     19  C   UNL     1      16.917   6.035  19.502  0.00  0.00    +0.059 C 
ATOM     20  C   UNL     1      15.418   6.203  19.712  0.00  0.00    +0.146 C 
ATOM     21  C   UNL     1      17.746   9.190  21.427  0.00  0.00    +0.013 A 
ATOM     23  C   UNL     1      18.912   6.698  20.911  0.00  0.00    +0.004 A 
ATOM     24  C   UNL     1      18.995   8.873  21.964  0.00  0.00    -0.050 A 
ATOM     25  C   UNL     1      19.578   7.633  21.704  0.00  0.00    +0.003 A 
ATOM     28  C   UNL     1      19.713   9.867  22.813  0.00  0.00    +0.044 C 
ENDBRANCH  12  14
ENDBRANCH   7  12
BRANCH   8  13
ATOM     13  C   UNL     1      14.376  10.112  16.988  0.00  0.00    +0.124 C 
BRANCH  13  17
ATOM      3  O   UNL     1      12.853   9.257  15.288  0.00  0.00    -0.251 OA
ATOM     17  C   UNL     1      13.621   9.063  16.219  0.00  0.00    +0.305 C 
BRANCH  17   2
ATOM      2  O   UNL     1      13.917   7.833  16.711  0.00  0.00    -0.481 OA
ATOM     30  H   UNL     1      13.190   7.193  16.555  0.00  0.00    +0.295 HD
ENDBRANCH  17   2
ENDBRANCH  13  17
ENDBRANCH   8  13
TORSDOF 6
ENDMDL
MODEL 7
REMARK VINA RESULT:      -5.8      1.816      5.387
REMARK  Name = 51136741
REMARK  9 active torsions:
REMARK  status: ('A' for Active; 'I' for Inactive)
REMARK    1  A    between atoms: O_2  and  C_17
REMARK    2  A    between atoms: N_6  and  C_22
REMARK    3  A    between atoms: C_7  and  C_12
REMARK    4  A    between atoms: C_8  and  C_13
REMARK    5  A    between atoms: C_12  and  C_14
REMARK    6  A    between atoms: C_13  and  C_17
REMARK    7  A    between atoms: C_22  and  C_26
REMARK    8  A    between atoms: C_22  and  C_27
REMARK    9  A    between atoms: C_24  and  C_28
REMARK                            x       y       z     vdW  Elec       q    Type
REMARK                         _______ _______ _______ _____ _____    ______ ____
ROOT
ATOM      1  O   UNL     1      -2.569 -10.292  12.900  0.00  0.00    -0.253 OA
ATOM      4  N   UNL     1      -3.971 -11.358  14.410  0.00  0.00    -0.285 N 
ATOM      6  N   UNL     1      -4.792 -10.484  12.372  0.00  0.00    -0.297 N 
ATOM      7  C   UNL     1      -5.691 -11.216  16.189  0.00  0.00    +0.016 C 
ATOM      8  C   UNL     1      -4.571 -11.430  17.240  0.00  0.00    +0.006 C 
ATOM      9  C   UNL     1      -3.197 -10.978  16.712  0.00  0.00    +0.023 C 
ATOM     10  C   UNL     1      -5.278 -11.863  14.856  0.00  0.00    +0.113 C 
ATOM     11  C   UNL     1      -2.883 -11.608  15.356  0.00  0.00    +0.109 C 
ATOM     15  C   UNL     1      -3.699 -10.687  13.205  0.00  0.00    +0.302 C 
ATOM     29  H   UNL     1      -5.733 -10.667  12.695  0.00  0.00    +0.150 HD
ENDROOT
BRANCH   6  22
ATOM     22  C   UNL     1      -4.675  -9.802  11.102  0.00  0.00    +0.068 C 
ATOM     26  C   UNL     1      -5.544  -8.552  11.090  0.00  0.00    +0.027 C 
ATOM     27  C   UNL     1      -5.038 -10.739   9.957  0.00  0.00    +0.027 C 
ENDBRANCH   6  22
BRANCH   7  12
ATOM     12  C   UNL     1      -6.075  -9.748  15.976  0.00  0.00    +0.061 C 
BRANCH  12  14
ATOM      5  N   UNL     1      -7.907  -9.405  17.492  0.00  0.00    -0.287 NA
ATOM     14  C   UNL     1      -7.545  -9.554  16.260  0.00  0.00    +0.044 C 
ATOM     16  C   UNL     1      -8.497  -9.538  15.120  0.00  0.00    -0.001 A 
ATOM     18  C   UNL     1      -9.760  -8.982  15.360  0.00  0.00    -0.037 A 
ATOM     19  C   UNL     1     -10.058  -8.436  16.725  0.00  0.00    +0.059 C 
ATOM     20  C   UNL     1      -9.341  -9.277  17.772  0.00  0.00    +0.146 C 
ATOM     21  C   UNL     1      -8.170 -10.032  13.856  0.00  0.00    +0.013 A 
ATOM     23  C   UNL     1     -10.688  -8.899  14.318  0.00  0.00    +0.004 A 
ATOM     24  C   UNL     1      -9.109  -9.960  12.826  0.00  0.00    -0.050 A 
ATOM     25  C   UNL     1     -10.362  -9.393  13.055  0.00  0.00    +0.003 A 
ATOM     28  C   UNL     1      -8.769 -10.488  11.472  0.00  0.00    +0.044 C 
ENDBRANCH  12  14
ENDBRANCH   7  12
BRANCH   8  13
ATOM     13  C   UNL     1      -4.875 -10.771  18.585  0.00  0.00    +0.124 C 
BRANCH  13  17
ATOM      3  O   UNL     1      -6.337 -11.314  20.458  0.00  0.00    -0.251 OA
ATOM     17  C   UNL     1      -5.724 -11.655  19.458  0.00  0.00    +0.305 C 
BRANCH  17   2
ATOM      2  O   UNL     1      -5.718 -12.922  18.969  0.00  0.00    -0.481 OA
ATOM     30  H   UNL     1      -5.226 -12.985  18.123  0.00  0.00    +0.295 HD
ENDBRANCH  17   2
ENDBRANCH  13  17
ENDBRANCH   8  13
TORSDOF 6
ENDMDL
MODEL 8
REMARK VINA RESULT:      -5.7     20.311     22.381
REMARK  Name = 51136741
REMARK  9 active torsions:
REMARK  status: ('A' for Active; 'I' for Inactive)
REMARK    1  A    between atoms: O_2  and  C_17
REMARK    2  A    between atoms: N_6  and  C_22
REMARK    3  A    between atoms: C_7  and  C_12
REMARK    4  A    between atoms: C_8  and  C_13
REMARK    5  A    between atoms: C_12  and  C_14
REMARK    6  A    between atoms: C_13  and  C_17
REMARK    7  A    between atoms: C_22  and  C_26
REMARK    8  A    between atoms: C_22  and  C_27
REMARK    9  A    between atoms: C_24  and  C_28
REMARK                            x       y       z     vdW  Elec       q    Type
REMARK                         _______ _______ _______ _____ _____    ______ ____
ROOT
ATOM      1  O   UNL     1      -5.947 -10.278  39.003  0.00  0.00    -0.253 OA
ATOM      4  N   UNL     1      -6.761 -11.041  36.970  0.00  0.00    -0.285 N 
ATOM      6  N   UNL     1      -8.019  -9.568  38.326  0.00  0.00    -0.297 N 
ATOM      7  C   UNL     1      -8.250 -12.568  35.706  0.00  0.00    +0.016 C 
ATOM      8  C   UNL     1      -7.025 -13.483  35.439  0.00  0.00    +0.006 C 
ATOM      9  C   UNL     1      -5.939 -13.313  36.517  0.00  0.00    +0.023 C 
ATOM     10  C   UNL     1      -7.776 -11.119  35.908  0.00  0.00    +0.113 C 
ATOM     11  C   UNL     1      -5.566 -11.844  36.709  0.00  0.00    +0.109 C 
ATOM     15  C   UNL     1      -6.846 -10.293  38.156  0.00  0.00    +0.302 C 
ATOM     29  H   UNL     1      -8.809  -9.708  37.711  0.00  0.00    +0.150 HD
ENDROOT
BRANCH   6  22
ATOM     22  C   UNL     1      -8.259  -8.756  39.498  0.00  0.00    +0.068 C 
ATOM     26  C   UNL     1      -9.216  -9.465  40.447  0.00  0.00    +0.027 C 
ATOM     27  C   UNL     1      -8.790  -7.385  39.099  0.00  0.00    +0.027 C 
ENDBRANCH   6  22
BRANCH   7  12
ATOM     12  C   UNL     1      -9.119 -13.017  36.886  0.00  0.00    +0.061 C 
BRANCH  12  14
ATOM      5  N   UNL     1     -10.665 -11.407  37.773  0.00  0.00    -0.287 NA
ATOM     14  C   UNL     1     -10.442 -12.289  36.856  0.00  0.00    +0.044 C 
ATOM     16  C   UNL     1     -11.412 -12.615  35.779  0.00  0.00    -0.001 A 
ATOM     18  C   UNL     1     -12.430 -11.681  35.545  0.00  0.00    -0.037 A 
ATOM     19  C   UNL     1     -12.465 -10.430  36.373  0.00  0.00    +0.059 C 
ATOM     20  C   UNL     1     -11.973 -10.743  37.779  0.00  0.00    +0.146 C 
ATOM     21  C   UNL     1     -11.328 -13.777  35.012  0.00  0.00    +0.013 A 
ATOM     23  C   UNL     1     -13.352 -11.907  34.519  0.00  0.00    +0.004 A 
ATOM     24  C   UNL     1     -12.263 -14.003  34.000  0.00  0.00    -0.050 A 
ATOM     25  C   UNL     1     -13.269 -13.070  33.752  0.00  0.00    +0.003 A 
ATOM     28  C   UNL     1     -12.182 -15.244  33.177  0.00  0.00    +0.044 C 
ENDBRANCH  12  14
ENDBRANCH   7  12
BRANCH   8  13
ATOM     13  C   UNL     1      -7.401 -14.956  35.279  0.00  0.00    +0.124 C 
BRANCH  13  17
ATOM      3  O   UNL     1      -6.815 -16.728  33.711  0.00  0.00    -0.251 OA
ATOM     17  C   UNL     1      -6.802 -15.550  34.033  0.00  0.00    +0.305 C 
BRANCH  17   2
ATOM      2  O   UNL     1      -6.228 -14.569  33.289  0.00  0.00    -0.481 OA
ATOM     30  H   UNL     1      -5.392 -14.868  32.874  0.00  0.00    +0.295 HD
ENDBRANCH  17   2
ENDBRANCH  13  17
ENDBRANCH   8  13
TORSDOF 6
ENDMDL
MODEL 9
REMARK VINA RESULT:      -5.7     27.650     30.766
REMARK  Name = 51136741
REMARK  9 active torsions:
REMARK  status: ('A' for Active; 'I' for Inactive)
REMARK    1  A    between atoms: O_2  and  C_17
REMARK    2  A    between atoms: N_6  and  C_22
REMARK    3  A    between atoms: C_7  and  C_12
REMARK    4  A    between atoms: C_8  and  C_13
REMARK    5  A    between atoms: C_12  and  C_14
REMARK    6  A    between atoms: C_13  and  C_17
REMARK    7  A    between atoms: C_22  and  C_26
REMARK    8  A    between atoms: C_22  and  C_27
REMARK    9  A    between atoms: C_24  and  C_28
REMARK                            x       y       z     vdW  Elec       q    Type
REMARK                         _______ _______ _______ _____ _____    ______ ____
ROOT
ATOM      1  O   UNL     1      14.870  14.534  21.665  0.00  0.00    -0.253 OA
ATOM      4  N   UNL     1      14.071  12.453  22.306  0.00  0.00    -0.285 N 
ATOM      6  N   UNL     1      16.383  12.948  22.337  0.00  0.00    -0.297 N 
ATOM      7  C   UNL     1      13.686  10.062  21.779  0.00  0.00    +0.016 C 
ATOM      8  C   UNL     1      12.210  10.409  21.449  0.00  0.00    +0.006 C 
ATOM      9  C   UNL     1      12.050  11.882  21.029  0.00  0.00    +0.023 C 
ATOM     10  C   UNL     1      14.239  11.076  22.795  0.00  0.00    +0.113 C 
ATOM     11  C   UNL     1      12.679  12.827  22.051  0.00  0.00    +0.109 C 
ATOM     15  C   UNL     1      15.092  13.391  22.077  0.00  0.00    +0.302 C 
ATOM     29  H   UNL     1      16.570  11.971  22.521  0.00  0.00    +0.150 HD
ENDROOT
BRANCH   6  22
ATOM     22  C   UNL     1      17.540  13.793  22.143  0.00  0.00    +0.068 C 
ATOM     26  C   UNL     1      18.293  13.379  20.886  0.00  0.00    +0.027 C 
ATOM     27  C   UNL     1      18.445  13.751  23.368  0.00  0.00    +0.027 C 
ENDBRANCH   6  22
BRANCH   7  12
ATOM     12  C   UNL     1      14.598   9.981  20.551  0.00  0.00    +0.061 C 
BRANCH  12  14
ATOM      5  N   UNL     1      14.523   7.626  20.080  0.00  0.00    -0.287 NA
ATOM     14  C   UNL     1      15.247   8.618  20.481  0.00  0.00    +0.044 C 
ATOM     16  C   UNL     1      16.675   8.487  20.866  0.00  0.00    -0.001 A 
ATOM     18  C   UNL     1      17.342   7.334  20.432  0.00  0.00    -0.037 A 
ATOM     19  C   UNL     1      16.586   6.332  19.610  0.00  0.00    +0.059 C 
ATOM     20  C   UNL     1      15.135   6.294  20.070  0.00  0.00    +0.146 C 
ATOM     21  C   UNL     1      17.350   9.456  21.610  0.00  0.00    +0.013 A 
ATOM     23  C   UNL     1      18.698   7.168  20.726  0.00  0.00    +0.004 A 
ATOM     24  C   UNL     1      18.700   9.275  21.913  0.00  0.00    -0.050 A 
ATOM     25  C   UNL     1      19.373   8.136  21.470  0.00  0.00    +0.003 A 
ATOM     28  C   UNL     1      19.428  10.304  22.709  0.00  0.00    +0.044 C 
ENDBRANCH  12  14
ENDBRANCH   7  12
BRANCH   8  13
ATOM     13  C   UNL     1      11.595   9.480  20.403  0.00  0.00    +0.124 C 
BRANCH  13  17
ATOM      3  O   UNL     1      11.098   7.116  20.727  0.00  0.00    -0.251 OA
ATOM     17  C   UNL     1      10.936   8.286  21.038  0.00  0.00    +0.305 C 
BRANCH  17   2
ATOM      2  O   UNL     1      10.113   8.696  22.037  0.00  0.00    -0.481 OA
ATOM     30  H   UNL     1       9.168   8.628  21.782  0.00  0.00    +0.295 HD
ENDBRANCH  17   2
ENDBRANCH  13  17
ENDBRANCH   8  13
TORSDOF 6
ENDMDL
MODEL 10
REMARK VINA RESULT:      -5.6      2.076      4.660
REMARK  Name = 51136741
REMARK  9 active torsions:
REMARK  status: ('A' for Active; 'I' for Inactive)
REMARK    1  A    between atoms: O_2  and  C_17
REMARK    2  A    between atoms: N_6  and  C_22
REMARK    3  A    between atoms: C_7  and  C_12
REMARK    4  A    between atoms: C_8  and  C_13
REMARK    5  A    between atoms: C_12  and  C_14
REMARK    6  A    between atoms: C_13  and  C_17
REMARK    7  A    between atoms: C_22  and  C_26
REMARK    8  A    between atoms: C_22  and  C_27
REMARK    9  A    between atoms: C_24  and  C_28
REMARK                            x       y       z     vdW  Elec       q    Type
REMARK                         _______ _______ _______ _____ _____    ______ ____
ROOT
ATOM      1  O   UNL     1     -10.129 -11.495  13.248  0.00  0.00    -0.253 OA
ATOM      4  N   UNL     1      -8.765 -10.537  14.860  0.00  0.00    -0.285 N 
ATOM      6  N   UNL     1      -8.374 -10.193  12.553  0.00  0.00    -0.297 N 
ATOM      7  C   UNL     1      -6.634 -10.542  16.126  0.00  0.00    +0.016 C 
ATOM      8  C   UNL     1      -7.379 -11.215  17.309  0.00  0.00    +0.006 C 
ATOM      9  C   UNL     1      -8.617 -11.996  16.833  0.00  0.00    +0.023 C 
ATOM     10  C   UNL     1      -7.628  -9.712  15.296  0.00  0.00    +0.113 C 
ATOM     11  C   UNL     1      -9.525 -11.130  15.961  0.00  0.00    +0.109 C 
ATOM     15  C   UNL     1      -9.158 -10.788  13.535  0.00  0.00    +0.302 C 
ATOM     29  H   UNL     1      -7.496  -9.751  12.788  0.00  0.00    +0.150 HD
ENDROOT
BRANCH   6  22
ATOM     22  C   UNL     1      -8.646 -10.364  11.143  0.00  0.00    +0.068 C 
ATOM     26  C   UNL     1      -7.823 -11.516  10.581  0.00  0.00    +0.027 C 
ATOM     27  C   UNL     1      -8.375  -9.070  10.387  0.00  0.00    +0.027 C 
ENDBRANCH   6  22
BRANCH   7  12
ATOM     12  C   UNL     1      -5.872 -11.522  15.228  0.00  0.00    +0.061 C 
BRANCH  12  14
ATOM      5  N   UNL     1      -3.738 -11.182  16.278  0.00  0.00    -0.287 NA
ATOM     14  C   UNL     1      -4.411 -11.143  15.175  0.00  0.00    +0.044 C 
ATOM     16  C   UNL     1      -3.822 -10.753  13.869  0.00  0.00    -0.001 A 
ATOM     18  C   UNL     1      -2.424 -10.787  13.773  0.00  0.00    -0.037 A 
ATOM     19  C   UNL     1      -1.630 -11.220  14.970  0.00  0.00    +0.059 C 
ATOM     20  C   UNL     1      -2.335 -10.756  16.237  0.00  0.00    +0.146 C 
ATOM     21  C   UNL     1      -4.598 -10.382  12.770  0.00  0.00    +0.013 A 
ATOM     23  C   UNL     1      -1.808 -10.471  12.559  0.00  0.00    +0.004 A 
ATOM     24  C   UNL     1      -3.973 -10.052  11.566  0.00  0.00    -0.050 A 
ATOM     25  C   UNL     1      -2.583 -10.100  11.460  0.00  0.00    +0.003 A 
ATOM     28  C   UNL     1      -4.794  -9.653  10.388  0.00  0.00    +0.044 C 
ENDBRANCH  12  14
ENDBRANCH   7  12
BRANCH   8  13
ATOM     13  C   UNL     1      -6.473 -12.106  18.159  0.00  0.00    +0.124 C 
BRANCH  13  17
ATOM      3  O   UNL     1      -6.385 -10.668  20.126  0.00  0.00    -0.251 OA
ATOM     17  C   UNL     1      -5.819 -11.332  19.271  0.00  0.00    +0.305 C 
BRANCH  17   2
ATOM      2  O   UNL     1      -4.470 -11.476  19.197  0.00  0.00    -0.481 OA
ATOM     30  H   UNL     1      -4.118 -12.010  19.940  0.00  0.00    +0.295 HD
ENDBRANCH  17   2
ENDBRANCH  13  17
ENDBRANCH   8  13
TORSDOF 6
ENDMDL
