MODEL 1
REMARK VINA RESULT:      -7.2      0.000      0.000
REMARK  Name = 11913295
REMARK  6 active torsions:
REMARK  status: ('A' for Active; 'I' for Inactive)
REMARK    1  A    between atoms: S_1  and  N_7
REMARK    2  A    between atoms: S_1  and  C_19
REMARK    3  A    between atoms: N_7  and  C_14
REMARK    4  A    between atoms: N_8  and  C_15
REMARK    5  A    between atoms: C_20  and  C_29
REMARK    6  A    between atoms: C_22  and  C_28
REMARK                            x       y       z     vdW  Elec       q    Type
REMARK                         _______ _______ _______ _____ _____    ______ ____
ROOT
ATOM      2  O   UNL     1      17.725   5.706  20.244  0.00  0.00    -0.370 OA
ATOM      3  O   UNL     1      17.055   8.669  20.979  0.00  0.00    -0.370 OA
ATOM     12  C   UNL     1      17.471   7.531  21.751  0.00  0.00    +0.170 C 
ATOM     13  C   UNL     1      16.794   6.311  21.158  0.00  0.00    +0.171 C 
ATOM     14  C   UNL     1      18.944   7.272  21.547  0.00  0.00    +0.133 C 
ATOM     15  C   UNL     1      15.611   6.873  20.404  0.00  0.00    +0.130 C 
ATOM     16  C   UNL     1      18.964   6.430  20.285  0.00  0.00    +0.183 C 
ATOM     17  C   UNL     1      16.105   8.247  19.989  0.00  0.00    +0.185 C 
ENDROOT
BRANCH  15   8
ATOM      8  N   UNL     1      14.474   6.997  21.289  0.00  0.00    -0.306 N 
ATOM      9  N   UNL     1      13.095   7.827  19.583  0.00  0.00    -0.211 NA
ATOM     10  N   UNL     1      12.252   7.529  21.820  0.00  0.00    -0.223 NA
ATOM     18  C   UNL     1      13.237   7.465  20.885  0.00  0.00    +0.216 A 
ATOM     22  C   UNL     1      11.875   8.278  19.223  0.00  0.00    +0.111 A 
ATOM     23  C   UNL     1      11.058   7.989  21.392  0.00  0.00    +0.116 A 
ATOM     26  C   UNL     1      10.809   8.381  20.093  0.00  0.00    +0.051 A 
ATOM     34  H   UNL     1      14.554   6.680  22.250  0.00  0.00    +0.149 HD
BRANCH  22  28
ATOM      6  O   UNL     1      10.541   8.423  17.279  0.00  0.00    -0.461 OA
ATOM     28  C   UNL     1      11.756   8.653  17.840  0.00  0.00    +0.153 A 
ATOM     30  C   UNL     1      12.617   9.209  16.924  0.00  0.00    +0.051 A 
ATOM     31  C   UNL     1      11.884   9.328  15.720  0.00  0.00    +0.042 A 
ATOM     32  C   UNL     1      10.627   8.836  15.987  0.00  0.00    +0.196 A 
ENDBRANCH  22  28
ENDBRANCH  15   8
BRANCH  14   7
ATOM      7  N   UNL     1      19.473   6.479  22.683  0.00  0.00    -0.182 NA
ATOM     33  H   UNL     1      18.912   5.684  23.013  0.00  0.00    +0.148 HD
BRANCH   7   1
ATOM      1  S   UNL     1      20.735   7.102  23.632  0.00  0.00    +0.060 S 
ATOM      4  O   UNL     1      21.213   6.073  24.537  0.00  0.00    -0.153 OA
ATOM      5  O   UNL     1      20.337   8.397  24.147  0.00  0.00    -0.153 OA
BRANCH   1  19
ATOM     19  C   UNL     1      21.992   7.392  22.424  0.00  0.00    +0.123 A 
ATOM     20  C   UNL     1      22.500   6.358  21.650  0.00  0.00    +0.078 A 
ATOM     21  C   UNL     1      22.454   8.692  22.274  0.00  0.00    +0.030 A 
ATOM     24  C   UNL     1      23.492   6.631  20.708  0.00  0.00    +0.021 A 
ATOM     25  C   UNL     1      23.445   8.964  21.332  0.00  0.00    +0.002 A 
ATOM     27  C   UNL     1      23.964   7.933  20.547  0.00  0.00    +0.001 A 
BRANCH  20  29
ATOM     11  N   UNL     1      21.667   3.918  21.898  0.00  0.00    -0.191 NA
ATOM     29  C   UNL     1      22.040   5.010  21.787  0.00  0.00    +0.101 C 
ENDBRANCH  20  29
ENDBRANCH   1  19
ENDBRANCH   7   1
ENDBRANCH  14   7
TORSDOF 6
ENDMDL
MODEL 2
REMARK VINA RESULT:      -7.2      6.592      9.330
REMARK  Name = 11913295
REMARK  6 active torsions:
REMARK  status: ('A' for Active; 'I' for Inactive)
REMARK    1  A    between atoms: S_1  and  N_7
REMARK    2  A    between atoms: S_1  and  C_19
REMARK    3  A    between atoms: N_7  and  C_14
REMARK    4  A    between atoms: N_8  and  C_15
REMARK    5  A    between atoms: C_20  and  C_29
REMARK    6  A    between atoms: C_22  and  C_28
REMARK                            x       y       z     vdW  Elec       q    Type
REMARK                         _______ _______ _______ _____ _____    ______ ____
ROOT
ATOM      2  O   UNL     1      13.217   9.434  15.214  0.00  0.00    -0.370 OA
ATOM      3  O   UNL     1      15.698  11.130  16.074  0.00  0.00    -0.370 OA
ATOM     12  C   UNL     1      14.373  10.976  16.610  0.00  0.00    +0.170 C 
ATOM     13  C   UNL     1      13.423  10.839  15.436  0.00  0.00    +0.171 C 
ATOM     14  C   UNL     1      14.254   9.659  17.337  0.00  0.00    +0.133 C 
ATOM     15  C   UNL     1      14.177  11.447  14.277  0.00  0.00    +0.130 C 
ATOM     16  C   UNL     1      13.920   8.689  16.220  0.00  0.00    +0.183 C 
ATOM     17  C   UNL     1      15.625  11.171  14.641  0.00  0.00    +0.185 C 
ENDROOT
BRANCH  15   8
ATOM      8  N   UNL     1      13.937  12.873  14.224  0.00  0.00    -0.306 N 
ATOM      9  N   UNL     1      12.281  12.645  12.578  0.00  0.00    -0.211 NA
ATOM     10  N   UNL     1      12.879  14.814  13.440  0.00  0.00    -0.223 NA
ATOM     18  C   UNL     1      13.005  13.462  13.389  0.00  0.00    +0.216 A 
ATOM     22  C   UNL     1      11.380  13.252  11.778  0.00  0.00    +0.111 A 
ATOM     23  C   UNL     1      11.959  15.355  12.614  0.00  0.00    +0.116 A 
ATOM     26  C   UNL     1      11.173  14.617  11.753  0.00  0.00    +0.051 A 
ATOM     34  H   UNL     1      14.434  13.486  14.861  0.00  0.00    +0.149 HD
BRANCH  22  28
ATOM      6  O   UNL     1       9.288  12.362  11.138  0.00  0.00    -0.461 OA
ATOM     28  C   UNL     1      10.629  12.363  10.932  0.00  0.00    +0.153 A 
ATOM     30  C   UNL     1      10.970  11.484   9.932  0.00  0.00    +0.051 A 
ATOM     31  C   UNL     1       9.757  10.904   9.493  0.00  0.00    +0.042 A 
ATOM     32  C   UNL     1       8.763  11.470  10.257  0.00  0.00    +0.196 A 
ENDBRANCH  22  28
ENDBRANCH  15   8
BRANCH  14   7
ATOM      7  N   UNL     1      13.127   9.720  18.298  0.00  0.00    -0.182 NA
ATOM     33  H   UNL     1      12.819  10.647  18.615  0.00  0.00    +0.148 HD
BRANCH   7   1
ATOM      1  S   UNL     1      12.645   8.317  19.125  0.00  0.00    +0.060 S 
ATOM      4  O   UNL     1      13.819   7.553  19.505  0.00  0.00    -0.153 OA
ATOM      5  O   UNL     1      11.570   7.684  18.387  0.00  0.00    -0.153 OA
BRANCH   1  19
ATOM     19  C   UNL     1      11.933   8.989  20.597  0.00  0.00    +0.123 A 
ATOM     20  C   UNL     1      11.325   8.173  21.540  0.00  0.00    +0.078 A 
ATOM     21  C   UNL     1      12.002  10.363  20.777  0.00  0.00    +0.030 A 
ATOM     24  C   UNL     1      10.775   8.744  22.688  0.00  0.00    +0.021 A 
ATOM     25  C   UNL     1      11.453  10.933  21.925  0.00  0.00    +0.002 A 
ATOM     27  C   UNL     1      10.839  10.124  22.882  0.00  0.00    +0.001 A 
BRANCH  20  29
ATOM     11  N   UNL     1      11.171   5.604  21.242  0.00  0.00    -0.191 NA
ATOM     29  C   UNL     1      11.241   6.754  21.376  0.00  0.00    +0.101 C 
ENDBRANCH  20  29
ENDBRANCH   1  19
ENDBRANCH   7   1
ENDBRANCH  14   7
TORSDOF 6
ENDMDL
MODEL 3
REMARK VINA RESULT:      -7.2      1.522      2.134
REMARK  Name = 11913295
REMARK  6 active torsions:
REMARK  status: ('A' for Active; 'I' for Inactive)
REMARK    1  A    between atoms: S_1  and  N_7
REMARK    2  A    between atoms: S_1  and  C_19
REMARK    3  A    between atoms: N_7  and  C_14
REMARK    4  A    between atoms: N_8  and  C_15
REMARK    5  A    between atoms: C_20  and  C_29
REMARK    6  A    between atoms: C_22  and  C_28
REMARK                            x       y       z     vdW  Elec       q    Type
REMARK                         _______ _______ _______ _____ _____    ______ ____
ROOT
ATOM      2  O   UNL     1      17.812   5.819  20.152  0.00  0.00    -0.370 OA
ATOM      3  O   UNL     1      17.192   8.723  21.129  0.00  0.00    -0.370 OA
ATOM     12  C   UNL     1      17.578   7.515  21.805  0.00  0.00    +0.170 C 
ATOM     13  C   UNL     1      16.884   6.363  21.105  0.00  0.00    +0.171 C 
ATOM     14  C   UNL     1      19.048   7.245  21.592  0.00  0.00    +0.133 C 
ATOM     15  C   UNL     1      15.720   7.010  20.392  0.00  0.00    +0.130 C 
ATOM     16  C   UNL     1      19.065   6.512  20.265  0.00  0.00    +0.183 C 
ATOM     17  C   UNL     1      16.244   8.404  20.098  0.00  0.00    +0.185 C 
ENDROOT
BRANCH  15   8
ATOM      8  N   UNL     1      14.576   7.081  21.274  0.00  0.00    -0.306 N 
ATOM      9  N   UNL     1      13.170   7.870  19.570  0.00  0.00    -0.211 NA
ATOM     10  N   UNL     1      12.333   7.521  21.803  0.00  0.00    -0.223 NA
ATOM     18  C   UNL     1      13.322   7.504  20.870  0.00  0.00    +0.216 A 
ATOM     22  C   UNL     1      11.934   8.275  19.210  0.00  0.00    +0.111 A 
ATOM     23  C   UNL     1      11.123   7.937  21.375  0.00  0.00    +0.116 A 
ATOM     26  C   UNL     1      10.862   8.329  20.078  0.00  0.00    +0.051 A 
ATOM     34  H   UNL     1      14.666   6.761  22.233  0.00  0.00    +0.149 HD
BRANCH  22  28
ATOM      6  O   UNL     1      12.920   9.186  17.267  0.00  0.00    -0.461 OA
ATOM     28  C   UNL     1      11.804   8.656  17.830  0.00  0.00    +0.153 A 
ATOM     30  C   UNL     1      10.776   8.608  16.920  0.00  0.00    +0.051 A 
ATOM     31  C   UNL     1      11.293   9.142  15.717  0.00  0.00    +0.042 A 
ATOM     32  C   UNL     1      12.601   9.479  15.978  0.00  0.00    +0.196 A 
ENDBRANCH  22  28
ENDBRANCH  15   8
BRANCH  14   7
ATOM      7  N   UNL     1      19.550   6.349  22.662  0.00  0.00    -0.182 NA
ATOM     33  H   UNL     1      18.875   5.723  23.117  0.00  0.00    +0.148 HD
BRANCH   7   1
ATOM      1  S   UNL     1      21.070   6.637  23.361  0.00  0.00    +0.060 S 
ATOM      4  O   UNL     1      20.993   6.419  24.794  0.00  0.00    -0.153 OA
ATOM      5  O   UNL     1      21.595   7.885  22.841  0.00  0.00    -0.153 OA
BRANCH   1  19
ATOM     19  C   UNL     1      22.045   5.338  22.664  0.00  0.00    +0.123 A 
ATOM     20  C   UNL     1      23.414   5.272  22.876  0.00  0.00    +0.078 A 
ATOM     21  C   UNL     1      21.392   4.384  21.897  0.00  0.00    +0.030 A 
ATOM     24  C   UNL     1      24.146   4.230  22.307  0.00  0.00    +0.021 A 
ATOM     25  C   UNL     1      22.124   3.342  21.329  0.00  0.00    +0.002 A 
ATOM     27  C   UNL     1      23.502   3.264  21.534  0.00  0.00    +0.001 A 
BRANCH  20  29
ATOM     11  N   UNL     1      24.671   7.034  24.300  0.00  0.00    -0.191 NA
ATOM     29  C   UNL     1      24.109   6.245  23.662  0.00  0.00    +0.101 C 
ENDBRANCH  20  29
ENDBRANCH   1  19
ENDBRANCH   7   1
ENDBRANCH  14   7
TORSDOF 6
ENDMDL
MODEL 4
REMARK VINA RESULT:      -7.1      2.615      3.638
REMARK  Name = 11913295
REMARK  6 active torsions:
REMARK  status: ('A' for Active; 'I' for Inactive)
REMARK    1  A    between atoms: S_1  and  N_7
REMARK    2  A    between atoms: S_1  and  C_19
REMARK    3  A    between atoms: N_7  and  C_14
REMARK    4  A    between atoms: N_8  and  C_15
REMARK    5  A    between atoms: C_20  and  C_29
REMARK    6  A    between atoms: C_22  and  C_28
REMARK                            x       y       z     vdW  Elec       q    Type
REMARK                         _______ _______ _______ _____ _____    ______ ____
ROOT
ATOM      2  O   UNL     1      19.947   6.184  20.212  0.00  0.00    -0.370 OA
ATOM      3  O   UNL     1      19.668   8.281  22.512  0.00  0.00    -0.370 OA
ATOM     12  C   UNL     1      19.761   6.847  22.490  0.00  0.00    +0.170 C 
ATOM     13  C   UNL     1      18.995   6.364  21.273  0.00  0.00    +0.171 C 
ATOM     14  C   UNL     1      21.184   6.420  22.224  0.00  0.00    +0.133 C 
ATOM     15  C   UNL     1      18.058   7.504  20.949  0.00  0.00    +0.130 C 
ATOM     16  C   UNL     1      21.266   6.454  20.710  0.00  0.00    +0.183 C 
ATOM     17  C   UNL     1      18.832   8.718  21.430  0.00  0.00    +0.185 C 
ENDROOT
BRANCH  15   8
ATOM      8  N   UNL     1      16.830   7.364  21.699  0.00  0.00    -0.306 N 
ATOM      9  N   UNL     1      15.527   8.206  19.939  0.00  0.00    -0.211 NA
ATOM     10  N   UNL     1      14.510   7.525  22.015  0.00  0.00    -0.223 NA
ATOM     18  C   UNL     1      15.585   7.709  21.203  0.00  0.00    +0.216 A 
ATOM     22  C   UNL     1      14.298   8.531  19.486  0.00  0.00    +0.111 A 
ATOM     23  C   UNL     1      13.313   7.870  21.499  0.00  0.00    +0.116 A 
ATOM     26  C   UNL     1      13.144   8.382  20.228  0.00  0.00    +0.051 A 
ATOM     34  H   UNL     1      16.855   6.946  22.623  0.00  0.00    +0.149 HD
BRANCH  22  28
ATOM      6  O   UNL     1      13.948   8.156  17.181  0.00  0.00    -0.461 OA
ATOM     28  C   UNL     1      14.269   9.054  18.147  0.00  0.00    +0.153 A 
ATOM     30  C   UNL     1      14.499  10.294  17.602  0.00  0.00    +0.051 A 
ATOM     31  C   UNL     1      14.307  10.149  16.208  0.00  0.00    +0.042 A 
ATOM     32  C   UNL     1      13.973   8.831  16.001  0.00  0.00    +0.196 A 
ENDBRANCH  22  28
ENDBRANCH  15   8
BRANCH  14   7
ATOM      7  N   UNL     1      21.385   5.031  22.702  0.00  0.00    -0.182 NA
ATOM     33  H   UNL     1      20.595   4.380  22.625  0.00  0.00    +0.148 HD
BRANCH   7   1
ATOM      1  S   UNL     1      22.718   4.662  23.687  0.00  0.00    +0.060 S 
ATOM      4  O   UNL     1      22.251   4.138  24.957  0.00  0.00    -0.153 OA
ATOM      5  O   UNL     1      23.646   5.775  23.654  0.00  0.00    -0.153 OA
BRANCH   1  19
ATOM     19  C   UNL     1      23.473   3.336  22.795  0.00  0.00    +0.123 A 
ATOM     20  C   UNL     1      24.580   2.667  23.299  0.00  0.00    +0.078 A 
ATOM     21  C   UNL     1      22.921   2.985  21.572  0.00  0.00    +0.030 A 
ATOM     24  C   UNL     1      25.146   1.626  22.562  0.00  0.00    +0.021 A 
ATOM     25  C   UNL     1      23.486   1.944  20.836  0.00  0.00    +0.002 A 
ATOM     27  C   UNL     1      24.598   1.263  21.331  0.00  0.00    +0.001 A 
BRANCH  20  29
ATOM     11  N   UNL     1      25.643   3.291  25.577  0.00  0.00    -0.191 NA
ATOM     29  C   UNL     1      25.168   3.012  24.557  0.00  0.00    +0.101 C 
ENDBRANCH  20  29
ENDBRANCH   1  19
ENDBRANCH   7   1
ENDBRANCH  14   7
TORSDOF 6
ENDMDL
MODEL 5
REMARK VINA RESULT:      -7.1      2.892      9.936
REMARK  Name = 11913295
REMARK  6 active torsions:
REMARK  status: ('A' for Active; 'I' for Inactive)
REMARK    1  A    between atoms: S_1  and  N_7
REMARK    2  A    between atoms: S_1  and  C_19
REMARK    3  A    between atoms: N_7  and  C_14
REMARK    4  A    between atoms: N_8  and  C_15
REMARK    5  A    between atoms: C_20  and  C_29
REMARK    6  A    between atoms: C_22  and  C_28
REMARK                            x       y       z     vdW  Elec       q    Type
REMARK                         _______ _______ _______ _____ _____    ______ ____
ROOT
ATOM      2  O   UNL     1      15.739   6.763  22.162  0.00  0.00    -0.370 OA
ATOM      3  O   UNL     1      17.443   8.867  20.601  0.00  0.00    -0.370 OA
ATOM     12  C   UNL     1      16.499   7.863  20.194  0.00  0.00    +0.170 C 
ATOM     13  C   UNL     1      16.699   6.662  21.097  0.00  0.00    +0.171 C 
ATOM     14  C   UNL     1      15.091   8.319  20.491  0.00  0.00    +0.133 C 
ATOM     15  C   UNL     1      18.100   6.833  21.637  0.00  0.00    +0.130 C 
ATOM     16  C   UNL     1      14.907   7.910  21.940  0.00  0.00    +0.183 C 
ATOM     17  C   UNL     1      18.267   8.342  21.652  0.00  0.00    +0.185 C 
ENDROOT
BRANCH  15   8
ATOM      8  N   UNL     1      19.055   6.233  20.732  0.00  0.00    -0.306 N 
ATOM      9  N   UNL     1      20.639   5.920  22.435  0.00  0.00    -0.211 NA
ATOM     10  N   UNL     1      21.105   5.238  20.171  0.00  0.00    -0.223 NA
ATOM     18  C   UNL     1      20.304   5.784  21.124  0.00  0.00    +0.216 A 
ATOM     22  C   UNL     1      21.863   5.470  22.782  0.00  0.00    +0.111 A 
ATOM     23  C   UNL     1      22.314   4.809  20.588  0.00  0.00    +0.116 A 
ATOM     26  C   UNL     1      22.751   4.899  21.893  0.00  0.00    +0.051 A 
ATOM     34  H   UNL     1      18.796   6.079  19.763  0.00  0.00    +0.149 HD
BRANCH  22  28
ATOM      6  O   UNL     1      22.267   4.475  24.885  0.00  0.00    -0.461 OA
ATOM     28  C   UNL     1      22.189   5.628  24.174  0.00  0.00    +0.153 A 
ATOM     30  C   UNL     1      22.446   6.713  24.976  0.00  0.00    +0.051 A 
ATOM     31  C   UNL     1      22.700   6.193  26.267  0.00  0.00    +0.042 A 
ATOM     32  C   UNL     1      22.580   4.827  26.161  0.00  0.00    +0.196 A 
ENDBRANCH  22  28
ENDBRANCH  15   8
BRANCH  14   7
ATOM      7  N   UNL     1      14.135   7.572  19.638  0.00  0.00    -0.182 NA
ATOM     33  H   UNL     1      14.426   6.652  19.287  0.00  0.00    +0.148 HD
BRANCH   7   1
ATOM      1  S   UNL     1      12.803   8.377  18.959  0.00  0.00    +0.060 S 
ATOM      4  O   UNL     1      11.868   7.402  18.430  0.00  0.00    -0.153 OA
ATOM      5  O   UNL     1      13.287   9.454  18.118  0.00  0.00    -0.153 OA
BRANCH   1  19
ATOM     19  C   UNL     1      12.065   9.124  20.380  0.00  0.00    +0.123 A 
ATOM     20  C   UNL     1      11.414   8.362  21.339  0.00  0.00    +0.078 A 
ATOM     21  C   UNL     1      12.160  10.503  20.505  0.00  0.00    +0.030 A 
ATOM     24  C   UNL     1      10.844   8.993  22.446  0.00  0.00    +0.021 A 
ATOM     25  C   UNL     1      11.592  11.133  21.611  0.00  0.00    +0.002 A 
ATOM     27  C   UNL     1      10.934  10.378  22.583  0.00  0.00    +0.001 A 
BRANCH  20  29
ATOM     11  N   UNL     1      11.212   5.787  21.143  0.00  0.00    -0.191 NA
ATOM     29  C   UNL     1      11.302   6.940  21.231  0.00  0.00    +0.101 C 
ENDBRANCH  20  29
ENDBRANCH   1  19
ENDBRANCH   7   1
ENDBRANCH  14   7
TORSDOF 6
ENDMDL
MODEL 6
REMARK VINA RESULT:      -6.9     27.642     31.687
REMARK  Name = 11913295
REMARK  6 active torsions:
REMARK  status: ('A' for Active; 'I' for Inactive)
REMARK    1  A    between atoms: S_1  and  N_7
REMARK    2  A    between atoms: S_1  and  C_19
REMARK    3  A    between atoms: N_7  and  C_14
REMARK    4  A    between atoms: N_8  and  C_15
REMARK    5  A    between atoms: C_20  and  C_29
REMARK    6  A    between atoms: C_22  and  C_28
REMARK                            x       y       z     vdW  Elec       q    Type
REMARK                         _______ _______ _______ _____ _____    ______ ____
ROOT
ATOM      2  O   UNL     1      -6.672 -11.665  10.802  0.00  0.00    -0.370 OA
ATOM      3  O   UNL     1      -5.455  -8.792  10.625  0.00  0.00    -0.370 OA
ATOM     12  C   UNL     1      -5.217 -10.011   9.902  0.00  0.00    +0.170 C 
ATOM     13  C   UNL     1      -5.332 -11.153  10.892  0.00  0.00    +0.171 C 
ATOM     14  C   UNL     1      -6.335 -10.261   8.919  0.00  0.00    +0.133 C 
ATOM     15  C   UNL     1      -5.109 -10.502  12.237  0.00  0.00    +0.130 C 
ATOM     16  C   UNL     1      -7.377 -10.962   9.768  0.00  0.00    +0.183 C 
ATOM     17  C   UNL     1      -5.637  -9.096  12.016  0.00  0.00    +0.185 C 
ENDROOT
BRANCH  15   8
ATOM      8  N   UNL     1      -3.695 -10.463  12.540  0.00  0.00    -0.306 N 
ATOM      9  N   UNL     1      -4.073 -10.643  14.849  0.00  0.00    -0.211 NA
ATOM     10  N   UNL     1      -1.835 -10.488  13.969  0.00  0.00    -0.223 NA
ATOM     18  C   UNL     1      -3.186 -10.533  13.824  0.00  0.00    +0.216 A 
ATOM     22  C   UNL     1      -3.541 -10.710  16.087  0.00  0.00    +0.111 A 
ATOM     23  C   UNL     1      -1.372 -10.560  15.234  0.00  0.00    +0.116 A 
ATOM     26  C   UNL     1      -2.185 -10.674  16.343  0.00  0.00    +0.051 A 
ATOM     34  H   UNL     1      -3.023 -10.434  11.781  0.00  0.00    +0.149 HD
BRANCH  22  28
ATOM      6  O   UNL     1      -5.698 -10.225  16.918  0.00  0.00    -0.461 OA
ATOM     28  C   UNL     1      -4.504 -10.826  17.150  0.00  0.00    +0.153 A 
ATOM     30  C   UNL     1      -4.491 -11.423  18.387  0.00  0.00    +0.051 A 
ATOM     31  C   UNL     1      -5.762 -11.173  18.955  0.00  0.00    +0.042 A 
ATOM     32  C   UNL     1      -6.461 -10.441  18.022  0.00  0.00    +0.196 A 
ENDBRANCH  22  28
ENDBRANCH  15   8
BRANCH  14   7
ATOM      7  N   UNL     1      -5.865 -11.176   7.851  0.00  0.00    -0.182 NA
ATOM     33  H   UNL     1      -5.028 -11.741   8.041  0.00  0.00    +0.148 HD
BRANCH   7   1
ATOM      1  S   UNL     1      -6.447 -10.996   6.267  0.00  0.00    +0.060 S 
ATOM      4  O   UNL     1      -6.475  -9.587   5.919  0.00  0.00    -0.153 OA
ATOM      5  O   UNL     1      -7.637 -11.809   6.111  0.00  0.00    -0.153 OA
BRANCH   1  19
ATOM     19  C   UNL     1      -5.169 -11.766   5.319  0.00  0.00    +0.123 A 
ATOM     20  C   UNL     1      -5.314 -11.982   3.956  0.00  0.00    +0.078 A 
ATOM     21  C   UNL     1      -4.013 -12.147   5.985  0.00  0.00    +0.030 A 
ATOM     24  C   UNL     1      -4.280 -12.593   3.245  0.00  0.00    +0.021 A 
ATOM     25  C   UNL     1      -2.981 -12.757   5.275  0.00  0.00    +0.002 A 
ATOM     27  C   UNL     1      -3.113 -12.979   3.903  0.00  0.00    +0.001 A 
BRANCH  20  29
ATOM     11  N   UNL     1      -7.455 -11.286   2.674  0.00  0.00    -0.191 NA
ATOM     29  C   UNL     1      -6.497 -11.598   3.247  0.00  0.00    +0.101 C 
ENDBRANCH  20  29
ENDBRANCH   1  19
ENDBRANCH   7   1
ENDBRANCH  14   7
TORSDOF 6
ENDMDL
MODEL 7
REMARK VINA RESULT:      -6.8     28.781     30.728
REMARK  Name = 11913295
REMARK  6 active torsions:
REMARK  status: ('A' for Active; 'I' for Inactive)
REMARK    1  A    between atoms: S_1  and  N_7
REMARK    2  A    between atoms: S_1  and  C_19
REMARK    3  A    between atoms: N_7  and  C_14
REMARK    4  A    between atoms: N_8  and  C_15
REMARK    5  A    between atoms: C_20  and  C_29
REMARK    6  A    between atoms: C_22  and  C_28
REMARK                            x       y       z     vdW  Elec       q    Type
REMARK                         _______ _______ _______ _____ _____    ______ ____
ROOT
ATOM      2  O   UNL     1      -3.938 -12.577  11.661  0.00  0.00    -0.370 OA
ATOM      3  O   UNL     1      -3.206  -9.540  11.593  0.00  0.00    -0.370 OA
ATOM     12  C   UNL     1      -4.190 -10.302  12.311  0.00  0.00    +0.170 C 
ATOM     13  C   UNL     1      -4.691 -11.386  11.377  0.00  0.00    +0.171 C 
ATOM     14  C   UNL     1      -3.540 -11.060  13.443  0.00  0.00    +0.133 C 
ATOM     15  C   UNL     1      -4.354 -10.871   9.997  0.00  0.00    +0.130 C 
ATOM     16  C   UNL     1      -3.052 -12.324  12.762  0.00  0.00    +0.183 C 
ATOM     17  C   UNL     1      -3.114 -10.034  10.249  0.00  0.00    +0.185 C 
ENDROOT
BRANCH  15   8
ATOM      8  N   UNL     1      -5.429 -10.038   9.504  0.00  0.00    -0.306 N 
ATOM      9  N   UNL     1      -5.150 -10.790   7.299  0.00  0.00    -0.211 NA
ATOM     10  N   UNL     1      -6.848  -9.171   7.849  0.00  0.00    -0.223 NA
ATOM     18  C   UNL     1      -5.821  -9.999   8.178  0.00  0.00    +0.216 A 
ATOM     22  C   UNL     1      -5.559 -10.728   6.015  0.00  0.00    +0.111 A 
ATOM     23  C   UNL     1      -7.205  -9.158   6.548  0.00  0.00    +0.116 A 
ATOM     26  C   UNL     1      -6.591  -9.923   5.577  0.00  0.00    +0.051 A 
ATOM     34  H   UNL     1      -5.970  -9.483  10.159  0.00  0.00    +0.149 HD
BRANCH  22  28
ATOM      6  O   UNL     1      -5.445 -11.820   3.924  0.00  0.00    -0.461 OA
ATOM     28  C   UNL     1      -4.831 -11.576   5.110  0.00  0.00    +0.153 A 
ATOM     30  C   UNL     1      -3.618 -12.217   5.171  0.00  0.00    +0.051 A 
ATOM     31  C   UNL     1      -3.475 -12.902   3.941  0.00  0.00    +0.042 A 
ATOM     32  C   UNL     1      -4.613 -12.629   3.217  0.00  0.00    +0.196 A 
ENDBRANCH  22  28
ENDBRANCH  15   8
BRANCH  14   7
ATOM      7  N   UNL     1      -4.561 -11.406  14.461  0.00  0.00    -0.182 NA
ATOM     33  H   UNL     1      -5.540 -11.179  14.253  0.00  0.00    +0.148 HD
BRANCH   7   1
ATOM      1  S   UNL     1      -4.079 -11.788  16.044  0.00  0.00    +0.060 S 
ATOM      4  O   UNL     1      -2.838 -11.102  16.350  0.00  0.00    -0.153 OA
ATOM      5  O   UNL     1      -4.185 -13.222  16.232  0.00  0.00    -0.153 OA
BRANCH   1  19
ATOM     19  C   UNL     1      -5.363 -11.047  17.005  0.00  0.00    +0.123 A 
ATOM     20  C   UNL     1      -5.343 -11.093  18.392  0.00  0.00    +0.078 A 
ATOM     21  C   UNL     1      -6.394 -10.415  16.325  0.00  0.00    +0.030 A 
ATOM     24  C   UNL     1      -6.377 -10.495  19.113  0.00  0.00    +0.021 A 
ATOM     25  C   UNL     1      -7.427  -9.817  17.046  0.00  0.00    +0.002 A 
ATOM     27  C   UNL     1      -7.419  -9.856  18.440  0.00  0.00    +0.001 A 
BRANCH  20  29
ATOM     11  N   UNL     1      -3.439 -12.262  19.702  0.00  0.00    -0.191 NA
ATOM     29  C   UNL     1      -4.291 -11.739  19.115  0.00  0.00    +0.101 C 
ENDBRANCH  20  29
ENDBRANCH   1  19
ENDBRANCH   7   1
ENDBRANCH  14   7
TORSDOF 6
ENDMDL
MODEL 8
REMARK VINA RESULT:      -6.8      4.991      8.276
REMARK  Name = 11913295
REMARK  6 active torsions:
REMARK  status: ('A' for Active; 'I' for Inactive)
REMARK    1  A    between atoms: S_1  and  N_7
REMARK    2  A    between atoms: S_1  and  C_19
REMARK    3  A    between atoms: N_7  and  C_14
REMARK    4  A    between atoms: N_8  and  C_15
REMARK    5  A    between atoms: C_20  and  C_29
REMARK    6  A    between atoms: C_22  and  C_28
REMARK                            x       y       z     vdW  Elec       q    Type
REMARK                         _______ _______ _______ _____ _____    ______ ____
ROOT
ATOM      2  O   UNL     1      13.060   9.212  15.370  0.00  0.00    -0.370 OA
ATOM      3  O   UNL     1      15.437  11.165  15.921  0.00  0.00    -0.370 OA
ATOM     12  C   UNL     1      14.200  10.899  16.602  0.00  0.00    +0.170 C 
ATOM     13  C   UNL     1      13.148  10.637  15.542  0.00  0.00    +0.171 C 
ATOM     14  C   UNL     1      14.291   9.598  17.361  0.00  0.00    +0.133 C 
ATOM     15  C   UNL     1      13.709  11.281  14.296  0.00  0.00    +0.130 C 
ATOM     16  C   UNL     1      13.936   8.569  16.306  0.00  0.00    +0.183 C 
ATOM     17  C   UNL     1      15.207  11.157  14.504  0.00  0.00    +0.185 C 
ENDROOT
BRANCH  15   8
ATOM      8  N   UNL     1      13.324  12.674  14.243  0.00  0.00    -0.306 N 
ATOM      9  N   UNL     1      11.955  12.340  12.368  0.00  0.00    -0.211 NA
ATOM     10  N   UNL     1      12.182  14.524  13.361  0.00  0.00    -0.223 NA
ATOM     18  C   UNL     1      12.461  13.195  13.295  0.00  0.00    +0.216 A 
ATOM     22  C   UNL     1      11.116  12.882  11.460  0.00  0.00    +0.111 A 
ATOM     23  C   UNL     1      11.336  14.998  12.422  0.00  0.00    +0.116 A 
ATOM     26  C   UNL     1      10.767  14.217  11.439  0.00  0.00    +0.051 A 
ATOM     34  H   UNL     1      13.655  13.310  14.961  0.00  0.00    +0.149 HD
BRANCH  22  28
ATOM      6  O   UNL     1      11.512  11.438   9.633  0.00  0.00    -0.461 OA
ATOM     28  C   UNL     1      10.596  11.953  10.492  0.00  0.00    +0.153 A 
ATOM     30  C   UNL     1       9.344  11.453  10.227  0.00  0.00    +0.051 A 
ATOM     31  C   UNL     1       9.500  10.570   9.132  0.00  0.00    +0.042 A 
ATOM     32  C   UNL     1      10.837  10.595   8.807  0.00  0.00    +0.196 A 
ENDBRANCH  22  28
ENDBRANCH  15   8
BRANCH  14   7
ATOM      7  N   UNL     1      13.273   9.578  18.439  0.00  0.00    -0.182 NA
ATOM     33  H   UNL     1      12.284   9.581  18.162  0.00  0.00    +0.148 HD
BRANCH   7   1
ATOM      1  S   UNL     1      13.725   9.934  20.036  0.00  0.00    +0.060 S 
ATOM      4  O   UNL     1      12.584   9.756  20.914  0.00  0.00    -0.153 OA
ATOM      5  O   UNL     1      14.465  11.181  20.045  0.00  0.00    -0.153 OA
BRANCH   1  19
ATOM     19  C   UNL     1      14.885   8.646  20.383  0.00  0.00    +0.123 A 
ATOM     20  C   UNL     1      14.549   7.310  20.216  0.00  0.00    +0.078 A 
ATOM     21  C   UNL     1      16.146   9.017  20.827  0.00  0.00    +0.030 A 
ATOM     24  C   UNL     1      15.494   6.324  20.502  0.00  0.00    +0.021 A 
ATOM     25  C   UNL     1      17.091   8.031  21.112  0.00  0.00    +0.002 A 
ATOM     27  C   UNL     1      16.766   6.684  20.948  0.00  0.00    +0.001 A 
BRANCH  20  29
ATOM     11  N   UNL     1      12.206   6.575  19.390  0.00  0.00    -0.191 NA
ATOM     29  C   UNL     1      13.254   6.904  19.760  0.00  0.00    +0.101 C 
ENDBRANCH  20  29
ENDBRANCH   1  19
ENDBRANCH   7   1
ENDBRANCH  14   7
TORSDOF 6
ENDMDL
MODEL 9
REMARK VINA RESULT:      -6.7     14.653     18.190
REMARK  Name = 11913295
REMARK  6 active torsions:
REMARK  status: ('A' for Active; 'I' for Inactive)
REMARK    1  A    between atoms: S_1  and  N_7
REMARK    2  A    between atoms: S_1  and  C_19
REMARK    3  A    between atoms: N_7  and  C_14
REMARK    4  A    between atoms: N_8  and  C_15
REMARK    5  A    between atoms: C_20  and  C_29
REMARK    6  A    between atoms: C_22  and  C_28
REMARK                            x       y       z     vdW  Elec       q    Type
REMARK                         _______ _______ _______ _____ _____    ______ ____
ROOT
ATOM      2  O   UNL     1      13.333   7.254   6.211  0.00  0.00    -0.370 OA
ATOM      3  O   UNL     1      13.245  10.146   5.028  0.00  0.00    -0.370 OA
ATOM     12  C   UNL     1      12.548   8.929   4.713  0.00  0.00    +0.170 C 
ATOM     13  C   UNL     1      13.530   7.787   4.890  0.00  0.00    +0.171 C 
ATOM     14  C   UNL     1      11.478   8.660   5.743  0.00  0.00    +0.133 C 
ATOM     15  C   UNL     1      14.886   8.445   4.788  0.00  0.00    +0.130 C 
ATOM     16  C   UNL     1      12.242   7.944   6.840  0.00  0.00    +0.183 C 
ATOM     17  C   UNL     1      14.618   9.842   5.318  0.00  0.00    +0.185 C 
ENDROOT
BRANCH  15   8
ATOM      8  N   UNL     1      15.303   8.506   3.405  0.00  0.00    -0.306 N 
ATOM      9  N   UNL     1      17.557   8.153   3.953  0.00  0.00    -0.211 NA
ATOM     10  N   UNL     1      16.871   8.440   1.661  0.00  0.00    -0.223 NA
ATOM     18  C   UNL     1      16.616   8.362   2.994  0.00  0.00    +0.216 A 
ATOM     22  C   UNL     1      18.826   8.016   3.517  0.00  0.00    +0.111 A 
ATOM     23  C   UNL     1      18.162   8.294   1.295  0.00  0.00    +0.116 A 
ATOM     26  C   UNL     1      19.191   8.077   2.188  0.00  0.00    +0.051 A 
ATOM     34  H   UNL     1      14.604   8.610   2.677  0.00  0.00    +0.149 HD
BRANCH  22  28
ATOM      6  O   UNL     1      19.576   8.472   5.710  0.00  0.00    -0.461 OA
ATOM     28  C   UNL     1      19.798   7.796   4.555  0.00  0.00    +0.153 A 
ATOM     30  C   UNL     1      20.939   7.036   4.647  0.00  0.00    +0.051 A 
ATOM     31  C   UNL     1      21.452   7.258   5.946  0.00  0.00    +0.042 A 
ATOM     32  C   UNL     1      20.588   8.138   6.554  0.00  0.00    +0.196 A 
ENDBRANCH  22  28
ENDBRANCH  15   8
BRANCH  14   7
ATOM      7  N   UNL     1      10.455   7.749   5.173  0.00  0.00    -0.182 NA
ATOM     33  H   UNL     1      10.602   7.405   4.217  0.00  0.00    +0.148 HD
BRANCH   7   1
ATOM      1  S   UNL     1       8.936   7.613   5.919  0.00  0.00    +0.060 S 
ATOM      4  O   UNL     1       7.959   7.162   4.946  0.00  0.00    -0.153 OA
ATOM      5  O   UNL     1       8.689   8.810   6.698  0.00  0.00    -0.153 OA
BRANCH   1  19
ATOM     19  C   UNL     1       9.210   6.298   7.067  0.00  0.00    +0.123 A 
ATOM     20  C   UNL     1       9.729   5.079   6.656  0.00  0.00    +0.078 A 
ATOM     21  C   UNL     1       8.887   6.527   8.397  0.00  0.00    +0.030 A 
ATOM     24  C   UNL     1       9.929   4.067   7.595  0.00  0.00    +0.021 A 
ATOM     25  C   UNL     1       9.087   5.515   9.336  0.00  0.00    +0.002 A 
ATOM     27  C   UNL     1       9.610   4.285   8.936  0.00  0.00    +0.001 A 
BRANCH  20  29
ATOM     11  N   UNL     1      10.343   4.611   4.183  0.00  0.00    -0.191 NA
ATOM     29  C   UNL     1      10.069   4.820   5.290  0.00  0.00    +0.101 C 
ENDBRANCH  20  29
ENDBRANCH   1  19
ENDBRANCH   7   1
ENDBRANCH  14   7
TORSDOF 6
ENDMDL
MODEL 10
REMARK VINA RESULT:      -6.7     14.892     18.845
REMARK  Name = 11913295
REMARK  6 active torsions:
REMARK  status: ('A' for Active; 'I' for Inactive)
REMARK    1  A    between atoms: S_1  and  N_7
REMARK    2  A    between atoms: S_1  and  C_19
REMARK    3  A    between atoms: N_7  and  C_14
REMARK    4  A    between atoms: N_8  and  C_15
REMARK    5  A    between atoms: C_20  and  C_29
REMARK    6  A    between atoms: C_22  and  C_28
REMARK                            x       y       z     vdW  Elec       q    Type
REMARK                         _______ _______ _______ _____ _____    ______ ____
ROOT
ATOM      2  O   UNL     1      14.463   6.851   6.622  0.00  0.00    -0.370 OA
ATOM      3  O   UNL     1      12.906   9.286   5.432  0.00  0.00    -0.370 OA
ATOM     12  C   UNL     1      12.863   7.870   5.185  0.00  0.00    +0.170 C 
ATOM     13  C   UNL     1      14.285   7.352   5.286  0.00  0.00    +0.171 C 
ATOM     14  C   UNL     1      12.133   7.167   6.303  0.00  0.00    +0.133 C 
ATOM     15  C   UNL     1      15.142   8.576   5.066  0.00  0.00    +0.130 C 
ATOM     16  C   UNL     1      13.223   6.959   7.336  0.00  0.00    +0.183 C 
ATOM     17  C   UNL     1      14.271   9.694   5.608  0.00  0.00    +0.185 C 
ENDROOT
BRANCH  15   8
ATOM      8  N   UNL     1      15.379   8.766   3.652  0.00  0.00    -0.306 N 
ATOM      9  N   UNL     1      17.654   8.226   3.847  0.00  0.00    -0.211 NA
ATOM     10  N   UNL     1      16.698   8.804   1.712  0.00  0.00    -0.223 NA
ATOM     18  C   UNL     1      16.614   8.594   3.053  0.00  0.00    +0.216 A 
ATOM     22  C   UNL     1      18.843   8.066   3.230  0.00  0.00    +0.111 A 
ATOM     23  C   UNL     1      17.916   8.626   1.160  0.00  0.00    +0.116 A 
ATOM     26  C   UNL     1      19.035   8.253   1.876  0.00  0.00    +0.051 A 
ATOM     34  H   UNL     1      14.600   8.989   3.042  0.00  0.00    +0.149 HD
BRANCH  22  28
ATOM      6  O   UNL     1      19.840   8.139   5.369  0.00  0.00    -0.461 OA
ATOM     28  C   UNL     1      19.924   7.677   4.096  0.00  0.00    +0.153 A 
ATOM     30  C   UNL     1      21.059   6.922   3.924  0.00  0.00    +0.051 A 
ATOM     31  C   UNL     1      21.718   6.919   5.176  0.00  0.00    +0.042 A 
ATOM     32  C   UNL     1      20.938   7.672   6.022  0.00  0.00    +0.196 A 
ENDBRANCH  22  28
ENDBRANCH  15   8
BRANCH  14   7
ATOM      7  N   UNL     1      11.640   5.852   5.827  0.00  0.00    -0.182 NA
ATOM     33  H   UNL     1      12.281   5.277   5.267  0.00  0.00    +0.148 HD
BRANCH   7   1
ATOM      1  S   UNL     1       9.979   5.506   5.871  0.00  0.00    +0.060 S 
ATOM      4  O   UNL     1       9.434   5.913   7.153  0.00  0.00    -0.153 OA
ATOM      5  O   UNL     1       9.769   4.156   5.385  0.00  0.00    -0.153 OA
BRANCH   1  19
ATOM     19  C   UNL     1       9.345   6.601   4.637  0.00  0.00    +0.123 A 
ATOM     20  C   UNL     1       9.827   6.577   3.336  0.00  0.00    +0.078 A 
ATOM     21  C   UNL     1       8.346   7.488   5.014  0.00  0.00    +0.030 A 
ATOM     24  C   UNL     1       9.299   7.459   2.393  0.00  0.00    +0.021 A 
ATOM     25  C   UNL     1       7.818   8.369   4.071  0.00  0.00    +0.002 A 
ATOM     27  C   UNL     1       8.294   8.355   2.760  0.00  0.00    +0.001 A 
BRANCH  20  29
ATOM     11  N   UNL     1      11.691   4.940   2.591  0.00  0.00    -0.191 NA
ATOM     29  C   UNL     1      10.857   5.673   2.924  0.00  0.00    +0.101 C 
ENDBRANCH  20  29
ENDBRANCH   1  19
ENDBRANCH   7   1
ENDBRANCH  14   7
TORSDOF 6
ENDMDL
