MODEL 1
REMARK VINA RESULT:      -7.0      0.000      0.000
REMARK  Name = 51137966
REMARK  5 active torsions:
REMARK  status: ('A' for Active; 'I' for Inactive)
REMARK    1  A    between atoms: C_6  and  C_10
REMARK    2  A    between atoms: C_7  and  C_14
REMARK    3  A    between atoms: C_10  and  C_13
REMARK    4  A    between atoms: C_13  and  C_21
REMARK    5  A    between atoms: C_13  and  C_22
REMARK                            x       y       z     vdW  Elec       q    Type
REMARK                         _______ _______ _______ _____ _____    ______ ____
ROOT
ATOM      3  N   UNL     1      14.191   9.484  19.101  0.00  0.00    -0.299 NA
ATOM      5  N   UNL     1      10.608  10.180  22.592  0.00  0.00    -0.360 N 
ATOM      6  C   UNL     1      13.450   8.217  19.170  0.00  0.00    +0.085 C 
ATOM      7  C   UNL     1      13.372  10.653  18.812  0.00  0.00    +0.145 C 
ATOM      8  C   UNL     1      12.415   8.107  20.294  0.00  0.00    -0.021 A 
ATOM      9  C   UNL     1      12.989  11.400  20.088  0.00  0.00    +0.065 C 
ATOM     11  C   UNL     1      11.886   9.204  21.033  0.00  0.00    +0.008 A 
ATOM     12  C   UNL     1      12.090  10.627  20.994  0.00  0.00    -0.020 A 
ATOM     15  C   UNL     1      10.933   8.969  22.031  0.00  0.00    +0.047 A 
ATOM     16  C   UNL     1      11.293  11.185  21.973  0.00  0.00    +0.087 A 
ATOM     17  C   UNL     1      11.868   6.833  20.590  0.00  0.00    +0.006 A 
ATOM     20  C   UNL     1      10.441   7.699  22.339  0.00  0.00    +0.026 A 
ATOM     23  C   UNL     1      10.918   6.631  21.589  0.00  0.00    +0.002 A 
ATOM     26  H   UNL     1      14.749   9.625  19.942  0.00  0.00    +0.123 HD
ATOM     27  H   UNL     1       9.943  10.309  23.343  0.00  0.00    +0.165 HD
ENDROOT
BRANCH   7  14
ATOM      1  O   UNL     1      15.215  10.170  14.143  0.00  0.00    -0.377 OA
ATOM      2  O   UNL     1      14.800  12.506  18.483  0.00  0.00    -0.274 OA
ATOM      4  N   UNL     1      14.348  11.195  16.620  0.00  0.00    -0.296 N 
ATOM     14  C   UNL     1      14.236  11.538  17.966  0.00  0.00    +0.233 C 
ATOM     18  C   UNL     1      13.594  10.131  15.948  0.00  0.00    +0.136 C 
ATOM     19  C   UNL     1      15.175  12.003  15.725  0.00  0.00    +0.136 C 
ATOM     24  C   UNL     1      14.519   9.315  15.053  0.00  0.00    +0.179 C 
ATOM     25  C   UNL     1      16.035  11.108  14.845  0.00  0.00    +0.179 C 
ENDBRANCH   7  14
BRANCH   6  10
ATOM     10  C   UNL     1      14.539   7.134  19.260  0.00  0.00    +0.026 C 
BRANCH  10  13
ATOM     13  C   UNL     1      15.720   7.546  20.144  0.00  0.00    -0.015 C 
ATOM     21  C   UNL     1      16.961   6.751  19.729  0.00  0.00    +0.007 C 
ATOM     22  C   UNL     1      15.445   7.335  21.633  0.00  0.00    +0.007 C 
ENDBRANCH  10  13
ENDBRANCH   6  10
TORSDOF 3
ENDMDL
MODEL 2
REMARK VINA RESULT:      -6.6      3.963      6.247
REMARK  Name = 51137966
REMARK  5 active torsions:
REMARK  status: ('A' for Active; 'I' for Inactive)
REMARK    1  A    between atoms: C_6  and  C_10
REMARK    2  A    between atoms: C_7  and  C_14
REMARK    3  A    between atoms: C_10  and  C_13
REMARK    4  A    between atoms: C_13  and  C_21
REMARK    5  A    between atoms: C_13  and  C_22
REMARK                            x       y       z     vdW  Elec       q    Type
REMARK                         _______ _______ _______ _____ _____    ______ ____
ROOT
ATOM      3  N   UNL     1      12.973  10.553  23.134  0.00  0.00    -0.299 NA
ATOM      5  N   UNL     1      11.138   6.420  20.887  0.00  0.00    -0.360 N 
ATOM      6  C   UNL     1      13.685  10.447  21.853  0.00  0.00    +0.085 C 
ATOM      7  C   UNL     1      11.523  10.596  23.022  0.00  0.00    +0.145 C 
ATOM      8  C   UNL     1      13.437   9.163  21.054  0.00  0.00    -0.021 A 
ATOM      9  C   UNL     1      10.902   9.218  23.241  0.00  0.00    +0.065 C 
ATOM     11  C   UNL     1      12.359   8.257  21.270  0.00  0.00    +0.008 A 
ATOM     12  C   UNL     1      11.249   8.224  22.183  0.00  0.00    -0.020 A 
ATOM     15  C   UNL     1      12.238   7.123  20.460  0.00  0.00    +0.047 A 
ATOM     16  C   UNL     1      10.532   7.075  21.919  0.00  0.00    +0.087 A 
ATOM     17  C   UNL     1      14.290   8.871  19.960  0.00  0.00    +0.006 A 
ATOM     20  C   UNL     1      13.116   6.827  19.415  0.00  0.00    +0.026 A 
ATOM     23  C   UNL     1      14.142   7.732  19.169  0.00  0.00    +0.002 A 
ATOM     26  H   UNL     1      13.271   9.821  23.777  0.00  0.00    +0.123 HD
ATOM     27  H   UNL     1      10.814   5.552  20.482  0.00  0.00    +0.165 HD
ENDROOT
BRANCH   7  14
ATOM      1  O   UNL     1      10.754  15.577  23.191  0.00  0.00    -0.377 OA
ATOM      2  O   UNL     1      11.026  11.100  25.276  0.00  0.00    -0.274 OA
ATOM      4  N   UNL     1      10.731  12.813  23.736  0.00  0.00    -0.296 N 
ATOM     14  C   UNL     1      11.071  11.517  24.115  0.00  0.00    +0.233 C 
ATOM     18  C   UNL     1      10.651  13.302  22.355  0.00  0.00    +0.136 C 
ATOM     19  C   UNL     1      10.284  13.777  24.741  0.00  0.00    +0.136 C 
ATOM     24  C   UNL     1      11.316  14.668  22.241  0.00  0.00    +0.179 C 
ATOM     25  C   UNL     1      10.969  15.120  24.529  0.00  0.00    +0.179 C 
ENDBRANCH   7  14
BRANCH   6  10
ATOM     10  C   UNL     1      15.168  10.642  22.213  0.00  0.00    +0.026 C 
BRANCH  10  13
ATOM     13  C   UNL     1      15.794  11.863  21.533  0.00  0.00    -0.015 C 
ATOM     21  C   UNL     1      14.695  12.676  20.846  0.00  0.00    +0.007 C 
ATOM     22  C   UNL     1      16.870  11.483  20.515  0.00  0.00    +0.007 C 
ENDBRANCH  10  13
ENDBRANCH   6  10
TORSDOF 3
ENDMDL
MODEL 3
REMARK VINA RESULT:      -6.6      2.843      6.090
REMARK  Name = 51137966
REMARK  5 active torsions:
REMARK  status: ('A' for Active; 'I' for Inactive)
REMARK    1  A    between atoms: C_6  and  C_10
REMARK    2  A    between atoms: C_7  and  C_14
REMARK    3  A    between atoms: C_10  and  C_13
REMARK    4  A    between atoms: C_13  and  C_21
REMARK    5  A    between atoms: C_13  and  C_22
REMARK                            x       y       z     vdW  Elec       q    Type
REMARK                         _______ _______ _______ _____ _____    ______ ____
ROOT
ATOM      3  N   UNL     1      13.404   9.239  20.594  0.00  0.00    -0.299 NA
ATOM      5  N   UNL     1      11.124   8.782  16.111  0.00  0.00    -0.360 N 
ATOM      6  C   UNL     1      14.243   9.981  19.644  0.00  0.00    +0.085 C 
ATOM      7  C   UNL     1      12.015   9.670  20.647  0.00  0.00    +0.145 C 
ATOM      8  C   UNL     1      13.861   9.844  18.166  0.00  0.00    -0.021 A 
ATOM      9  C   UNL     1      11.120   8.791  19.776  0.00  0.00    +0.065 C 
ATOM     11  C   UNL     1      12.612   9.359  17.683  0.00  0.00    +0.008 A 
ATOM     12  C   UNL     1      11.406   8.896  18.315  0.00  0.00    -0.020 A 
ATOM     15  C   UNL     1      12.384   9.295  16.303  0.00  0.00    +0.047 A 
ATOM     16  C   UNL     1      10.525   8.544  17.314  0.00  0.00    +0.087 A 
ATOM     17  C   UNL     1      14.778  10.299  17.185  0.00  0.00    +0.006 A 
ATOM     20  C   UNL     1      13.318   9.706  15.350  0.00  0.00    +0.026 A 
ATOM     23  C   UNL     1      14.520  10.224  15.817  0.00  0.00    +0.002 A 
ATOM     26  H   UNL     1      13.471   8.234  20.432  0.00  0.00    +0.123 HD
ATOM     27  H   UNL     1      10.697   8.622  15.209  0.00  0.00    +0.165 HD
ENDROOT
BRANCH   7  14
ATOM      1  O   UNL     1      11.492  12.972  24.422  0.00  0.00    -0.377 OA
ATOM      2  O   UNL     1      11.542   8.385  22.572  0.00  0.00    -0.274 OA
ATOM      4  N   UNL     1      11.332  10.689  22.779  0.00  0.00    -0.296 N 
ATOM     14  C   UNL     1      11.609   9.515  22.081  0.00  0.00    +0.233 C 
ATOM     18  C   UNL     1      11.278  12.033  22.195  0.00  0.00    +0.136 C 
ATOM     19  C   UNL     1      10.933  10.627  24.185  0.00  0.00    +0.136 C 
ATOM     24  C   UNL     1      12.010  13.026  23.091  0.00  0.00    +0.179 C 
ATOM     25  C   UNL     1      11.683  11.675  24.995  0.00  0.00    +0.179 C 
ENDBRANCH   7  14
BRANCH   6  10
ATOM     10  C   UNL     1      15.676   9.501  19.931  0.00  0.00    +0.026 C 
BRANCH  10  13
ATOM     13  C   UNL     1      15.735   8.050  20.417  0.00  0.00    -0.015 C 
ATOM     21  C   UNL     1      16.944   7.875  21.339  0.00  0.00    +0.007 C 
ATOM     22  C   UNL     1      15.812   7.046  19.267  0.00  0.00    +0.007 C 
ENDBRANCH  10  13
ENDBRANCH   6  10
TORSDOF 3
ENDMDL
MODEL 4
REMARK VINA RESULT:      -6.4      2.945      6.164
REMARK  Name = 51137966
REMARK  5 active torsions:
REMARK  status: ('A' for Active; 'I' for Inactive)
REMARK    1  A    between atoms: C_6  and  C_10
REMARK    2  A    between atoms: C_7  and  C_14
REMARK    3  A    between atoms: C_10  and  C_13
REMARK    4  A    between atoms: C_13  and  C_21
REMARK    5  A    between atoms: C_13  and  C_22
REMARK                            x       y       z     vdW  Elec       q    Type
REMARK                         _______ _______ _______ _____ _____    ______ ____
ROOT
ATOM      3  N   UNL     1      15.120   9.775  20.236  0.00  0.00    -0.299 NA
ATOM      5  N   UNL     1      19.473   7.541  21.487  0.00  0.00    -0.360 N 
ATOM      6  C   UNL     1      15.015   8.395  19.743  0.00  0.00    +0.085 C 
ATOM      7  C   UNL     1      15.400   9.894  21.659  0.00  0.00    +0.145 C 
ATOM      8  C   UNL     1      16.291   7.552  19.838  0.00  0.00    -0.021 A 
ATOM      9  C   UNL     1      16.890  10.103  21.923  0.00  0.00    +0.065 C 
ATOM     11  C   UNL     1      17.424   7.865  20.644  0.00  0.00    +0.008 A 
ATOM     12  C   UNL     1      17.740   8.934  21.552  0.00  0.00    -0.020 A 
ATOM     15  C   UNL     1      18.525   7.002  20.651  0.00  0.00    +0.047 A 
ATOM     16  C   UNL     1      19.010   8.700  22.038  0.00  0.00    +0.087 A 
ATOM     17  C   UNL     1      16.343   6.320  19.138  0.00  0.00    +0.006 A 
ATOM     20  C   UNL     1      18.576   5.815  19.917  0.00  0.00    +0.026 A 
ATOM     23  C   UNL     1      17.455   5.480  19.167  0.00  0.00    +0.002 A 
ATOM     26  H   UNL     1      15.790  10.309  19.683  0.00  0.00    +0.123 HD
ATOM     27  H   UNL     1      20.376   7.128  21.678  0.00  0.00    +0.165 HD
ENDROOT
BRANCH   7  14
ATOM      1  O   UNL     1      10.515  10.731  22.588  0.00  0.00    -0.377 OA
ATOM      2  O   UNL     1      15.211  12.205  22.106  0.00  0.00    -0.274 OA
ATOM      4  N   UNL     1      13.325  10.910  22.503  0.00  0.00    -0.296 N 
ATOM     14  C   UNL     1      14.647  11.109  22.109  0.00  0.00    +0.233 C 
ATOM     18  C   UNL     1      12.665   9.607  22.639  0.00  0.00    +0.136 C 
ATOM     19  C   UNL     1      12.517  12.044  22.952  0.00  0.00    +0.136 C 
ATOM     24  C   UNL     1      11.271   9.657  22.023  0.00  0.00    +0.179 C 
ATOM     25  C   UNL     1      11.134  11.992  22.319  0.00  0.00    +0.179 C 
ENDBRANCH   7  14
BRANCH   6  10
ATOM     10  C   UNL     1      14.506   8.535  18.298  0.00  0.00    +0.026 C 
BRANCH  10  13
ATOM     13  C   UNL     1      13.221   7.744  18.037  0.00  0.00    -0.015 C 
ATOM     21  C   UNL     1      12.229   8.628  17.278  0.00  0.00    +0.007 C 
ATOM     22  C   UNL     1      12.575   7.227  19.323  0.00  0.00    +0.007 C 
ENDBRANCH  10  13
ENDBRANCH   6  10
TORSDOF 3
ENDMDL
MODEL 5
REMARK VINA RESULT:      -6.4     25.458     27.908
REMARK  Name = 51137966
REMARK  5 active torsions:
REMARK  status: ('A' for Active; 'I' for Inactive)
REMARK    1  A    between atoms: C_6  and  C_10
REMARK    2  A    between atoms: C_7  and  C_14
REMARK    3  A    between atoms: C_10  and  C_13
REMARK    4  A    between atoms: C_13  and  C_21
REMARK    5  A    between atoms: C_13  and  C_22
REMARK                            x       y       z     vdW  Elec       q    Type
REMARK                         _______ _______ _______ _____ _____    ______ ____
ROOT
ATOM      3  N   UNL     1      -4.535 -10.297  14.927  0.00  0.00    -0.299 NA
ATOM      5  N   UNL     1      -8.291  -9.547  18.218  0.00  0.00    -0.360 N 
ATOM      6  C   UNL     1      -4.223 -11.143  16.086  0.00  0.00    +0.085 C 
ATOM      7  C   UNL     1      -5.838 -10.542  14.326  0.00  0.00    +0.145 C 
ATOM      8  C   UNL     1      -5.124 -10.957  17.311  0.00  0.00    -0.021 A 
ATOM      9  C   UNL     1      -6.885  -9.553  14.834  0.00  0.00    +0.065 C 
ATOM     11  C   UNL     1      -6.395 -10.313  17.306  0.00  0.00    +0.008 A 
ATOM     12  C   UNL     1      -7.199  -9.696  16.286  0.00  0.00    -0.020 A 
ATOM     15  C   UNL     1      -7.126 -10.221  18.496  0.00  0.00    +0.047 A 
ATOM     16  C   UNL     1      -8.348  -9.231  16.892  0.00  0.00    +0.087 A 
ATOM     17  C   UNL     1      -4.719 -11.530  18.544  0.00  0.00    +0.006 A 
ATOM     20  C   UNL     1      -6.688 -10.750  19.711  0.00  0.00    +0.026 A 
ATOM     23  C   UNL     1      -5.471 -11.422  19.712  0.00  0.00    +0.002 A 
ATOM     26  H   UNL     1      -4.414  -9.310  15.153  0.00  0.00    +0.123 HD
ATOM     27  H   UNL     1      -9.010  -9.332  18.896  0.00  0.00    +0.165 HD
ENDROOT
BRANCH   7  14
ATOM      1  O   UNL     1      -3.712 -13.374  10.736  0.00  0.00    -0.377 OA
ATOM      2  O   UNL     1      -5.838  -9.218  12.370  0.00  0.00    -0.274 OA
ATOM      4  N   UNL     1      -5.228 -11.445  12.121  0.00  0.00    -0.296 N 
ATOM     14  C   UNL     1      -5.639 -10.335  12.856  0.00  0.00    +0.233 C 
ATOM     18  C   UNL     1      -5.105 -12.811  12.641  0.00  0.00    +0.136 C 
ATOM     19  C   UNL     1      -5.006 -11.328  10.680  0.00  0.00    +0.136 C 
ATOM     24  C   UNL     1      -3.804 -13.442  12.162  0.00  0.00    +0.179 C 
ATOM     25  C   UNL     1      -3.707 -12.017  10.286  0.00  0.00    +0.179 C 
ENDBRANCH   7  14
BRANCH   6  10
ATOM     10  C   UNL     1      -2.743 -10.856  16.392  0.00  0.00    +0.026 C 
BRANCH  10  13
ATOM     13  C   UNL     1      -1.918 -10.561  15.135  0.00  0.00    -0.015 C 
ATOM     21  C   UNL     1      -1.457 -11.881  14.514  0.00  0.00    +0.007 C 
ATOM     22  C   UNL     1      -0.707  -9.672  15.419  0.00  0.00    +0.007 C 
ENDBRANCH  10  13
ENDBRANCH   6  10
TORSDOF 3
ENDMDL
MODEL 6
REMARK VINA RESULT:      -6.3      4.026      6.869
REMARK  Name = 51137966
REMARK  5 active torsions:
REMARK  status: ('A' for Active; 'I' for Inactive)
REMARK    1  A    between atoms: C_6  and  C_10
REMARK    2  A    between atoms: C_7  and  C_14
REMARK    3  A    between atoms: C_10  and  C_13
REMARK    4  A    between atoms: C_13  and  C_21
REMARK    5  A    between atoms: C_13  and  C_22
REMARK                            x       y       z     vdW  Elec       q    Type
REMARK                         _______ _______ _______ _____ _____    ______ ____
ROOT
ATOM      3  N   UNL     1      13.537  11.211  22.381  0.00  0.00    -0.299 NA
ATOM      5  N   UNL     1      13.939   6.354  21.058  0.00  0.00    -0.360 N 
ATOM      6  C   UNL     1      12.235  10.605  22.690  0.00  0.00    +0.085 C 
ATOM      7  C   UNL     1      14.675  10.567  23.021  0.00  0.00    +0.145 C 
ATOM      8  C   UNL     1      12.036   9.164  22.209  0.00  0.00    -0.021 A 
ATOM      9  C   UNL     1      15.357   9.572  22.085  0.00  0.00    +0.065 C 
ATOM     11  C   UNL     1      13.080   8.281  21.810  0.00  0.00    +0.008 A 
ATOM     12  C   UNL     1      14.512   8.394  21.734  0.00  0.00    -0.020 A 
ATOM     15  C   UNL     1      12.765   6.979  21.401  0.00  0.00    +0.047 A 
ATOM     16  C   UNL     1      14.996   7.192  21.260  0.00  0.00    +0.087 A 
ATOM     17  C   UNL     1      10.728   8.618  22.225  0.00  0.00    +0.006 A 
ATOM     20  C   UNL     1      11.463   6.475  21.380  0.00  0.00    +0.026 A 
ATOM     23  C   UNL     1      10.446   7.317  21.814  0.00  0.00    +0.002 A 
ATOM     26  H   UNL     1      13.675  11.284  21.374  0.00  0.00    +0.123 HD
ATOM     27  H   UNL     1      14.009   5.402  20.722  0.00  0.00    +0.165 HD
ENDROOT
BRANCH   7  14
ATOM      1  O   UNL     1      15.018  13.777  26.895  0.00  0.00    -0.377 OA
ATOM      2  O   UNL     1      16.403  12.078  22.461  0.00  0.00    -0.274 OA
ATOM      4  N   UNL     1      15.572  12.201  24.626  0.00  0.00    -0.296 N 
ATOM     14  C   UNL     1      15.629  11.679  23.336  0.00  0.00    +0.233 C 
ATOM     18  C   UNL     1      14.757  11.668  25.724  0.00  0.00    +0.136 C 
ATOM     19  C   UNL     1      16.466  13.291  25.015  0.00  0.00    +0.136 C 
ATOM     24  C   UNL     1      14.062  12.805  26.464  0.00  0.00    +0.179 C 
ATOM     25  C   UNL     1      15.697  14.360  25.779  0.00  0.00    +0.179 C 
ENDBRANCH   7  14
BRANCH   6  10
ATOM     10  C   UNL     1      11.201  11.576  22.092  0.00  0.00    +0.026 C 
BRANCH  10  13
ATOM     13  C   UNL     1      11.104  12.896  22.862  0.00  0.00    -0.015 C 
ATOM     21  C   UNL     1      10.532  12.626  24.255  0.00  0.00    +0.007 C 
ATOM     22  C   UNL     1      10.245  13.936  22.143  0.00  0.00    +0.007 C 
ENDBRANCH  10  13
ENDBRANCH   6  10
TORSDOF 3
ENDMDL
MODEL 7
REMARK VINA RESULT:      -6.2     26.060     28.866
REMARK  Name = 51137966
REMARK  5 active torsions:
REMARK  status: ('A' for Active; 'I' for Inactive)
REMARK    1  A    between atoms: C_6  and  C_10
REMARK    2  A    between atoms: C_7  and  C_14
REMARK    3  A    between atoms: C_10  and  C_13
REMARK    4  A    between atoms: C_13  and  C_21
REMARK    5  A    between atoms: C_13  and  C_22
REMARK                            x       y       z     vdW  Elec       q    Type
REMARK                         _______ _______ _______ _____ _____    ______ ____
ROOT
ATOM      3  N   UNL     1      -6.290 -11.828  15.548  0.00  0.00    -0.299 NA
ATOM      5  N   UNL     1      -2.806 -10.199  12.275  0.00  0.00    -0.360 N 
ATOM      6  C   UNL     1      -5.150 -11.391  16.365  0.00  0.00    +0.085 C 
ATOM      7  C   UNL     1      -6.822 -10.812  14.652  0.00  0.00    +0.145 C 
ATOM      8  C   UNL     1      -3.879 -11.019  15.595  0.00  0.00    -0.021 A 
ATOM      9  C   UNL     1      -6.259 -10.958  13.240  0.00  0.00    +0.065 C 
ATOM     11  C   UNL     1      -3.817 -10.740  14.199  0.00  0.00    +0.008 A 
ATOM     12  C   UNL     1      -4.792 -10.698  13.143  0.00  0.00    -0.020 A 
ATOM     15  C   UNL     1      -2.590 -10.397  13.618  0.00  0.00    +0.047 A 
ATOM     16  C   UNL     1      -4.126 -10.371  11.979  0.00  0.00    +0.087 A 
ATOM     17  C   UNL     1      -2.671 -10.857  16.319  0.00  0.00    +0.006 A 
ATOM     20  C   UNL     1      -1.401 -10.289  14.341  0.00  0.00    +0.026 A 
ATOM     23  C   UNL     1      -1.465 -10.513  15.711  0.00  0.00    +0.002 A 
ATOM     26  H   UNL     1      -6.068 -12.685  15.042  0.00  0.00    +0.123 HD
ATOM     27  H   UNL     1      -2.091  -9.945  11.607  0.00  0.00    +0.165 HD
ENDROOT
BRANCH   7  14
ATOM      1  O   UNL     1     -10.587  -9.367  17.679  0.00  0.00    -0.377 OA
ATOM      2  O   UNL     1      -8.758 -11.898  13.844  0.00  0.00    -0.274 OA
ATOM      4  N   UNL     1      -9.075 -10.289  15.488  0.00  0.00    -0.296 N 
ATOM     14  C   UNL     1      -8.301 -11.053  14.617  0.00  0.00    +0.233 C 
ATOM     18  C   UNL     1      -8.581  -9.191  16.325  0.00  0.00    +0.136 C 
ATOM     19  C   UNL     1     -10.527 -10.464  15.521  0.00  0.00    +0.136 C 
ATOM     24  C   UNL     1      -9.159  -9.300  17.731  0.00  0.00    +0.179 C 
ATOM     25  C   UNL     1     -11.020 -10.525  16.960  0.00  0.00    +0.179 C 
ENDBRANCH   7  14
BRANCH   6  10
ATOM     10  C   UNL     1      -4.921 -12.541  17.362  0.00  0.00    +0.026 C 
BRANCH  10  13
ATOM     13  C   UNL     1      -5.027 -12.096  18.823  0.00  0.00    -0.015 C 
ATOM     21  C   UNL     1      -5.564 -10.664  18.877  0.00  0.00    +0.007 C 
ATOM     22  C   UNL     1      -3.691 -12.175  19.562  0.00  0.00    +0.007 C 
ENDBRANCH  10  13
ENDBRANCH   6  10
TORSDOF 3
ENDMDL
MODEL 8
REMARK VINA RESULT:      -6.1     27.406     30.523
REMARK  Name = 51137966
REMARK  5 active torsions:
REMARK  status: ('A' for Active; 'I' for Inactive)
REMARK    1  A    between atoms: C_6  and  C_10
REMARK    2  A    between atoms: C_7  and  C_14
REMARK    3  A    between atoms: C_10  and  C_13
REMARK    4  A    between atoms: C_13  and  C_21
REMARK    5  A    between atoms: C_13  and  C_22
REMARK                            x       y       z     vdW  Elec       q    Type
REMARK                         _______ _______ _______ _____ _____    ______ ____
ROOT
ATOM      3  N   UNL     1      -8.201 -10.324  18.316  0.00  0.00    -0.299 NA
ATOM      5  N   UNL     1      -3.386 -11.845  18.412  0.00  0.00    -0.360 N 
ATOM      6  C   UNL     1      -7.744 -10.291  16.920  0.00  0.00    +0.085 C 
ATOM      7  C   UNL     1      -8.053 -11.614  18.973  0.00  0.00    +0.145 C 
ATOM      8  C   UNL     1      -6.248 -10.537  16.699  0.00  0.00    -0.021 A 
ATOM      9  C   UNL     1      -6.773 -11.679  19.803  0.00  0.00    +0.065 C 
ATOM     11  C   UNL     1      -5.361 -11.113  17.654  0.00  0.00    +0.008 A 
ATOM     12  C   UNL     1      -5.522 -11.618  18.990  0.00  0.00    -0.020 A 
ATOM     15  C   UNL     1      -4.014 -11.296  17.321  0.00  0.00    +0.047 A 
ATOM     16  C   UNL     1      -4.283 -12.049  19.420  0.00  0.00    +0.087 A 
ATOM     17  C   UNL     1      -5.695 -10.249  15.426  0.00  0.00    +0.006 A 
ATOM     20  C   UNL     1      -3.478 -10.962  16.076  0.00  0.00    +0.026 A 
ATOM     23  C   UNL     1      -4.348 -10.445  15.125  0.00  0.00    +0.002 A 
ATOM     26  H   UNL     1      -7.762  -9.582  18.860  0.00  0.00    +0.123 HD
ATOM     27  H   UNL     1      -2.404 -12.081  18.455  0.00  0.00    +0.165 HD
ENDROOT
BRANCH   7  14
ATOM      1  O   UNL     1     -11.312 -15.351  19.893  0.00  0.00    -0.377 OA
ATOM      2  O   UNL     1      -9.684 -10.711  20.424  0.00  0.00    -0.274 OA
ATOM      4  N   UNL     1      -9.763 -13.004  20.067  0.00  0.00    -0.296 N 
ATOM     14  C   UNL     1      -9.236 -11.727  19.887  0.00  0.00    +0.233 C 
ATOM     18  C   UNL     1      -9.180 -14.246  19.547  0.00  0.00    +0.136 C 
ATOM     19  C   UNL     1     -10.920 -13.203  20.939  0.00  0.00    +0.136 C 
ATOM     24  C   UNL     1     -10.267 -15.126  18.943  0.00  0.00    +0.179 C 
ATOM     25  C   UNL     1     -11.934 -14.121  20.273  0.00  0.00    +0.179 C 
ENDBRANCH   7  14
BRANCH   6  10
ATOM     10  C   UNL     1      -8.201  -8.918  16.393  0.00  0.00    +0.026 C 
BRANCH  10  13
ATOM     13  C   UNL     1      -9.724  -8.798  16.280  0.00  0.00    -0.015 C 
ATOM     21  C   UNL     1     -10.115  -8.731  14.802  0.00  0.00    +0.007 C 
ATOM     22  C   UNL     1     -10.276  -7.578  17.017  0.00  0.00    +0.007 C 
ENDBRANCH  10  13
ENDBRANCH   6  10
TORSDOF 3
ENDMDL
MODEL 9
REMARK VINA RESULT:      -6.1     26.318     28.965
REMARK  Name = 51137966
REMARK  5 active torsions:
REMARK  status: ('A' for Active; 'I' for Inactive)
REMARK    1  A    between atoms: C_6  and  C_10
REMARK    2  A    between atoms: C_7  and  C_14
REMARK    3  A    between atoms: C_10  and  C_13
REMARK    4  A    between atoms: C_13  and  C_21
REMARK    5  A    between atoms: C_13  and  C_22
REMARK                            x       y       z     vdW  Elec       q    Type
REMARK                         _______ _______ _______ _____ _____    ______ ____
ROOT
ATOM      3  N   UNL     1      -6.195  -9.633  14.955  0.00  0.00    -0.299 NA
ATOM      5  N   UNL     1      -1.431 -11.271  15.304  0.00  0.00    -0.360 N 
ATOM      6  C   UNL     1      -5.891 -10.251  13.657  0.00  0.00    +0.085 C 
ATOM      7  C   UNL     1      -6.005 -10.505  16.105  0.00  0.00    +0.145 C 
ATOM      8  C   UNL     1      -4.433 -10.669  13.441  0.00  0.00    -0.021 A 
ATOM      9  C   UNL     1      -4.645 -10.281  16.761  0.00  0.00    +0.065 C 
ATOM     11  C   UNL     1      -3.461 -10.820  14.472  0.00  0.00    +0.008 A 
ATOM     12  C   UNL     1      -3.487 -10.670  15.902  0.00  0.00    -0.020 A 
ATOM     15  C   UNL     1      -2.161 -11.222  14.141  0.00  0.00    +0.047 A 
ATOM     16  C   UNL     1      -2.219 -10.948  16.369  0.00  0.00    +0.087 A 
ATOM     17  C   UNL     1      -4.013 -11.012  12.131  0.00  0.00    +0.006 A 
ATOM     20  C   UNL     1      -1.755 -11.510  12.837  0.00  0.00    +0.026 A 
ATOM     23  C   UNL     1      -2.711 -11.410  11.834  0.00  0.00    +0.002 A 
ATOM     26  H   UNL     1      -5.685  -8.757  15.069  0.00  0.00    +0.123 HD
ATOM     27  H   UNL     1      -0.455 -11.529  15.362  0.00  0.00    +0.165 HD
ENDROOT
BRANCH   7  14
ATOM      1  O   UNL     1      -9.001 -13.214  19.123  0.00  0.00    -0.377 OA
ATOM      2  O   UNL     1      -7.518  -8.967  17.068  0.00  0.00    -0.274 OA
ATOM      4  N   UNL     1      -7.539 -11.126  17.924  0.00  0.00    -0.296 N 
ATOM     14  C   UNL     1      -7.085 -10.122  17.071  0.00  0.00    +0.233 C 
ATOM     18  C   UNL     1      -6.961 -12.469  18.042  0.00  0.00    +0.136 C 
ATOM     19  C   UNL     1      -8.594 -10.838  18.896  0.00  0.00    +0.136 C 
ATOM     24  C   UNL     1      -8.067 -13.516  18.083  0.00  0.00    +0.179 C 
ATOM     25  C   UNL     1      -9.632 -11.951  18.896  0.00  0.00    +0.179 C 
ENDBRANCH   7  14
BRANCH   6  10
ATOM     10  C   UNL     1      -6.373  -9.227  12.615  0.00  0.00    +0.026 C 
BRANCH  10  13
ATOM     13  C   UNL     1      -7.381  -9.813  11.622  0.00  0.00    -0.015 C 
ATOM     21  C   UNL     1      -7.413  -8.943  10.363  0.00  0.00    +0.007 C 
ATOM     22  C   UNL     1      -8.789  -9.925  12.209  0.00  0.00    +0.007 C 
ENDBRANCH  10  13
ENDBRANCH   6  10
TORSDOF 3
ENDMDL
MODEL 10
REMARK VINA RESULT:      -6.0     25.845     28.019
REMARK  Name = 51137966
REMARK  5 active torsions:
REMARK  status: ('A' for Active; 'I' for Inactive)
REMARK    1  A    between atoms: C_6  and  C_10
REMARK    2  A    between atoms: C_7  and  C_14
REMARK    3  A    between atoms: C_10  and  C_13
REMARK    4  A    between atoms: C_13  and  C_21
REMARK    5  A    between atoms: C_13  and  C_22
REMARK                            x       y       z     vdW  Elec       q    Type
REMARK                         _______ _______ _______ _____ _____    ______ ____
ROOT
ATOM      3  N   UNL     1      -4.841 -11.289  12.866  0.00  0.00    -0.299 NA
ATOM      5  N   UNL     1      -1.854 -11.047  16.931  0.00  0.00    -0.360 N 
ATOM      6  C   UNL     1      -5.738 -11.055  14.006  0.00  0.00    +0.085 C 
ATOM      7  C   UNL     1      -3.788 -10.297  12.706  0.00  0.00    +0.145 C 
ATOM      8  C   UNL     1      -5.089 -11.124  15.392  0.00  0.00    -0.021 A 
ATOM      9  C   UNL     1      -2.476 -10.765  13.330  0.00  0.00    +0.065 C 
ATOM     11  C   UNL     1      -3.690 -11.055  15.648  0.00  0.00    +0.008 A 
ATOM     12  C   UNL     1      -2.527 -10.903  14.816  0.00  0.00    -0.020 A 
ATOM     15  C   UNL     1      -3.226 -11.116  16.967  0.00  0.00    +0.047 A 
ATOM     16  C   UNL     1      -1.423 -10.912  15.643  0.00  0.00    +0.087 A 
ATOM     17  C   UNL     1      -5.931 -11.183  16.532  0.00  0.00    +0.006 A 
ATOM     20  C   UNL     1      -4.069 -11.222  18.075  0.00  0.00    +0.026 A 
ATOM     23  C   UNL     1      -5.438 -11.242  17.834  0.00  0.00    +0.002 A 
ATOM     26  H   UNL     1      -4.456 -12.233  12.893  0.00  0.00    +0.123 HD
ATOM     27  H   UNL     1      -1.252 -11.073  17.743  0.00  0.00    +0.165 HD
ENDROOT
BRANCH   7  14
ATOM      1  O   UNL     1      -6.765  -8.498   9.055  0.00  0.00    -0.377 OA
ATOM      2  O   UNL     1      -2.653 -10.715  10.678  0.00  0.00    -0.274 OA
ATOM      4  N   UNL     1      -4.549  -9.381  10.554  0.00  0.00    -0.296 N 
ATOM     14  C   UNL     1      -3.604 -10.154  11.226  0.00  0.00    +0.233 C 
ATOM     18  C   UNL     1      -5.615  -8.598  11.188  0.00  0.00    +0.136 C 
ATOM     19  C   UNL     1      -4.446  -9.193   9.107  0.00  0.00    +0.136 C 
ATOM     24  C   UNL     1      -6.929  -8.797  10.443  0.00  0.00    +0.179 C 
ATOM     25  C   UNL     1      -5.807  -9.372   8.451  0.00  0.00    +0.179 C 
ENDBRANCH   7  14
BRANCH   6  10
ATOM     10  C   UNL     1      -6.868 -12.085  13.831  0.00  0.00    +0.026 C 
BRANCH  10  13
ATOM     13  C   UNL     1      -8.252 -11.440  13.714  0.00  0.00    -0.015 C 
ATOM     21  C   UNL     1      -8.105  -9.918  13.756  0.00  0.00    +0.007 C 
ATOM     22  C   UNL     1      -9.211 -11.898  14.814  0.00  0.00    +0.007 C 
ENDBRANCH  10  13
ENDBRANCH   6  10
TORSDOF 3
ENDMDL
