MODEL 1
REMARK VINA RESULT:      -7.1      0.000      0.000
REMARK  Name = 11912171
REMARK  6 active torsions:
REMARK  status: ('A' for Active; 'I' for Inactive)
REMARK    1  A    between atoms: O_3  and  C_26
REMARK    2  A    between atoms: N_4  and  C_14
REMARK    3  A    between atoms: C_14  and  C_19
REMARK    4  A    between atoms: C_17  and  C_20
REMARK    5  A    between atoms: C_22  and  C_26
REMARK    6  A    between atoms: C_27  and  C_30
REMARK                            x       y       z     vdW  Elec       q    Type
REMARK                         _______ _______ _______ _____ _____    ______ ____
ROOT
ATOM      1  O   UNL     1      12.378   7.596   2.964  0.00  0.00    -0.267 OA
ATOM      4  N   UNL     1      13.448   4.533  -0.859  0.00  0.00    -0.294 NA
ATOM      5  N   UNL     1      12.915   5.483   2.138  0.00  0.00    -0.311 N 
ATOM      7  C   UNL     1      15.129   4.983   0.946  0.00  0.00    +0.024 C 
ATOM      8  C   UNL     1      13.482   3.196   1.250  0.00  0.00    +0.050 C 
ATOM      9  C   UNL     1      14.938   3.576   1.500  0.00  0.00    +0.017 C 
ATOM     10  C   UNL     1      14.807   5.005  -0.562  0.00  0.00    +0.090 C 
ATOM     11  C   UNL     1      13.197   3.210  -0.269  0.00  0.00    +0.094 C 
ATOM     12  C   UNL     1      14.252   5.953   1.750  0.00  0.00    +0.130 C 
ATOM     13  C   UNL     1      12.545   4.145   1.974  0.00  0.00    +0.026 A 
ATOM     15  C   UNL     1      11.362   3.712   2.438  0.00  0.00    +0.022 A 
ATOM     16  C   UNL     1      12.074   6.418   2.772  0.00  0.00    +0.259 A 
ATOM     17  C   UNL     1      10.739   5.911   3.250  0.00  0.00    +0.047 A 
ATOM     18  C   UNL     1      10.447   4.612   3.079  0.00  0.00    +0.015 A 
ENDROOT
BRANCH  17  20
ATOM     20  C   UNL     1       9.763   6.812   3.887  0.00  0.00    -0.011 A 
ATOM     24  C   UNL     1       9.696   6.898   5.278  0.00  0.00    +0.027 A 
ATOM     25  C   UNL     1       8.906   7.580   3.099  0.00  0.00    +0.009 A 
ATOM     27  C   UNL     1       8.773   7.754   5.881  0.00  0.00    +0.052 A 
ATOM     28  C   UNL     1       7.982   8.435   3.702  0.00  0.00    +0.002 A 
ATOM     29  C   UNL     1       7.915   8.521   5.092  0.00  0.00    +0.019 A 
BRANCH  27  30
ATOM      6  N   UNL     1       8.646   7.913   8.463  0.00  0.00    -0.191 NA
ATOM     30  C   UNL     1       8.703   7.841   7.305  0.00  0.00    +0.099 C 
ENDBRANCH  27  30
ENDBRANCH  17  20
BRANCH   4  14
ATOM     14  C   UNL     1      13.201   4.518  -2.299  0.00  0.00    +0.158 C 
BRANCH  14  19
ATOM      2  O   UNL     1      11.375   3.252  -3.213  0.00  0.00    -0.461 OA
ATOM     19  C   UNL     1      11.732   4.391  -2.595  0.00  0.00    +0.119 A 
ATOM     21  C   UNL     1      10.685   5.211  -2.357  0.00  0.00    +0.046 A 
ATOM     22  C   UNL     1      10.030   3.341  -3.381  0.00  0.00    +0.131 A 
ATOM     23  C   UNL     1       9.558   4.528  -2.872  0.00  0.00    +0.047 A 
BRANCH  22  26
ATOM     26  C   UNL     1       9.381   2.202  -4.046  0.00  0.00    +0.230 C 
BRANCH  26   3
ATOM      3  O   UNL     1       9.165   1.182  -3.069  0.00  0.00    -0.387 OA
ATOM     31  H   UNL     1       9.175   0.333  -3.541  0.00  0.00    +0.210 HD
ENDBRANCH  26   3
ENDBRANCH  22  26
ENDBRANCH  14  19
ENDBRANCH   4  14
TORSDOF 6
ENDMDL
MODEL 2
REMARK VINA RESULT:      -6.8     23.873     26.244
REMARK  Name = 11912171
REMARK  6 active torsions:
REMARK  status: ('A' for Active; 'I' for Inactive)
REMARK    1  A    between atoms: O_3  and  C_26
REMARK    2  A    between atoms: N_4  and  C_14
REMARK    3  A    between atoms: C_14  and  C_19
REMARK    4  A    between atoms: C_17  and  C_20
REMARK    5  A    between atoms: C_22  and  C_26
REMARK    6  A    between atoms: C_27  and  C_30
REMARK                            x       y       z     vdW  Elec       q    Type
REMARK                         _______ _______ _______ _____ _____    ______ ____
ROOT
ATOM      1  O   UNL     1      -5.802 -11.997  10.722  0.00  0.00    -0.267 OA
ATOM      4  N   UNL     1      -3.273 -10.931  14.918  0.00  0.00    -0.294 NA
ATOM      5  N   UNL     1      -3.794 -11.678  11.861  0.00  0.00    -0.311 N 
ATOM      7  C   UNL     1      -3.055 -13.170  13.810  0.00  0.00    +0.024 C 
ATOM      8  C   UNL     1      -1.622 -11.322  13.084  0.00  0.00    +0.050 C 
ATOM      9  C   UNL     1      -1.646 -12.825  13.346  0.00  0.00    +0.017 C 
ATOM     10  C   UNL     1      -3.397 -12.384  15.093  0.00  0.00    +0.090 C 
ATOM     11  C   UNL     1      -1.950 -10.564  14.391  0.00  0.00    +0.094 C 
ATOM     12  C   UNL     1      -4.036 -12.884  12.665  0.00  0.00    +0.130 C 
ATOM     13  C   UNL     1      -2.608 -10.949  11.993  0.00  0.00    +0.026 A 
ATOM     15  C   UNL     1      -2.357  -9.918  11.172  0.00  0.00    +0.022 A 
ATOM     16  C   UNL     1      -4.762 -11.358  10.890  0.00  0.00    +0.259 A 
ATOM     17  C   UNL     1      -4.469 -10.175  10.006  0.00  0.00    +0.047 A 
ATOM     18  C   UNL     1      -3.306  -9.525  10.170  0.00  0.00    +0.015 A 
ENDROOT
BRANCH  17  20
ATOM     20  C   UNL     1      -5.431  -9.726   8.986  0.00  0.00    -0.011 A 
ATOM     24  C   UNL     1      -6.519  -8.932   9.354  0.00  0.00    +0.027 A 
ATOM     25  C   UNL     1      -5.257 -10.093   7.652  0.00  0.00    +0.009 A 
ATOM     27  C   UNL     1      -7.430  -8.505   8.386  0.00  0.00    +0.052 A 
ATOM     28  C   UNL     1      -6.167  -9.666   6.685  0.00  0.00    +0.002 A 
ATOM     29  C   UNL     1      -7.254  -8.873   7.052  0.00  0.00    +0.019 A 
BRANCH  27  30
ATOM      6  N   UNL     1      -9.450  -7.034   9.067  0.00  0.00    -0.191 NA
ATOM     30  C   UNL     1      -8.544  -7.694   8.762  0.00  0.00    +0.099 C 
ENDBRANCH  27  30
ENDBRANCH  17  20
BRANCH   4  14
ATOM     14  C   UNL     1      -3.552 -10.227  16.167  0.00  0.00    +0.158 C 
BRANCH  14  19
ATOM      2  O   UNL     1      -5.400 -10.501  17.678  0.00  0.00    -0.461 OA
ATOM     19  C   UNL     1      -5.031 -10.160  16.432  0.00  0.00    +0.119 A 
ATOM     21  C   UNL     1      -6.078  -9.817  15.648  0.00  0.00    +0.046 A 
ATOM     22  C   UNL     1      -6.752 -10.372  17.701  0.00  0.00    +0.131 A 
ATOM     23  C   UNL     1      -7.217  -9.954  16.476  0.00  0.00    +0.047 A 
BRANCH  22  26
ATOM     26  C   UNL     1      -7.415 -10.692  18.973  0.00  0.00    +0.230 C 
BRANCH  26   3
ATOM      3  O   UNL     1      -6.670 -10.082  20.028  0.00  0.00    -0.387 OA
ATOM     31  H   UNL     1      -6.070  -9.439  19.615  0.00  0.00    +0.210 HD
ENDBRANCH  26   3
ENDBRANCH  22  26
ENDBRANCH  14  19
ENDBRANCH   4  14
TORSDOF 6
ENDMDL
MODEL 3
REMARK VINA RESULT:      -6.8     23.938     26.332
REMARK  Name = 11912171
REMARK  6 active torsions:
REMARK  status: ('A' for Active; 'I' for Inactive)
REMARK    1  A    between atoms: O_3  and  C_26
REMARK    2  A    between atoms: N_4  and  C_14
REMARK    3  A    between atoms: C_14  and  C_19
REMARK    4  A    between atoms: C_17  and  C_20
REMARK    5  A    between atoms: C_22  and  C_26
REMARK    6  A    between atoms: C_27  and  C_30
REMARK                            x       y       z     vdW  Elec       q    Type
REMARK                         _______ _______ _______ _____ _____    ______ ____
ROOT
ATOM      1  O   UNL     1      -6.084 -11.794  10.831  0.00  0.00    -0.267 OA
ATOM      4  N   UNL     1      -3.217 -11.119  14.888  0.00  0.00    -0.294 NA
ATOM      5  N   UNL     1      -3.989 -11.697  11.848  0.00  0.00    -0.311 N 
ATOM      7  C   UNL     1      -3.269 -13.323  13.694  0.00  0.00    +0.024 C 
ATOM      8  C   UNL     1      -1.723 -11.580  12.940  0.00  0.00    +0.050 C 
ATOM      9  C   UNL     1      -1.865 -13.084  13.152  0.00  0.00    +0.017 C 
ATOM     10  C   UNL     1      -3.459 -12.561  15.022  0.00  0.00    +0.090 C 
ATOM     11  C   UNL     1      -1.901 -10.849  14.289  0.00  0.00    +0.094 C 
ATOM     12  C   UNL     1      -4.289 -12.908  12.625  0.00  0.00    +0.130 C 
ATOM     13  C   UNL     1      -2.737 -11.080  11.928  0.00  0.00    +0.026 A 
ATOM     15  C   UNL     1      -2.446 -10.043  11.127  0.00  0.00    +0.022 A 
ATOM     16  C   UNL     1      -4.982 -11.256  10.953  0.00  0.00    +0.259 A 
ATOM     17  C   UNL     1      -4.639 -10.070  10.093  0.00  0.00    +0.047 A 
ATOM     18  C   UNL     1      -3.415  -9.530  10.202  0.00  0.00    +0.015 A 
ENDROOT
BRANCH  17  20
ATOM     20  C   UNL     1      -5.619  -9.498   9.153  0.00  0.00    -0.011 A 
ATOM     24  C   UNL     1      -5.708  -9.993   7.851  0.00  0.00    +0.027 A 
ATOM     25  C   UNL     1      -6.458  -8.462   9.563  0.00  0.00    +0.009 A 
ATOM     27  C   UNL     1      -6.638  -9.453   6.961  0.00  0.00    +0.052 A 
ATOM     28  C   UNL     1      -7.387  -7.922   8.673  0.00  0.00    +0.002 A 
ATOM     29  C   UNL     1      -7.476  -8.417   7.372  0.00  0.00    +0.019 A 
BRANCH  27  30
ATOM      6  N   UNL     1      -6.803 -10.369   4.544  0.00  0.00    -0.191 NA
ATOM     30  C   UNL     1      -6.730  -9.958   5.628  0.00  0.00    +0.099 C 
ENDBRANCH  27  30
ENDBRANCH  17  20
BRANCH   4  14
ATOM     14  C   UNL     1      -3.354 -10.443  16.176  0.00  0.00    +0.158 C 
BRANCH  14  19
ATOM      2  O   UNL     1      -5.160 -10.806  17.719  0.00  0.00    -0.461 OA
ATOM     19  C   UNL     1      -4.802 -10.265  16.542  0.00  0.00    +0.119 A 
ATOM     21  C   UNL     1      -5.830  -9.657  15.908  0.00  0.00    +0.046 A 
ATOM     22  C   UNL     1      -6.484 -10.534  17.852  0.00  0.00    +0.131 A 
ATOM     23  C   UNL     1      -6.943  -9.829  16.763  0.00  0.00    +0.047 A 
BRANCH  22  26
ATOM     26  C   UNL     1      -7.130 -11.026  19.077  0.00  0.00    +0.230 C 
BRANCH  26   3
ATOM      3  O   UNL     1      -6.864 -10.093  20.125  0.00  0.00    -0.387 OA
ATOM     31  H   UNL     1      -7.700  -9.956  20.600  0.00  0.00    +0.210 HD
ENDBRANCH  26   3
ENDBRANCH  22  26
ENDBRANCH  14  19
ENDBRANCH   4  14
TORSDOF 6
ENDMDL
MODEL 4
REMARK VINA RESULT:      -6.6      2.498      8.024
REMARK  Name = 11912171
REMARK  6 active torsions:
REMARK  status: ('A' for Active; 'I' for Inactive)
REMARK    1  A    between atoms: O_3  and  C_26
REMARK    2  A    between atoms: N_4  and  C_14
REMARK    3  A    between atoms: C_14  and  C_19
REMARK    4  A    between atoms: C_17  and  C_20
REMARK    5  A    between atoms: C_22  and  C_26
REMARK    6  A    between atoms: C_27  and  C_30
REMARK                            x       y       z     vdW  Elec       q    Type
REMARK                         _______ _______ _______ _____ _____    ______ ____
ROOT
ATOM      1  O   UNL     1      10.400   6.779   0.958  0.00  0.00    -0.267 OA
ATOM      4  N   UNL     1      10.744   7.746   5.865  0.00  0.00    -0.294 NA
ATOM      5  N   UNL     1       9.878   6.273   3.173  0.00  0.00    -0.311 N 
ATOM      7  C   UNL     1       8.539   7.859   4.677  0.00  0.00    +0.024 C 
ATOM      8  C   UNL     1       9.321   5.715   5.563  0.00  0.00    +0.050 C 
ATOM      9  C   UNL     1       8.080   6.580   5.366  0.00  0.00    +0.017 C 
ATOM     10  C   UNL     1       9.581   8.586   5.552  0.00  0.00    +0.090 C 
ATOM     11  C   UNL     1      10.336   6.463   6.458  0.00  0.00    +0.094 C 
ATOM     12  C   UNL     1       9.082   7.504   3.286  0.00  0.00    +0.130 C 
ATOM     13  C   UNL     1       9.951   5.361   4.229  0.00  0.00    +0.026 A 
ATOM     15  C   UNL     1      10.589   4.191   4.066  0.00  0.00    +0.022 A 
ATOM     16  C   UNL     1      10.471   6.015   1.922  0.00  0.00    +0.259 A 
ATOM     17  C   UNL     1      11.209   4.711   1.780  0.00  0.00    +0.047 A 
ATOM     18  C   UNL     1      11.231   3.868   2.824  0.00  0.00    +0.015 A 
ENDROOT
BRANCH  17  20
ATOM     20  C   UNL     1      11.904   4.358   0.530  0.00  0.00    -0.011 A 
ATOM     24  C   UNL     1      13.297   4.419   0.463  0.00  0.00    +0.027 A 
ATOM     25  C   UNL     1      11.171   3.962  -0.589  0.00  0.00    +0.009 A 
ATOM     27  C   UNL     1      13.955   4.083  -0.721  0.00  0.00    +0.052 A 
ATOM     28  C   UNL     1      11.828   3.626  -1.773  0.00  0.00    +0.002 A 
ATOM     29  C   UNL     1      13.220   3.688  -1.839  0.00  0.00    +0.019 A 
BRANCH  27  30
ATOM      6  N   UNL     1      16.540   4.198  -0.845  0.00  0.00    -0.191 NA
ATOM     30  C   UNL     1      15.380   4.147  -0.790  0.00  0.00    +0.099 C 
ENDBRANCH  27  30
ENDBRANCH  17  20
BRANCH   4  14
ATOM     14  C   UNL     1      11.680   8.451   6.738  0.00  0.00    +0.158 C 
BRANCH  14  19
ATOM      2  O   UNL     1      13.198   7.787   4.998  0.00  0.00    -0.461 OA
ATOM     19  C   UNL     1      13.058   8.483   6.139  0.00  0.00    +0.119 A 
ATOM     21  C   UNL     1      14.203   9.087   6.530  0.00  0.00    +0.046 A 
ATOM     22  C   UNL     1      14.497   7.949   4.634  0.00  0.00    +0.131 A 
ATOM     23  C   UNL     1      15.158   8.739   5.545  0.00  0.00    +0.047 A 
BRANCH  22  26
ATOM     26  C   UNL     1      14.914   7.275   3.397  0.00  0.00    +0.230 C 
BRANCH  26   3
ATOM      3  O   UNL     1      15.450   5.997   3.746  0.00  0.00    -0.387 OA
ATOM     31  H   UNL     1      15.918   5.663   2.963  0.00  0.00    +0.210 HD
ENDBRANCH  26   3
ENDBRANCH  22  26
ENDBRANCH  14  19
ENDBRANCH   4  14
TORSDOF 6
ENDMDL
MODEL 5
REMARK VINA RESULT:      -6.5     18.242     21.965
REMARK  Name = 11912171
REMARK  6 active torsions:
REMARK  status: ('A' for Active; 'I' for Inactive)
REMARK    1  A    between atoms: O_3  and  C_26
REMARK    2  A    between atoms: N_4  and  C_14
REMARK    3  A    between atoms: C_14  and  C_19
REMARK    4  A    between atoms: C_17  and  C_20
REMARK    5  A    between atoms: C_22  and  C_26
REMARK    6  A    between atoms: C_27  and  C_30
REMARK                            x       y       z     vdW  Elec       q    Type
REMARK                         _______ _______ _______ _____ _____    ______ ____
ROOT
ATOM      1  O   UNL     1      16.650   9.882  19.974  0.00  0.00    -0.267 OA
ATOM      4  N   UNL     1      11.915   8.728  21.154  0.00  0.00    -0.294 NA
ATOM      5  N   UNL     1      14.774   8.515  19.755  0.00  0.00    -0.311 N 
ATOM      7  C   UNL     1      12.546   9.363  18.811  0.00  0.00    +0.024 C 
ATOM      8  C   UNL     1      12.754   7.030  19.525  0.00  0.00    +0.050 C 
ATOM      9  C   UNL     1      12.363   7.922  18.351  0.00  0.00    +0.017 C 
ATOM     10  C   UNL     1      11.651   9.644  20.037  0.00  0.00    +0.090 C 
ATOM     11  C   UNL     1      11.829   7.322  20.728  0.00  0.00    +0.094 C 
ATOM     12  C   UNL     1      14.034   9.604  19.101  0.00  0.00    +0.130 C 
ATOM     13  C   UNL     1      14.206   7.247  19.908  0.00  0.00    +0.026 A 
ATOM     15  C   UNL     1      14.938   6.238  20.405  0.00  0.00    +0.022 A 
ATOM     16  C   UNL     1      16.105   8.787  20.124  0.00  0.00    +0.259 A 
ATOM     17  C   UNL     1      16.890   7.645  20.711  0.00  0.00    +0.047 A 
ATOM     18  C   UNL     1      16.297   6.445  20.817  0.00  0.00    +0.015 A 
ENDROOT
BRANCH  17  20
ATOM     20  C   UNL     1      18.277   7.827  21.171  0.00  0.00    -0.011 A 
ATOM     24  C   UNL     1      19.276   6.949  20.746  0.00  0.00    +0.027 A 
ATOM     25  C   UNL     1      18.595   8.878  22.032  0.00  0.00    +0.009 A 
ATOM     27  C   UNL     1      20.590   7.124  21.181  0.00  0.00    +0.052 A 
ATOM     28  C   UNL     1      19.909   9.053  22.466  0.00  0.00    +0.002 A 
ATOM     29  C   UNL     1      20.907   8.176  22.041  0.00  0.00    +0.019 A 
BRANCH  27  30
ATOM      6  N   UNL     1      22.444   5.494  20.394  0.00  0.00    -0.191 NA
ATOM     30  C   UNL     1      21.612   6.225  20.747  0.00  0.00    +0.099 C 
ENDBRANCH  27  30
ENDBRANCH  17  20
BRANCH   4  14
ATOM     14  C   UNL     1      11.012   8.991  22.272  0.00  0.00    +0.158 C 
BRANCH  14  19
ATOM      2  O   UNL     1      12.774  10.349  23.180  0.00  0.00    -0.461 OA
ATOM     19  C   UNL     1      11.445  10.209  23.041  0.00  0.00    +0.119 A 
ATOM     21  C   UNL     1      10.747  11.206  23.629  0.00  0.00    +0.046 A 
ATOM     22  C   UNL     1      12.943  11.493  23.893  0.00  0.00    +0.131 A 
ATOM     23  C   UNL     1      11.726  12.058  24.194  0.00  0.00    +0.047 A 
BRANCH  22  26
ATOM     26  C   UNL     1      14.331  11.879  24.186  0.00  0.00    +0.230 C 
BRANCH  26   3
ATOM      3  O   UNL     1      14.855  10.957  25.144  0.00  0.00    -0.387 OA
ATOM     31  H   UNL     1      15.391  10.313  24.653  0.00  0.00    +0.210 HD
ENDBRANCH  26   3
ENDBRANCH  22  26
ENDBRANCH  14  19
ENDBRANCH   4  14
TORSDOF 6
ENDMDL
MODEL 6
REMARK VINA RESULT:      -6.5     26.612     29.571
REMARK  Name = 11912171
REMARK  6 active torsions:
REMARK  status: ('A' for Active; 'I' for Inactive)
REMARK    1  A    between atoms: O_3  and  C_26
REMARK    2  A    between atoms: N_4  and  C_14
REMARK    3  A    between atoms: C_14  and  C_19
REMARK    4  A    between atoms: C_17  and  C_20
REMARK    5  A    between atoms: C_22  and  C_26
REMARK    6  A    between atoms: C_27  and  C_30
REMARK                            x       y       z     vdW  Elec       q    Type
REMARK                         _______ _______ _______ _____ _____    ______ ____
ROOT
ATOM      1  O   UNL     1      -5.755 -13.028  15.655  0.00  0.00    -0.267 OA
ATOM      4  N   UNL     1      -9.849 -11.408  18.055  0.00  0.00    -0.294 NA
ATOM      5  N   UNL     1      -6.875 -12.478  17.625  0.00  0.00    -0.311 N 
ATOM      7  C   UNL     1      -8.967 -13.727  18.423  0.00  0.00    +0.024 C 
ATOM      8  C   UNL     1      -8.076 -11.873  19.753  0.00  0.00    +0.050 C 
ATOM      9  C   UNL     1      -8.484 -13.342  19.816  0.00  0.00    +0.017 C 
ATOM     10  C   UNL     1     -10.164 -12.842  18.016  0.00  0.00    +0.090 C 
ATOM     11  C   UNL     1      -9.299 -11.014  19.362  0.00  0.00    +0.094 C 
ATOM     12  C   UNL     1      -7.791 -13.613  17.443  0.00  0.00    +0.130 C 
ATOM     13  C   UNL     1      -6.946 -11.669  18.762  0.00  0.00    +0.026 A 
ATOM     15  C   UNL     1      -6.029 -10.709  18.962  0.00  0.00    +0.022 A 
ATOM     16  C   UNL     1      -5.869 -12.314  16.653  0.00  0.00    +0.259 A 
ATOM     17  C   UNL     1      -4.877 -11.207  16.887  0.00  0.00    +0.047 A 
ATOM     18  C   UNL     1      -4.986 -10.474  18.006  0.00  0.00    +0.015 A 
ENDROOT
BRANCH  17  20
ATOM     20  C   UNL     1      -3.810 -10.918  15.914  0.00  0.00    -0.011 A 
ATOM     24  C   UNL     1      -4.120 -10.761  14.563  0.00  0.00    +0.027 A 
ATOM     25  C   UNL     1      -2.487 -10.801  16.343  0.00  0.00    +0.009 A 
ATOM     27  C   UNL     1      -3.109 -10.486  13.641  0.00  0.00    +0.052 A 
ATOM     28  C   UNL     1      -1.476 -10.525  15.422  0.00  0.00    +0.002 A 
ATOM     29  C   UNL     1      -1.787 -10.369  14.071  0.00  0.00    +0.019 A 
BRANCH  27  30
ATOM      6  N   UNL     1      -3.684 -10.197  11.132  0.00  0.00    -0.191 NA
ATOM     30  C   UNL     1      -3.426 -10.326  12.258  0.00  0.00    +0.099 C 
ENDBRANCH  27  30
ENDBRANCH  17  20
BRANCH   4  14
ATOM     14  C   UNL     1     -11.021 -10.604  17.717  0.00  0.00    +0.158 C 
BRANCH  14  19
ATOM      2  O   UNL     1     -10.731  -8.414  16.773  0.00  0.00    -0.461 OA
ATOM     19  C   UNL     1     -10.752  -9.734  16.520  0.00  0.00    +0.119 A 
ATOM     21  C   UNL     1     -10.524 -10.025  15.220  0.00  0.00    +0.046 A 
ATOM     22  C   UNL     1     -10.476  -7.823  15.576  0.00  0.00    +0.131 A 
ATOM     23  C   UNL     1     -10.341  -8.771  14.589  0.00  0.00    +0.047 A 
BRANCH  22  26
ATOM     26  C   UNL     1     -10.401  -6.355  15.578  0.00  0.00    +0.230 C 
BRANCH  26   3
ATOM      3  O   UNL     1     -11.065  -5.878  16.750  0.00  0.00    -0.387 OA
ATOM     31  H   UNL     1     -11.444  -6.654  17.196  0.00  0.00    +0.210 HD
ENDBRANCH  26   3
ENDBRANCH  22  26
ENDBRANCH  14  19
ENDBRANCH   4  14
TORSDOF 6
ENDMDL
MODEL 7
REMARK VINA RESULT:      -6.4      2.850      7.854
REMARK  Name = 11912171
REMARK  6 active torsions:
REMARK  status: ('A' for Active; 'I' for Inactive)
REMARK    1  A    between atoms: O_3  and  C_26
REMARK    2  A    between atoms: N_4  and  C_14
REMARK    3  A    between atoms: C_14  and  C_19
REMARK    4  A    between atoms: C_17  and  C_20
REMARK    5  A    between atoms: C_22  and  C_26
REMARK    6  A    between atoms: C_27  and  C_30
REMARK                            x       y       z     vdW  Elec       q    Type
REMARK                         _______ _______ _______ _____ _____    ______ ____
ROOT
ATOM      1  O   UNL     1      10.378   3.978   3.288  0.00  0.00    -0.267 OA
ATOM      4  N   UNL     1       8.965   8.134   5.711  0.00  0.00    -0.294 NA
ATOM      5  N   UNL     1      10.829   5.726   4.763  0.00  0.00    -0.311 N 
ATOM      7  C   UNL     1       9.555   6.044   6.965  0.00  0.00    +0.024 C 
ATOM      8  C   UNL     1      11.325   7.619   6.347  0.00  0.00    +0.050 C 
ATOM      9  C   UNL     1      10.851   6.679   7.452  0.00  0.00    +0.017 C 
ATOM     10  C   UNL     1       8.503   7.137   6.686  0.00  0.00    +0.090 C 
ATOM     11  C   UNL     1      10.259   8.711   6.105  0.00  0.00    +0.094 C 
ATOM     12  C   UNL     1       9.858   5.189   5.727  0.00  0.00    +0.130 C 
ATOM     13  C   UNL     1      11.599   6.852   5.067  0.00  0.00    +0.026 A 
ATOM     15  C   UNL     1      12.558   7.259   4.221  0.00  0.00    +0.022 A 
ATOM     16  C   UNL     1      11.014   4.994   3.575  0.00  0.00    +0.259 A 
ATOM     17  C   UNL     1      12.073   5.495   2.630  0.00  0.00    +0.047 A 
ATOM     18  C   UNL     1      12.791   6.572   2.983  0.00  0.00    +0.015 A 
ENDROOT
BRANCH  17  20
ATOM     20  C   UNL     1      12.321   4.831   1.338  0.00  0.00    -0.011 A 
ATOM     24  C   UNL     1      11.333   4.830   0.352  0.00  0.00    +0.027 A 
ATOM     25  C   UNL     1      13.544   4.204   1.099  0.00  0.00    +0.009 A 
ATOM     27  C   UNL     1      11.569   4.203  -0.872  0.00  0.00    +0.052 A 
ATOM     28  C   UNL     1      13.780   3.577  -0.125  0.00  0.00    +0.002 A 
ATOM     29  C   UNL     1      12.792   3.576  -1.109  0.00  0.00    +0.019 A 
BRANCH  27  30
ATOM      6  N   UNL     1       9.735   4.200  -2.701  0.00  0.00    -0.191 NA
ATOM     30  C   UNL     1      10.558   4.201  -1.881  0.00  0.00    +0.099 C 
ENDBRANCH  27  30
ENDBRANCH  17  20
BRANCH   4  14
ATOM     14  C   UNL     1       7.963   9.179   5.516  0.00  0.00    +0.158 C 
BRANCH  14  19
ATOM      2  O   UNL     1       6.365   9.861   3.856  0.00  0.00    -0.461 OA
ATOM     19  C   UNL     1       7.554   9.273   4.072  0.00  0.00    +0.119 A 
ATOM     21  C   UNL     1       8.159   8.875   2.930  0.00  0.00    +0.046 A 
ATOM     22  C   UNL     1       6.194   9.842   2.509  0.00  0.00    +0.131 A 
ATOM     23  C   UNL     1       7.269   9.246   1.894  0.00  0.00    +0.047 A 
BRANCH  22  26
ATOM     26  C   UNL     1       4.947  10.436   2.003  0.00  0.00    +0.230 C 
BRANCH  26   3
ATOM      3  O   UNL     1       3.898   9.483   2.180  0.00  0.00    -0.387 OA
ATOM     31  H   UNL     1       4.310   8.603   2.165  0.00  0.00    +0.210 HD
ENDBRANCH  26   3
ENDBRANCH  22  26
ENDBRANCH  14  19
ENDBRANCH   4  14
TORSDOF 6
ENDMDL
MODEL 8
REMARK VINA RESULT:      -6.3     25.651     28.586
REMARK  Name = 11912171
REMARK  6 active torsions:
REMARK  status: ('A' for Active; 'I' for Inactive)
REMARK    1  A    between atoms: O_3  and  C_26
REMARK    2  A    between atoms: N_4  and  C_14
REMARK    3  A    between atoms: C_14  and  C_19
REMARK    4  A    between atoms: C_17  and  C_20
REMARK    5  A    between atoms: C_22  and  C_26
REMARK    6  A    between atoms: C_27  and  C_30
REMARK                            x       y       z     vdW  Elec       q    Type
REMARK                         _______ _______ _______ _____ _____    ______ ____
ROOT
ATOM      1  O   UNL     1      -6.058 -12.583  14.085  0.00  0.00    -0.267 OA
ATOM      4  N   UNL     1      -8.517 -10.763  18.058  0.00  0.00    -0.294 NA
ATOM      5  N   UNL     1      -6.149 -12.052  16.354  0.00  0.00    -0.311 N 
ATOM      7  C   UNL     1      -7.800 -13.164  17.970  0.00  0.00    +0.024 C 
ATOM      8  C   UNL     1      -6.239 -11.470  18.801  0.00  0.00    +0.050 C 
ATOM      9  C   UNL     1      -6.723 -12.900  19.016  0.00  0.00    +0.017 C 
ATOM     10  C   UNL     1      -8.959 -12.160  18.141  0.00  0.00    +0.090 C 
ATOM     11  C   UNL     1      -7.418 -10.490  18.997  0.00  0.00    +0.094 C 
ATOM     12  C   UNL     1      -7.162 -13.095  16.576  0.00  0.00    +0.130 C 
ATOM     13  C   UNL     1      -5.637 -11.306  17.418  0.00  0.00    +0.026 A 
ATOM     15  C   UNL     1      -4.634 -10.439  17.210  0.00  0.00    +0.022 A 
ATOM     16  C   UNL     1      -5.655 -11.919  15.042  0.00  0.00    +0.259 A 
ATOM     17  C   UNL     1      -4.554 -10.914  14.833  0.00  0.00    +0.047 A 
ATOM     18  C   UNL     1      -4.092 -10.238  15.897  0.00  0.00    +0.015 A 
ENDROOT
BRANCH  17  20
ATOM     20  C   UNL     1      -3.993 -10.662  13.495  0.00  0.00    -0.011 A 
ATOM     24  C   UNL     1      -4.723  -9.928  12.558  0.00  0.00    +0.027 A 
ATOM     25  C   UNL     1      -2.731 -11.155  13.163  0.00  0.00    +0.009 A 
ATOM     27  C   UNL     1      -4.190  -9.688  11.291  0.00  0.00    +0.052 A 
ATOM     28  C   UNL     1      -2.198 -10.914  11.896  0.00  0.00    +0.002 A 
ATOM     29  C   UNL     1      -2.928 -10.182  10.960  0.00  0.00    +0.019 A 
BRANCH  27  30
ATOM      6  N   UNL     1      -5.545  -8.329   9.552  0.00  0.00    -0.191 NA
ATOM     30  C   UNL     1      -4.937  -8.939  10.332  0.00  0.00    +0.099 C 
ENDBRANCH  27  30
ENDBRANCH  17  20
BRANCH   4  14
ATOM     14  C   UNL     1      -9.632  -9.845  18.278  0.00  0.00    +0.158 C 
BRANCH  14  19
ATOM      2  O   UNL     1     -10.515  -7.841  17.291  0.00  0.00    -0.461 OA
ATOM     19  C   UNL     1      -9.894  -9.009  17.056  0.00  0.00    +0.119 A 
ATOM     21  C   UNL     1      -9.621  -9.206  15.747  0.00  0.00    +0.046 A 
ATOM     22  C   UNL     1     -10.650  -7.254  16.074  0.00  0.00    +0.131 A 
ATOM     23  C   UNL     1     -10.117  -8.054  15.091  0.00  0.00    +0.047 A 
BRANCH  22  26
ATOM     26  C   UNL     1     -11.311  -5.941  16.053  0.00  0.00    +0.230 C 
BRANCH  26   3
ATOM      3  O   UNL     1     -11.258  -5.437  14.718  0.00  0.00    -0.387 OA
ATOM     31  H   UNL     1     -11.453  -4.487  14.766  0.00  0.00    +0.210 HD
ENDBRANCH  26   3
ENDBRANCH  22  26
ENDBRANCH  14  19
ENDBRANCH   4  14
TORSDOF 6
ENDMDL
MODEL 9
REMARK VINA RESULT:      -6.3     26.998     30.412
REMARK  Name = 11912171
REMARK  6 active torsions:
REMARK  status: ('A' for Active; 'I' for Inactive)
REMARK    1  A    between atoms: O_3  and  C_26
REMARK    2  A    between atoms: N_4  and  C_14
REMARK    3  A    between atoms: C_14  and  C_19
REMARK    4  A    between atoms: C_17  and  C_20
REMARK    5  A    between atoms: C_22  and  C_26
REMARK    6  A    between atoms: C_27  and  C_30
REMARK                            x       y       z     vdW  Elec       q    Type
REMARK                         _______ _______ _______ _____ _____    ______ ____
ROOT
ATOM      1  O   UNL     1     -15.024   9.018  19.785  0.00  0.00    -0.267 OA
ATOM      4  N   UNL     1     -11.241   9.129  16.495  0.00  0.00    -0.294 NA
ATOM      5  N   UNL     1     -12.755   9.246  19.301  0.00  0.00    -0.311 N 
ATOM      7  C   UNL     1     -11.832  11.151  17.855  0.00  0.00    +0.024 C 
ATOM      8  C   UNL     1     -10.302   9.480  18.783  0.00  0.00    +0.050 C 
ATOM      9  C   UNL     1     -10.572  10.979  18.694  0.00  0.00    +0.017 C 
ATOM     10  C   UNL     1     -11.619  10.547  16.451  0.00  0.00    +0.090 C 
ATOM     11  C   UNL     1     -10.075   8.910  17.365  0.00  0.00    +0.094 C 
ATOM     12  C   UNL     1     -13.012  10.512  18.598  0.00  0.00    +0.130 C 
ATOM     13  C   UNL     1     -11.453   8.765  19.465  0.00  0.00    +0.026 A 
ATOM     15  C   UNL     1     -11.230   7.667  20.205  0.00  0.00    +0.022 A 
ATOM     16  C   UNL     1     -13.867   8.605  19.880  0.00  0.00    +0.259 A 
ATOM     17  C   UNL     1     -13.589   7.358  20.676  0.00  0.00    +0.047 A 
ATOM     18  C   UNL     1     -12.317   6.953  20.812  0.00  0.00    +0.015 A 
ENDROOT
BRANCH  17  20
ATOM     20  C   UNL     1     -14.682   6.584  21.289  0.00  0.00    -0.011 A 
ATOM     24  C   UNL     1     -15.641   5.969  20.483  0.00  0.00    +0.027 A 
ATOM     25  C   UNL     1     -14.759   6.464  22.677  0.00  0.00    +0.009 A 
ATOM     27  C   UNL     1     -16.675   5.234  21.065  0.00  0.00    +0.052 A 
ATOM     28  C   UNL     1     -15.792   5.729  23.259  0.00  0.00    +0.002 A 
ATOM     29  C   UNL     1     -16.751   5.115  22.453  0.00  0.00    +0.019 A 
BRANCH  27  30
ATOM      6  N   UNL     1     -18.456   4.094  19.569  0.00  0.00    -0.191 NA
ATOM     30  C   UNL     1     -17.657   4.606  20.240  0.00  0.00    +0.099 C 
ENDBRANCH  27  30
ENDBRANCH  17  20
BRANCH   4  14
ATOM     14  C   UNL     1     -10.997   8.609  15.152  0.00  0.00    +0.158 C 
BRANCH  14  19
ATOM      2  O   UNL     1     -13.263   7.818  15.058  0.00  0.00    -0.461 OA
ATOM     19  C   UNL     1     -12.284   8.451  14.390  0.00  0.00    +0.119 A 
ATOM     21  C   UNL     1     -12.653   8.828  13.145  0.00  0.00    +0.046 A 
ATOM     22  C   UNL     1     -14.318   7.785  14.202  0.00  0.00    +0.131 A 
ATOM     23  C   UNL     1     -13.993   8.392  13.012  0.00  0.00    +0.047 A 
BRANCH  22  26
ATOM     26  C   UNL     1     -15.539   7.134  14.698  0.00  0.00    +0.230 C 
BRANCH  26   3
ATOM      3  O   UNL     1     -15.638   5.848  14.083  0.00  0.00    -0.387 OA
ATOM     31  H   UNL     1     -14.754   5.447  14.122  0.00  0.00    +0.210 HD
ENDBRANCH  26   3
ENDBRANCH  22  26
ENDBRANCH  14  19
ENDBRANCH   4  14
TORSDOF 6
ENDMDL
MODEL 10
REMARK VINA RESULT:      -6.1     25.148     27.641
REMARK  Name = 11912171
REMARK  6 active torsions:
REMARK  status: ('A' for Active; 'I' for Inactive)
REMARK    1  A    between atoms: O_3  and  C_26
REMARK    2  A    between atoms: N_4  and  C_14
REMARK    3  A    between atoms: C_14  and  C_19
REMARK    4  A    between atoms: C_17  and  C_20
REMARK    5  A    between atoms: C_22  and  C_26
REMARK    6  A    between atoms: C_27  and  C_30
REMARK                            x       y       z     vdW  Elec       q    Type
REMARK                         _______ _______ _______ _____ _____    ______ ____
ROOT
ATOM      1  O   UNL     1     -12.881  -8.256  12.457  0.00  0.00    -0.267 OA
ATOM      4  N   UNL     1     -10.753  -5.125   9.169  0.00  0.00    -0.294 NA
ATOM      5  N   UNL     1     -12.743  -6.166  11.433  0.00  0.00    -0.311 N 
ATOM      7  C   UNL     1     -13.149  -5.822   8.926  0.00  0.00    +0.024 C 
ATOM      8  C   UNL     1     -12.591  -3.903  10.340  0.00  0.00    +0.050 C 
ATOM      9  C   UNL     1     -13.616  -4.433   9.342  0.00  0.00    +0.017 C 
ATOM     10  C   UNL     1     -11.749  -5.738   8.282  0.00  0.00    +0.090 C 
ATOM     11  C   UNL     1     -11.206  -3.814   9.661  0.00  0.00    +0.094 C 
ATOM     12  C   UNL     1     -13.179  -6.742  10.153  0.00  0.00    +0.130 C 
ATOM     13  C   UNL     1     -12.523  -4.792  11.568  0.00  0.00    +0.026 A 
ATOM     15  C   UNL     1     -12.236  -4.272  12.771  0.00  0.00    +0.022 A 
ATOM     16  C   UNL     1     -12.661  -7.046  12.530  0.00  0.00    +0.259 A 
ATOM     17  C   UNL     1     -12.303  -6.438  13.859  0.00  0.00    +0.047 A 
ATOM     18  C   UNL     1     -12.119  -5.110  13.929  0.00  0.00    +0.015 A 
ENDROOT
BRANCH  17  20
ATOM     20  C   UNL     1     -12.147  -7.271  15.063  0.00  0.00    -0.011 A 
ATOM     24  C   UNL     1     -10.872  -7.622  15.510  0.00  0.00    +0.027 A 
ATOM     25  C   UNL     1     -13.273  -7.710  15.760  0.00  0.00    +0.009 A 
ATOM     27  C   UNL     1     -10.725  -8.410  16.652  0.00  0.00    +0.052 A 
ATOM     28  C   UNL     1     -13.126  -8.498  16.902  0.00  0.00    +0.002 A 
ATOM     29  C   UNL     1     -11.852  -8.849  17.347  0.00  0.00    +0.019 A 
BRANCH  27  30
ATOM      6  N   UNL     1      -8.359  -9.064  17.480  0.00  0.00    -0.191 NA
ATOM     30  C   UNL     1      -9.420  -8.771  17.109  0.00  0.00    +0.099 C 
ENDBRANCH  27  30
ENDBRANCH  17  20
BRANCH   4  14
ATOM     14  C   UNL     1      -9.456  -5.014   8.505  0.00  0.00    +0.158 C 
BRANCH  14  19
ATOM      2  O   UNL     1      -8.749  -6.562   6.809  0.00  0.00    -0.461 OA
ATOM     19  C   UNL     1      -8.925  -6.370   8.127  0.00  0.00    +0.119 A 
ATOM     21  C   UNL     1      -8.585  -7.449   8.867  0.00  0.00    +0.046 A 
ATOM     22  C   UNL     1      -8.270  -7.828   6.691  0.00  0.00    +0.131 A 
ATOM     23  C   UNL     1      -8.153  -8.416   7.929  0.00  0.00    +0.047 A 
BRANCH  22  26
ATOM     26  C   UNL     1      -7.989  -8.294   5.326  0.00  0.00    +0.230 C 
BRANCH  26   3
ATOM      3  O   UNL     1      -6.697  -7.814   4.950  0.00  0.00    -0.387 OA
ATOM     31  H   UNL     1      -6.291  -8.500   4.394  0.00  0.00    +0.210 HD
ENDBRANCH  26   3
ENDBRANCH  22  26
ENDBRANCH  14  19
ENDBRANCH   4  14
TORSDOF 6
ENDMDL
