MODEL 1
REMARK VINA RESULT:      -6.4      0.000      0.000
REMARK  Name = 51137713
REMARK  3 active torsions:
REMARK  status: ('A' for Active; 'I' for Inactive)
REMARK    1  A    between atoms: C_6  and  C_10
REMARK    2  A    between atoms: C_11  and  C_12
REMARK    3  A    between atoms: C_13  and  C_16
REMARK                            x       y       z     vdW  Elec       q    Type
REMARK                         _______ _______ _______ _____ _____    ______ ____
ROOT
ATOM      2  O   UNL     1      14.280   8.240  17.718  0.00  0.00    -0.270 OA
ATOM      3  N   UNL     1      13.238   7.941  19.773  0.00  0.00    -0.297 N 
ATOM      6  C   UNL     1      11.939   8.236  21.744  0.00  0.00    +0.095 C 
ATOM      7  C   UNL     1      11.009   8.125  20.525  0.00  0.00    +0.033 C 
ATOM      8  C   UNL     1      13.245   7.636  21.204  0.00  0.00    +0.121 C 
ATOM      9  C   UNL     1      11.926   8.397  19.341  0.00  0.00    +0.109 C 
ATOM     11  C   UNL     1      14.315   7.905  18.901  0.00  0.00    +0.247 C 
ENDROOT
BRANCH   6  10
ATOM      1  O   UNL     1      11.027  10.055  23.118  0.00  0.00    -0.425 OA
ATOM      4  N   UNL     1      12.895  10.599  22.015  0.00  0.00    -0.112 NA
ATOM      5  N   UNL     1      12.492  11.703  22.745  0.00  0.00    -0.113 NA
ATOM     10  C   UNL     1      12.011   9.662  22.264  0.00  0.00    +0.222 A 
ATOM     13  C   UNL     1      11.399  11.339  23.372  0.00  0.00    +0.214 A 
ATOM     16  C   UNL     1      10.546  12.107  24.288  0.00  0.00    +0.111 C 
ENDBRANCH   6  10
BRANCH  11  12
ATOM     12  C   UNL     1      15.605   7.443  19.433  0.00  0.00    +0.037 A 
ATOM     14  C   UNL     1      16.265   8.190  20.410  0.00  0.00    +0.013 A 
ATOM     15  C   UNL     1      16.169   6.257  18.963  0.00  0.00    +0.013 A 
ATOM     17  C   UNL     1      17.489   7.751  20.915  0.00  0.00    +0.001 A 
ATOM     18  C   UNL     1      17.393   5.818  19.469  0.00  0.00    +0.001 A 
ATOM     19  C   UNL     1      18.053   6.564  20.445  0.00  0.00    +0.000 A 
ENDBRANCH  11  12
TORSDOF 2
ENDMDL
MODEL 2
REMARK VINA RESULT:      -6.3      2.975      6.488
REMARK  Name = 51137713
REMARK  3 active torsions:
REMARK  status: ('A' for Active; 'I' for Inactive)
REMARK    1  A    between atoms: C_6  and  C_10
REMARK    2  A    between atoms: C_11  and  C_12
REMARK    3  A    between atoms: C_13  and  C_16
REMARK                            x       y       z     vdW  Elec       q    Type
REMARK                         _______ _______ _______ _____ _____    ______ ____
ROOT
ATOM      2  O   UNL     1      13.968  10.754  23.067  0.00  0.00    -0.270 OA
ATOM      3  N   UNL     1      12.366   9.396  22.075  0.00  0.00    -0.297 N 
ATOM      6  C   UNL     1      11.226   7.861  20.659  0.00  0.00    +0.095 C 
ATOM      7  C   UNL     1      12.288   7.113  21.481  0.00  0.00    +0.033 C 
ATOM      8  C   UNL     1      11.059   9.160  21.460  0.00  0.00    +0.121 C 
ATOM      9  C   UNL     1      13.213   8.218  21.973  0.00  0.00    +0.109 C 
ATOM     11  C   UNL     1      12.834  10.579  22.625  0.00  0.00    +0.247 C 
ENDROOT
BRANCH   6  10
ATOM      1  O   UNL     1      10.714   8.502  18.345  0.00  0.00    -0.425 OA
ATOM      4  N   UNL     1      12.794   7.730  18.635  0.00  0.00    -0.112 NA
ATOM      5  N   UNL     1      12.641   8.054  17.299  0.00  0.00    -0.113 NA
ATOM     10  C   UNL     1      11.646   8.008  19.206  0.00  0.00    +0.222 A 
ATOM     13  C   UNL     1      11.413   8.500  17.176  0.00  0.00    +0.214 A 
ATOM     16  C   UNL     1      10.709   8.986  15.983  0.00  0.00    +0.111 C 
ENDBRANCH   6  10
BRANCH  11  12
ATOM     12  C   UNL     1      11.908  11.720  22.672  0.00  0.00    +0.037 A 
ATOM     14  C   UNL     1      11.737  12.527  21.547  0.00  0.00    +0.013 A 
ATOM     15  C   UNL     1      11.199  11.995  23.841  0.00  0.00    +0.013 A 
ATOM     17  C   UNL     1      10.857  13.608  21.592  0.00  0.00    +0.001 A 
ATOM     18  C   UNL     1      10.319  13.076  23.886  0.00  0.00    +0.001 A 
ATOM     19  C   UNL     1      10.148  13.883  22.762  0.00  0.00    +0.000 A 
ENDBRANCH  11  12
TORSDOF 2
ENDMDL
MODEL 3
REMARK VINA RESULT:      -5.8      2.398      3.892
REMARK  Name = 51137713
REMARK  3 active torsions:
REMARK  status: ('A' for Active; 'I' for Inactive)
REMARK    1  A    between atoms: C_6  and  C_10
REMARK    2  A    between atoms: C_11  and  C_12
REMARK    3  A    between atoms: C_13  and  C_16
REMARK                            x       y       z     vdW  Elec       q    Type
REMARK                         _______ _______ _______ _____ _____    ______ ____
ROOT
ATOM      2  O   UNL     1      13.411   6.507  19.495  0.00  0.00    -0.270 OA
ATOM      3  N   UNL     1      13.809   8.622  20.370  0.00  0.00    -0.297 N 
ATOM      6  C   UNL     1      13.885  10.539  21.777  0.00  0.00    +0.095 C 
ATOM      7  C   UNL     1      14.736   9.415  22.389  0.00  0.00    +0.033 C 
ATOM      8  C   UNL     1      13.760  10.084  20.316  0.00  0.00    +0.121 C 
ATOM      9  C   UNL     1      14.252   8.160  21.676  0.00  0.00    +0.109 C 
ATOM     11  C   UNL     1      13.421   7.732  19.381  0.00  0.00    +0.247 C 
ENDROOT
BRANCH   6  10
ATOM      1  O   UNL     1      12.657  11.443  23.701  0.00  0.00    -0.425 OA
ATOM      4  N   UNL     1      11.375  10.323  22.250  0.00  0.00    -0.112 NA
ATOM      5  N   UNL     1      10.564  10.775  23.276  0.00  0.00    -0.113 NA
ATOM     10  C   UNL     1      12.586  10.736  22.540  0.00  0.00    +0.222 A 
ATOM     13  C   UNL     1      11.355  11.423  24.099  0.00  0.00    +0.214 A 
ATOM     16  C   UNL     1      11.035  12.113  25.355  0.00  0.00    +0.111 C 
ENDBRANCH   6  10
BRANCH  11  12
ATOM     12  C   UNL     1      12.974   8.294  18.097  0.00  0.00    +0.037 A 
ATOM     14  C   UNL     1      11.612   8.434  17.833  0.00  0.00    +0.013 A 
ATOM     15  C   UNL     1      13.913   8.688  17.144  0.00  0.00    +0.013 A 
ATOM     17  C   UNL     1      11.189   8.968  16.616  0.00  0.00    +0.001 A 
ATOM     18  C   UNL     1      13.490   9.222  15.927  0.00  0.00    +0.001 A 
ATOM     19  C   UNL     1      12.128   9.363  15.663  0.00  0.00    +0.000 A 
ENDBRANCH  11  12
TORSDOF 2
ENDMDL
MODEL 4
REMARK VINA RESULT:      -5.8     26.441     27.761
REMARK  Name = 51137713
REMARK  3 active torsions:
REMARK  status: ('A' for Active; 'I' for Inactive)
REMARK    1  A    between atoms: C_6  and  C_10
REMARK    2  A    between atoms: C_11  and  C_12
REMARK    3  A    between atoms: C_13  and  C_16
REMARK                            x       y       z     vdW  Elec       q    Type
REMARK                         _______ _______ _______ _____ _____    ______ ____
ROOT
ATOM      2  O   UNL     1      -1.781 -10.641  16.579  0.00  0.00    -0.270 OA
ATOM      3  N   UNL     1      -3.140 -11.568  14.939  0.00  0.00    -0.297 N 
ATOM      6  C   UNL     1      -4.246 -12.055  12.889  0.00  0.00    +0.095 C 
ATOM      7  C   UNL     1      -2.754 -12.407  12.768  0.00  0.00    +0.033 C 
ATOM      8  C   UNL     1      -4.436 -11.997  14.411  0.00  0.00    +0.121 C 
ATOM      9  C   UNL     1      -2.106 -11.651  13.920  0.00  0.00    +0.109 C 
ATOM     11  C   UNL     1      -2.874 -11.058  16.200  0.00  0.00    +0.247 C 
ENDROOT
BRANCH   6  10
ATOM      1  O   UNL     1      -3.960 -10.619  10.918  0.00  0.00    -0.425 OA
ATOM      4  N   UNL     1      -5.414  -9.821  12.421  0.00  0.00    -0.112 NA
ATOM      5  N   UNL     1      -5.349  -8.924  11.370  0.00  0.00    -0.113 NA
ATOM     10  C   UNL     1      -4.587 -10.794  12.114  0.00  0.00    +0.222 A 
ATOM     13  C   UNL     1      -4.489  -9.430  10.518  0.00  0.00    +0.214 A 
ATOM     16  C   UNL     1      -4.035  -8.905   9.224  0.00  0.00    +0.111 C 
ENDBRANCH   6  10
BRANCH  11  12
ATOM     12  C   UNL     1      -3.987 -11.000  17.159  0.00  0.00    +0.037 A 
ATOM     14  C   UNL     1      -5.074 -10.159  16.916  0.00  0.00    +0.013 A 
ATOM     15  C   UNL     1      -3.958 -11.786  18.311  0.00  0.00    +0.013 A 
ATOM     17  C   UNL     1      -6.130 -10.105  17.825  0.00  0.00    +0.001 A 
ATOM     18  C   UNL     1      -5.014 -11.732  19.220  0.00  0.00    +0.001 A 
ATOM     19  C   UNL     1      -6.101 -10.891  18.977  0.00  0.00    +0.000 A 
ENDBRANCH  11  12
TORSDOF 2
ENDMDL
MODEL 5
REMARK VINA RESULT:      -5.8      2.715      6.076
REMARK  Name = 51137713
REMARK  3 active torsions:
REMARK  status: ('A' for Active; 'I' for Inactive)
REMARK    1  A    between atoms: C_6  and  C_10
REMARK    2  A    between atoms: C_11  and  C_12
REMARK    3  A    between atoms: C_13  and  C_16
REMARK                            x       y       z     vdW  Elec       q    Type
REMARK                         _______ _______ _______ _____ _____    ______ ____
ROOT
ATOM      2  O   UNL     1      14.296   8.650  21.763  0.00  0.00    -0.270 OA
ATOM      3  N   UNL     1      12.851   8.513  19.949  0.00  0.00    -0.297 N 
ATOM      6  C   UNL     1      11.938   8.358  17.758  0.00  0.00    +0.095 C 
ATOM      7  C   UNL     1      12.660   7.047  18.110  0.00  0.00    +0.033 C 
ATOM      8  C   UNL     1      11.726   8.987  19.142  0.00  0.00    +0.121 C 
ATOM      9  C   UNL     1      13.553   7.426  19.284  0.00  0.00    +0.109 C 
ATOM     11  C   UNL     1      13.300   9.034  21.153  0.00  0.00    +0.247 C 
ENDROOT
BRANCH   6  10
ATOM      1  O   UNL     1      13.242  10.360  17.193  0.00  0.00    -0.425 OA
ATOM      4  N   UNL     1      13.005   8.922  15.496  0.00  0.00    -0.112 NA
ATOM      5  N   UNL     1      13.754   9.995  15.046  0.00  0.00    -0.113 NA
ATOM     10  C   UNL     1      12.729   9.178  16.753  0.00  0.00    +0.222 A 
ATOM     13  C   UNL     1      13.867  10.808  16.070  0.00  0.00    +0.214 A 
ATOM     16  C   UNL     1      14.559  12.099  16.167  0.00  0.00    +0.111 C 
ENDBRANCH   6  10
BRANCH  11  12
ATOM     12  C   UNL     1      12.533  10.142  21.741  0.00  0.00    +0.037 A 
ATOM     14  C   UNL     1      12.822  11.459  21.384  0.00  0.00    +0.013 A 
ATOM     15  C   UNL     1      11.515   9.876  22.657  0.00  0.00    +0.013 A 
ATOM     17  C   UNL     1      12.094  12.509  21.942  0.00  0.00    +0.001 A 
ATOM     18  C   UNL     1      10.786  10.927  23.215  0.00  0.00    +0.001 A 
ATOM     19  C   UNL     1      11.075  12.243  22.857  0.00  0.00    +0.000 A 
ENDBRANCH  11  12
TORSDOF 2
ENDMDL
MODEL 6
REMARK VINA RESULT:      -5.7     17.790     20.466
REMARK  Name = 51137713
REMARK  3 active torsions:
REMARK  status: ('A' for Active; 'I' for Inactive)
REMARK    1  A    between atoms: C_6  and  C_10
REMARK    2  A    between atoms: C_11  and  C_12
REMARK    3  A    between atoms: C_13  and  C_16
REMARK                            x       y       z     vdW  Elec       q    Type
REMARK                         _______ _______ _______ _____ _____    ______ ____
ROOT
ATOM      2  O   UNL     1      12.508   7.641   3.233  0.00  0.00    -0.270 OA
ATOM      3  N   UNL     1      12.373   5.401   2.632  0.00  0.00    -0.297 N 
ATOM      6  C   UNL     1      12.382   3.351   1.424  0.00  0.00    +0.095 C 
ATOM      7  C   UNL     1      13.809   3.919   1.488  0.00  0.00    +0.033 C 
ATOM      8  C   UNL     1      11.686   4.110   2.563  0.00  0.00    +0.121 C 
ATOM      9  C   UNL     1      13.604   5.382   1.857  0.00  0.00    +0.109 C 
ATOM     11  C   UNL     1      11.931   6.555   3.261  0.00  0.00    +0.247 C 
ENDROOT
BRANCH   6  10
ATOM      1  O   UNL     1      12.489   2.984  -1.001  0.00  0.00    -0.425 OA
ATOM      4  N   UNL     1      10.657   4.077  -0.328  0.00  0.00    -0.112 NA
ATOM      5  N   UNL     1      10.590   3.937  -1.702  0.00  0.00    -0.113 NA
ATOM     10  C   UNL     1      11.780   3.506   0.038  0.00  0.00    +0.222 A 
ATOM     13  C   UNL     1      11.679   3.293  -2.051  0.00  0.00    +0.214 A 
ATOM     16  C   UNL     1      12.130   2.871  -3.383  0.00  0.00    +0.111 C 
ENDBRANCH   6  10
BRANCH  11  12
ATOM     12  C   UNL     1      10.667   6.480   4.009  0.00  0.00    +0.037 A 
ATOM     14  C   UNL     1      10.580   5.689   5.154  0.00  0.00    +0.013 A 
ATOM     15  C   UNL     1       9.556   7.202   3.574  0.00  0.00    +0.013 A 
ATOM     17  C   UNL     1       9.381   5.619   5.864  0.00  0.00    +0.001 A 
ATOM     18  C   UNL     1       8.357   7.132   4.283  0.00  0.00    +0.001 A 
ATOM     19  C   UNL     1       8.269   6.341   5.428  0.00  0.00    +0.000 A 
ENDBRANCH  11  12
TORSDOF 2
ENDMDL
MODEL 7
REMARK VINA RESULT:      -5.7     14.975     17.500
REMARK  Name = 51137713
REMARK  3 active torsions:
REMARK  status: ('A' for Active; 'I' for Inactive)
REMARK    1  A    between atoms: C_6  and  C_10
REMARK    2  A    between atoms: C_11  and  C_12
REMARK    3  A    between atoms: C_13  and  C_16
REMARK                            x       y       z     vdW  Elec       q    Type
REMARK                         _______ _______ _______ _____ _____    ______ ____
ROOT
ATOM      2  O   UNL     1      12.098   6.286   7.510  0.00  0.00    -0.270 OA
ATOM      3  N   UNL     1      11.704   6.526   5.233  0.00  0.00    -0.297 N 
ATOM      6  C   UNL     1      11.292   6.114   2.926  0.00  0.00    +0.095 C 
ATOM      7  C   UNL     1      10.068   5.689   3.753  0.00  0.00    +0.033 C 
ATOM      8  C   UNL     1      12.029   7.041   3.902  0.00  0.00    +0.121 C 
ATOM      9  C   UNL     1      10.609   5.570   5.172  0.00  0.00    +0.109 C 
ATOM     11  C   UNL     1      12.360   6.799   6.423  0.00  0.00    +0.247 C 
ENDROOT
BRANCH   6  10
ATOM      1  O   UNL     1      13.361   5.124   2.053  0.00  0.00    -0.425 OA
ATOM      4  N   UNL     1      11.678   3.666   2.268  0.00  0.00    -0.112 NA
ATOM      5  N   UNL     1      12.774   2.983   1.772  0.00  0.00    -0.113 NA
ATOM     10  C   UNL     1      12.067   4.911   2.417  0.00  0.00    +0.222 A 
ATOM     13  C   UNL     1      13.732   3.873   1.663  0.00  0.00    +0.214 A 
ATOM     16  C   UNL     1      15.113   3.707   1.193  0.00  0.00    +0.111 C 
ENDBRANCH   6  10
BRANCH  11  12
ATOM     12  C   UNL     1      13.465   7.768   6.383  0.00  0.00    +0.037 A 
ATOM     14  C   UNL     1      13.209   9.127   6.565  0.00  0.00    +0.013 A 
ATOM     15  C   UNL     1      14.771   7.328   6.164  0.00  0.00    +0.013 A 
ATOM     17  C   UNL     1      14.258  10.045   6.528  0.00  0.00    +0.001 A 
ATOM     18  C   UNL     1      15.820   8.246   6.126  0.00  0.00    +0.001 A 
ATOM     19  C   UNL     1      15.564   9.605   6.309  0.00  0.00    +0.000 A 
ENDBRANCH  11  12
TORSDOF 2
ENDMDL
MODEL 8
REMARK VINA RESULT:      -5.7     26.214     27.556
REMARK  Name = 51137713
REMARK  3 active torsions:
REMARK  status: ('A' for Active; 'I' for Inactive)
REMARK    1  A    between atoms: C_6  and  C_10
REMARK    2  A    between atoms: C_11  and  C_12
REMARK    3  A    between atoms: C_13  and  C_16
REMARK                            x       y       z     vdW  Elec       q    Type
REMARK                         _______ _______ _______ _____ _____    ______ ____
ROOT
ATOM      2  O   UNL     1      -3.875 -12.910  11.262  0.00  0.00    -0.270 OA
ATOM      3  N   UNL     1      -2.972 -11.559  12.921  0.00  0.00    -0.297 N 
ATOM      6  C   UNL     1      -2.328 -10.622  15.012  0.00  0.00    +0.095 C 
ATOM      7  C   UNL     1      -1.601 -11.959  14.799  0.00  0.00    +0.033 C 
ATOM      8  C   UNL     1      -2.769 -10.269  13.584  0.00  0.00    +0.121 C 
ATOM      9  C   UNL     1      -2.410 -12.646  13.707  0.00  0.00    +0.109 C 
ATOM     11  C   UNL     1      -3.667 -11.799  11.746  0.00  0.00    +0.247 C 
ENDROOT
BRANCH   6  10
ATOM      1  O   UNL     1      -3.118 -11.400  17.202  0.00  0.00    -0.425 OA
ATOM      4  N   UNL     1      -4.665 -10.302  16.016  0.00  0.00    -0.112 NA
ATOM      5  N   UNL     1      -5.236 -10.680  17.218  0.00  0.00    -0.113 NA
ATOM     10  C   UNL     1      -3.430 -10.743  16.051  0.00  0.00    +0.222 A 
ATOM     13  C   UNL     1      -4.297 -11.317  17.877  0.00  0.00    +0.214 A 
ATOM     16  C   UNL     1      -4.343 -11.935  19.209  0.00  0.00    +0.111 C 
ENDBRANCH   6  10
BRANCH  11  12
ATOM     12  C   UNL     1      -4.211 -10.637  11.028  0.00  0.00    +0.037 A 
ATOM     14  C   UNL     1      -5.480 -10.153  11.343  0.00  0.00    +0.013 A 
ATOM     15  C   UNL     1      -3.455 -10.017  10.033  0.00  0.00    +0.013 A 
ATOM     17  C   UNL     1      -5.995  -9.050  10.662  0.00  0.00    +0.001 A 
ATOM     18  C   UNL     1      -3.970  -8.914   9.352  0.00  0.00    +0.001 A 
ATOM     19  C   UNL     1      -5.240  -8.430   9.666  0.00  0.00    +0.000 A 
ENDBRANCH  11  12
TORSDOF 2
ENDMDL
MODEL 9
REMARK VINA RESULT:      -5.6     26.767     27.976
REMARK  Name = 51137713
REMARK  3 active torsions:
REMARK  status: ('A' for Active; 'I' for Inactive)
REMARK    1  A    between atoms: C_6  and  C_10
REMARK    2  A    between atoms: C_11  and  C_12
REMARK    3  A    between atoms: C_13  and  C_16
REMARK                            x       y       z     vdW  Elec       q    Type
REMARK                         _______ _______ _______ _____ _____    ______ ____
ROOT
ATOM      2  O   UNL     1      -4.220 -13.968  15.377  0.00  0.00    -0.270 OA
ATOM      3  N   UNL     1      -4.450 -12.127  16.775  0.00  0.00    -0.297 N 
ATOM      6  C   UNL     1      -5.258 -10.535  18.348  0.00  0.00    +0.095 C 
ATOM      7  C   UNL     1      -4.945 -11.857  19.066  0.00  0.00    +0.033 C 
ATOM      8  C   UNL     1      -4.467 -10.688  17.041  0.00  0.00    +0.121 C 
ATOM      9  C   UNL     1      -4.888 -12.880  17.940  0.00  0.00    +0.109 C 
ATOM     11  C   UNL     1      -4.151 -12.757  15.577  0.00  0.00    +0.247 C 
ENDROOT
BRANCH   6  10
ATOM      1  O   UNL     1      -7.158  -9.379  17.307  0.00  0.00    -0.425 OA
ATOM      4  N   UNL     1      -7.747 -10.892  18.847  0.00  0.00    -0.112 NA
ATOM      5  N   UNL     1      -8.902 -10.321  18.344  0.00  0.00    -0.113 NA
ATOM     10  C   UNL     1      -6.755 -10.312  18.213  0.00  0.00    +0.222 A 
ATOM     13  C   UNL     1      -8.510  -9.445  17.449  0.00  0.00    +0.214 A 
ATOM     16  C   UNL     1      -9.310  -8.552  16.601  0.00  0.00    +0.111 C 
ENDBRANCH   6  10
BRANCH  11  12
ATOM     12  C   UNL     1      -3.732 -11.910  14.450  0.00  0.00    +0.037 A 
ATOM     14  C   UNL     1      -4.674 -11.461  13.525  0.00  0.00    +0.013 A 
ATOM     15  C   UNL     1      -2.390 -11.553  14.308  0.00  0.00    +0.013 A 
ATOM     17  C   UNL     1      -4.275 -10.657  12.457  0.00  0.00    +0.001 A 
ATOM     18  C   UNL     1      -1.991 -10.749  13.241  0.00  0.00    +0.001 A 
ATOM     19  C   UNL     1      -2.934 -10.301  12.315  0.00  0.00    +0.000 A 
ENDBRANCH  11  12
TORSDOF 2
ENDMDL
MODEL 10
REMARK VINA RESULT:      -5.5     24.575     26.743
REMARK  Name = 51137713
REMARK  3 active torsions:
REMARK  status: ('A' for Active; 'I' for Inactive)
REMARK    1  A    between atoms: C_6  and  C_10
REMARK    2  A    between atoms: C_11  and  C_12
REMARK    3  A    between atoms: C_13  and  C_16
REMARK                            x       y       z     vdW  Elec       q    Type
REMARK                         _______ _______ _______ _____ _____    ______ ____
ROOT
ATOM      2  O   UNL     1     -12.625  10.147  20.619  0.00  0.00    -0.270 OA
ATOM      3  N   UNL     1     -11.468   9.026  18.945  0.00  0.00    -0.297 N 
ATOM      6  C   UNL     1     -10.546   8.352  16.858  0.00  0.00    +0.095 C 
ATOM      7  C   UNL     1      -9.924   9.690  17.289  0.00  0.00    +0.033 C 
ATOM      8  C   UNL     1     -11.120   7.827  18.181  0.00  0.00    +0.121 C 
ATOM      9  C   UNL     1     -10.887  10.216  18.345  0.00  0.00    +0.109 C 
ATOM     11  C   UNL     1     -12.301   9.105  20.050  0.00  0.00    +0.247 C 
ENDROOT
BRANCH   6  10
ATOM      1  O   UNL     1     -11.014   8.911  14.513  0.00  0.00    -0.425 OA
ATOM      4  N   UNL     1     -12.834   8.383  15.703  0.00  0.00    -0.112 NA
ATOM      5  N   UNL     1     -13.236   8.672  14.411  0.00  0.00    -0.113 NA
ATOM     10  C   UNL     1     -11.531   8.535  15.716  0.00  0.00    +0.222 A 
ATOM     13  C   UNL     1     -12.142   8.974  13.754  0.00  0.00    +0.214 A 
ATOM     16  C   UNL     1     -11.972   9.359  12.347  0.00  0.00    +0.111 C 
ENDBRANCH   6  10
BRANCH  11  12
ATOM     12  C   UNL     1     -12.853   7.848  20.577  0.00  0.00    +0.037 A 
ATOM     14  C   UNL     1     -14.224   7.603  20.504  0.00  0.00    +0.013 A 
ATOM     15  C   UNL     1     -12.004   6.900  21.149  0.00  0.00    +0.013 A 
ATOM     17  C   UNL     1     -14.746   6.410  21.003  0.00  0.00    +0.001 A 
ATOM     18  C   UNL     1     -12.527   5.707  21.649  0.00  0.00    +0.001 A 
ATOM     19  C   UNL     1     -13.898   5.462  21.575  0.00  0.00    +0.000 A 
ENDBRANCH  11  12
TORSDOF 2
ENDMDL
