MODEL 1
REMARK VINA RESULT:      -6.8      0.000      0.000
REMARK  Name = 26744421
REMARK  5 active torsions:
REMARK  status: ('A' for Active; 'I' for Inactive)
REMARK    1  A    between atoms: O_2  and  C_14
REMARK    2  A    between atoms: N_4  and  C_10
REMARK    3  A    between atoms: C_7  and  C_10
REMARK    4  A    between atoms: C_11  and  C_15
REMARK    5  A    between atoms: C_16  and  C_17
REMARK                            x       y       z     vdW  Elec       q    Type
REMARK                         _______ _______ _______ _____ _____    ______ ____
ROOT
ATOM      3  O   UNL     1      15.967   5.945  18.248  0.00  0.00    -0.336 OA
ATOM      5  N   UNL     1      16.418   7.068  20.132  0.00  0.00    -0.190 NA
ATOM      6  N   UNL     1      17.245   5.535  18.650  0.00  0.00    -0.056 NA
ATOM     15  C   UNL     1      15.553   6.848  19.175  0.00  0.00    +0.245 A 
ATOM     16  C   UNL     1      17.440   6.241  19.767  0.00  0.00    +0.202 A 
ENDROOT
BRANCH  16  17
ATOM      1  F   UNL     1      22.109   5.868  22.769  0.00  0.00    -0.205 F 
ATOM     17  C   UNL     1      18.643   6.145  20.541  0.00  0.00    +0.023 A 
ATOM     18  C   UNL     1      18.812   6.944  21.672  0.00  0.00    +0.014 A 
ATOM     19  C   UNL     1      19.646   5.252  20.164  0.00  0.00    +0.014 A 
ATOM     20  C   UNL     1      19.983   6.851  22.424  0.00  0.00    +0.039 A 
ATOM     21  C   UNL     1      20.816   5.157  20.916  0.00  0.00    +0.039 A 
ATOM     22  C   UNL     1      20.985   5.958  22.046  0.00  0.00    +0.123 A 
ENDBRANCH  16  17
BRANCH  15  11
ATOM      4  N   UNL     1      13.770   8.335  20.072  0.00  0.00    -0.289 NA
ATOM     11  C   UNL     1      14.178   7.448  18.964  0.00  0.00    +0.148 C 
ATOM     12  C   UNL     1      12.880   9.340  19.493  0.00  0.00    +0.116 C 
ATOM     13  C   UNL     1      14.101   8.330  17.704  0.00  0.00    +0.061 C 
ATOM     14  C   UNL     1      13.596   9.680  18.199  0.00  0.00    +0.130 C 
BRANCH  14   2
ATOM      2  O   UNL     1      12.722  10.266  17.253  0.00  0.00    -0.390 OA
ATOM     23  H   UNL     1      13.187  11.022  16.855  0.00  0.00    +0.210 HD
ENDBRANCH  14   2
BRANCH   4  10
ATOM     10  C   UNL     1      13.144   7.623  21.178  0.00  0.00    +0.088 C 
BRANCH  10   7
ATOM      7  C   UNL     1      11.788   7.117  20.803  0.00  0.00    +0.003 C 
ATOM      8  C   UNL     1      11.219   5.934  21.530  0.00  0.00    +0.005 C 
ATOM      9  C   UNL     1      10.646   7.303  21.757  0.00  0.00    +0.005 C 
ENDBRANCH  10   7
ENDBRANCH   4  10
ENDBRANCH  15  11
TORSDOF 5
ENDMDL
MODEL 2
REMARK VINA RESULT:      -6.8      1.769      3.114
REMARK  Name = 26744421
REMARK  5 active torsions:
REMARK  status: ('A' for Active; 'I' for Inactive)
REMARK    1  A    between atoms: O_2  and  C_14
REMARK    2  A    between atoms: N_4  and  C_10
REMARK    3  A    between atoms: C_7  and  C_10
REMARK    4  A    between atoms: C_11  and  C_15
REMARK    5  A    between atoms: C_16  and  C_17
REMARK                            x       y       z     vdW  Elec       q    Type
REMARK                         _______ _______ _______ _____ _____    ______ ____
ROOT
ATOM      3  O   UNL     1      14.443   6.725  19.667  0.00  0.00    -0.336 OA
ATOM      5  N   UNL     1      15.692   7.708  21.245  0.00  0.00    -0.190 NA
ATOM      6  N   UNL     1      15.744   6.235  19.495  0.00  0.00    -0.056 NA
ATOM     15  C   UNL     1      14.500   7.585  20.717  0.00  0.00    +0.245 A 
ATOM     16  C   UNL     1      16.421   6.861  20.463  0.00  0.00    +0.202 A 
ENDROOT
BRANCH  16  17
ATOM      1  F   UNL     1      21.871   6.097  21.276  0.00  0.00    -0.205 F 
ATOM     17  C   UNL     1      17.826   6.664  20.672  0.00  0.00    +0.023 A 
ATOM     18  C   UNL     1      18.520   7.482  21.564  0.00  0.00    +0.014 A 
ATOM     19  C   UNL     1      18.499   5.655  19.985  0.00  0.00    +0.014 A 
ATOM     20  C   UNL     1      19.887   7.291  21.768  0.00  0.00    +0.039 A 
ATOM     21  C   UNL     1      19.865   5.462  20.189  0.00  0.00    +0.039 A 
ATOM     22  C   UNL     1      20.559   6.282  21.080  0.00  0.00    +0.123 A 
ENDBRANCH  16  17
BRANCH  15  11
ATOM      4  N   UNL     1      12.438   8.746  19.944  0.00  0.00    -0.289 NA
ATOM     11  C   UNL     1      13.201   8.257  21.110  0.00  0.00    +0.148 C 
ATOM     12  C   UNL     1      11.027   8.695  20.320  0.00  0.00    +0.116 C 
ATOM     13  C   UNL     1      12.236   7.306  21.841  0.00  0.00    +0.061 C 
ATOM     14  C   UNL     1      10.944   7.360  21.037  0.00  0.00    +0.130 C 
BRANCH  14   2
ATOM      2  O   UNL     1       9.818   7.292  21.890  0.00  0.00    -0.390 OA
ATOM     23  H   UNL     1       9.142   7.893  21.531  0.00  0.00    +0.210 HD
ENDBRANCH  14   2
BRANCH   4  10
ATOM     10  C   UNL     1      12.842  10.076  19.509  0.00  0.00    +0.088 C 
BRANCH  10   7
ATOM      7  C   UNL     1      13.112  10.110  18.039  0.00  0.00    +0.003 C 
ATOM      8  C   UNL     1      14.384   9.511  17.513  0.00  0.00    +0.005 C 
ATOM      9  C   UNL     1      13.071   8.831  17.255  0.00  0.00    +0.005 C 
ENDBRANCH  10   7
ENDBRANCH   4  10
ENDBRANCH  15  11
TORSDOF 5
ENDMDL
MODEL 3
REMARK VINA RESULT:      -6.6      1.912      2.308
REMARK  Name = 26744421
REMARK  5 active torsions:
REMARK  status: ('A' for Active; 'I' for Inactive)
REMARK    1  A    between atoms: O_2  and  C_14
REMARK    2  A    between atoms: N_4  and  C_10
REMARK    3  A    between atoms: C_7  and  C_10
REMARK    4  A    between atoms: C_11  and  C_15
REMARK    5  A    between atoms: C_16  and  C_17
REMARK                            x       y       z     vdW  Elec       q    Type
REMARK                         _______ _______ _______ _____ _____    ______ ____
ROOT
ATOM      3  O   UNL     1      14.810   8.832  19.794  0.00  0.00    -0.336 OA
ATOM      5  N   UNL     1      15.296   6.654  19.979  0.00  0.00    -0.190 NA
ATOM      6  N   UNL     1      16.175   8.763  20.100  0.00  0.00    -0.056 NA
ATOM     15  C   UNL     1      14.370   7.548  19.741  0.00  0.00    +0.245 A 
ATOM     16  C   UNL     1      16.386   7.446  20.193  0.00  0.00    +0.202 A 
ENDROOT
BRANCH  16  17
ATOM      1  F   UNL     1      21.375   5.292  21.385  0.00  0.00    -0.205 F 
ATOM     17  C   UNL     1      17.672   6.891  20.500  0.00  0.00    +0.023 A 
ATOM     18  C   UNL     1      18.435   7.430  21.536  0.00  0.00    +0.014 A 
ATOM     19  C   UNL     1      18.160   5.812  19.764  0.00  0.00    +0.014 A 
ATOM     20  C   UNL     1      19.687   6.890  21.835  0.00  0.00    +0.039 A 
ATOM     21  C   UNL     1      19.411   5.271  20.063  0.00  0.00    +0.039 A 
ATOM     22  C   UNL     1      20.174   5.811  21.098  0.00  0.00    +0.123 A 
ENDBRANCH  16  17
BRANCH  15  11
ATOM      4  N   UNL     1      12.060   8.459  19.911  0.00  0.00    -0.289 NA
ATOM     11  C   UNL     1      12.903   7.350  19.421  0.00  0.00    +0.148 C 
ATOM     12  C   UNL     1      10.919   8.546  19.001  0.00  0.00    +0.116 C 
ATOM     13  C   UNL     1      12.628   7.284  17.907  0.00  0.00    +0.061 C 
ATOM     14  C   UNL     1      11.584   8.364  17.649  0.00  0.00    +0.130 C 
BRANCH  14   2
ATOM      2  O   UNL     1      10.662   7.945  16.662  0.00  0.00    -0.390 OA
ATOM     23  H   UNL     1      10.879   7.026  16.431  0.00  0.00    +0.210 HD
ENDBRANCH  14   2
BRANCH   4  10
ATOM     10  C   UNL     1      11.644   8.296  21.297  0.00  0.00    +0.088 C 
BRANCH  10   7
ATOM      7  C   UNL     1      12.034   9.478  22.125  0.00  0.00    +0.003 C 
ATOM      8  C   UNL     1      11.535  10.840  21.741  0.00  0.00    +0.005 C 
ATOM      9  C   UNL     1      10.996  10.161  22.966  0.00  0.00    +0.005 C 
ENDBRANCH  10   7
ENDBRANCH   4  10
ENDBRANCH  15  11
TORSDOF 5
ENDMDL
MODEL 4
REMARK VINA RESULT:      -6.5      1.547      3.220
REMARK  Name = 26744421
REMARK  5 active torsions:
REMARK  status: ('A' for Active; 'I' for Inactive)
REMARK    1  A    between atoms: O_2  and  C_14
REMARK    2  A    between atoms: N_4  and  C_10
REMARK    3  A    between atoms: C_7  and  C_10
REMARK    4  A    between atoms: C_11  and  C_15
REMARK    5  A    between atoms: C_16  and  C_17
REMARK                            x       y       z     vdW  Elec       q    Type
REMARK                         _______ _______ _______ _____ _____    ______ ____
ROOT
ATOM      3  O   UNL     1      16.171   5.991  18.553  0.00  0.00    -0.336 OA
ATOM      5  N   UNL     1      16.907   7.146  20.324  0.00  0.00    -0.190 NA
ATOM      6  N   UNL     1      17.449   5.494  18.839  0.00  0.00    -0.056 NA
ATOM     15  C   UNL     1      15.930   6.960  19.474  0.00  0.00    +0.245 A 
ATOM     16  C   UNL     1      17.816   6.225  19.895  0.00  0.00    +0.202 A 
ENDROOT
BRANCH  16  17
ATOM      1  F   UNL     1      22.738   5.586  22.410  0.00  0.00    -0.205 F 
ATOM     17  C   UNL     1      19.085   6.060  20.543  0.00  0.00    +0.023 A 
ATOM     18  C   UNL     1      19.948   5.041  20.140  0.00  0.00    +0.014 A 
ATOM     19  C   UNL     1      19.457   6.919  21.577  0.00  0.00    +0.014 A 
ATOM     20  C   UNL     1      21.182   4.881  20.771  0.00  0.00    +0.039 A 
ATOM     21  C   UNL     1      20.691   6.760  22.207  0.00  0.00    +0.039 A 
ATOM     22  C   UNL     1      21.553   5.740  21.804  0.00  0.00    +0.123 A 
ENDBRANCH  16  17
BRANCH  15  11
ATOM      4  N   UNL     1      13.858   7.322  18.142  0.00  0.00    -0.289 NA
ATOM     11  C   UNL     1      14.591   7.663  19.378  0.00  0.00    +0.148 C 
ATOM     12  C   UNL     1      12.435   7.429  18.462  0.00  0.00    +0.116 C 
ATOM     13  C   UNL     1      13.635   7.280  20.523  0.00  0.00    +0.061 C 
ATOM     14  C   UNL     1      12.374   6.777  19.831  0.00  0.00    +0.130 C 
BRANCH  14   2
ATOM      2  O   UNL     1      11.219   7.167  20.547  0.00  0.00    -0.390 OA
ATOM     23  H   UNL     1      10.982   6.436  21.143  0.00  0.00    +0.210 HD
ENDBRANCH  14   2
BRANCH   4  10
ATOM     10  C   UNL     1      14.228   8.156  17.006  0.00  0.00    +0.088 C 
BRANCH  10   7
ATOM      7  C   UNL     1      13.364   9.373  16.920  0.00  0.00    +0.003 C 
ATOM      8  C   UNL     1      13.865  10.576  16.177  0.00  0.00    +0.005 C 
ATOM      9  C   UNL     1      12.753   9.748  15.602  0.00  0.00    +0.005 C 
ENDBRANCH  10   7
ENDBRANCH   4  10
ENDBRANCH  15  11
TORSDOF 5
ENDMDL
MODEL 5
REMARK VINA RESULT:      -6.1     15.269     17.733
REMARK  Name = 26744421
REMARK  5 active torsions:
REMARK  status: ('A' for Active; 'I' for Inactive)
REMARK    1  A    between atoms: O_2  and  C_14
REMARK    2  A    between atoms: N_4  and  C_10
REMARK    3  A    between atoms: C_7  and  C_10
REMARK    4  A    between atoms: C_11  and  C_15
REMARK    5  A    between atoms: C_16  and  C_17
REMARK                            x       y       z     vdW  Elec       q    Type
REMARK                         _______ _______ _______ _____ _____    ______ ____
ROOT
ATOM      3  O   UNL     1      11.650   6.240   3.913  0.00  0.00    -0.336 OA
ATOM      5  N   UNL     1      10.202   4.675   4.598  0.00  0.00    -0.190 NA
ATOM      6  N   UNL     1      11.407   6.501   5.268  0.00  0.00    -0.056 NA
ATOM     15  C   UNL     1      10.902   5.150   3.600  0.00  0.00    +0.245 A 
ATOM     16  C   UNL     1      10.544   5.536   5.600  0.00  0.00    +0.202 A 
ENDROOT
BRANCH  16  17
ATOM      1  F   UNL     1       8.448   5.032  10.729  0.00  0.00    -0.205 F 
ATOM     17  C   UNL     1      10.003   5.406   6.921  0.00  0.00    +0.023 A 
ATOM     18  C   UNL     1      10.018   4.168   7.563  0.00  0.00    +0.014 A 
ATOM     19  C   UNL     1       9.463   6.518   7.567  0.00  0.00    +0.014 A 
ATOM     20  C   UNL     1       9.493   4.041   8.849  0.00  0.00    +0.039 A 
ATOM     21  C   UNL     1       8.938   6.392   8.853  0.00  0.00    +0.039 A 
ATOM     22  C   UNL     1       8.952   5.153   9.494  0.00  0.00    +0.123 A 
ENDBRANCH  16  17
BRANCH  15  11
ATOM      4  N   UNL     1      11.246   5.751   1.209  0.00  0.00    -0.289 NA
ATOM     11  C   UNL     1      10.992   4.658   2.170  0.00  0.00    +0.148 C 
ATOM     12  C   UNL     1      11.988   5.160   0.096  0.00  0.00    +0.116 C 
ATOM     13  C   UNL     1      12.149   3.666   1.953  0.00  0.00    +0.061 C 
ATOM     14  C   UNL     1      12.975   4.264   0.821  0.00  0.00    +0.130 C 
BRANCH  14   2
ATOM      2  O   UNL     1      13.479   3.247  -0.024  0.00  0.00    -0.390 OA
ATOM     23  H   UNL     1      13.384   2.401   0.447  0.00  0.00    +0.210 HD
ENDBRANCH  14   2
BRANCH   4  10
ATOM     10  C   UNL     1      10.031   6.419   0.763  0.00  0.00    +0.088 C 
BRANCH  10   7
ATOM      7  C   UNL     1       9.948   7.811   1.302  0.00  0.00    +0.003 C 
ATOM      8  C   UNL     1       8.743   8.649   0.985  0.00  0.00    +0.005 C 
ATOM      9  C   UNL     1       8.949   8.124   2.377  0.00  0.00    +0.005 C 
ENDBRANCH  10   7
ENDBRANCH   4  10
ENDBRANCH  15  11
TORSDOF 5
ENDMDL
MODEL 6
REMARK VINA RESULT:      -6.1     32.477     33.378
REMARK  Name = 26744421
REMARK  5 active torsions:
REMARK  status: ('A' for Active; 'I' for Inactive)
REMARK    1  A    between atoms: O_2  and  C_14
REMARK    2  A    between atoms: N_4  and  C_10
REMARK    3  A    between atoms: C_7  and  C_10
REMARK    4  A    between atoms: C_11  and  C_15
REMARK    5  A    between atoms: C_16  and  C_17
REMARK                            x       y       z     vdW  Elec       q    Type
REMARK                         _______ _______ _______ _____ _____    ______ ____
ROOT
ATOM      3  O   UNL     1     -15.012   1.761  33.490  0.00  0.00    -0.336 OA
ATOM      5  N   UNL     1     -14.683   3.448  32.054  0.00  0.00    -0.190 NA
ATOM      6  N   UNL     1     -14.625   2.863  34.265  0.00  0.00    -0.056 NA
ATOM     15  C   UNL     1     -15.021   2.192  32.202  0.00  0.00    +0.245 A 
ATOM     16  C   UNL     1     -14.449   3.817  33.346  0.00  0.00    +0.202 A 
ENDROOT
BRANCH  16  17
ATOM      1  F   UNL     1     -12.858   8.982  34.666  0.00  0.00    -0.205 F 
ATOM     17  C   UNL     1     -14.039   5.148  33.687  0.00  0.00    +0.023 A 
ATOM     18  C   UNL     1     -13.789   6.081  32.679  0.00  0.00    +0.014 A 
ATOM     19  C   UNL     1     -13.890   5.513  35.024  0.00  0.00    +0.014 A 
ATOM     20  C   UNL     1     -13.390   7.376  33.010  0.00  0.00    +0.039 A 
ATOM     21  C   UNL     1     -13.492   6.808  35.356  0.00  0.00    +0.039 A 
ATOM     22  C   UNL     1     -13.241   7.739  34.348  0.00  0.00    +0.123 A 
ENDBRANCH  16  17
BRANCH  15  11
ATOM      4  N   UNL     1     -15.215   1.668  29.776  0.00  0.00    -0.289 NA
ATOM     11  C   UNL     1     -15.415   1.173  31.153  0.00  0.00    +0.148 C 
ATOM     12  C   UNL     1     -14.929   0.496  28.951  0.00  0.00    +0.116 C 
ATOM     13  C   UNL     1     -14.578  -0.117  31.233  0.00  0.00    +0.061 C 
ATOM     14  C   UNL     1     -13.983  -0.288  29.841  0.00  0.00    +0.130 C 
BRANCH  14   2
ATOM      2  O   UNL     1     -13.934  -1.655  29.480  0.00  0.00    -0.390 OA
ATOM     23  H   UNL     1     -14.767  -2.064  29.770  0.00  0.00    +0.210 HD
ENDBRANCH  14   2
BRANCH   4  10
ATOM     10  C   UNL     1     -16.347   2.432  29.269  0.00  0.00    +0.088 C 
BRANCH  10   7
ATOM      7  C   UNL     1     -15.910   3.750  28.716  0.00  0.00    +0.003 C 
ATOM      8  C   UNL     1     -16.890   4.580  27.940  0.00  0.00    +0.005 C 
ATOM      9  C   UNL     1     -16.458   5.014  29.310  0.00  0.00    +0.005 C 
ENDBRANCH  10   7
ENDBRANCH   4  10
ENDBRANCH  15  11
TORSDOF 5
ENDMDL
MODEL 7
REMARK VINA RESULT:      -6.1     15.384     17.894
REMARK  Name = 26744421
REMARK  5 active torsions:
REMARK  status: ('A' for Active; 'I' for Inactive)
REMARK    1  A    between atoms: O_2  and  C_14
REMARK    2  A    between atoms: N_4  and  C_10
REMARK    3  A    between atoms: C_7  and  C_10
REMARK    4  A    between atoms: C_11  and  C_15
REMARK    5  A    between atoms: C_16  and  C_17
REMARK                            x       y       z     vdW  Elec       q    Type
REMARK                         _______ _______ _______ _____ _____    ______ ____
ROOT
ATOM      3  O   UNL     1      11.333   7.292   3.825  0.00  0.00    -0.336 OA
ATOM      5  N   UNL     1      10.587   5.257   4.386  0.00  0.00    -0.190 NA
ATOM      6  N   UNL     1      10.978   7.366   5.178  0.00  0.00    -0.056 NA
ATOM     15  C   UNL     1      11.071   6.017   3.437  0.00  0.00    +0.245 A 
ATOM     16  C   UNL     1      10.548   6.127   5.435  0.00  0.00    +0.202 A 
ENDROOT
BRANCH  16  17
ATOM      1  F   UNL     1       8.698   4.581  10.449  0.00  0.00    -0.205 F 
ATOM     17  C   UNL     1      10.071   5.729   6.727  0.00  0.00    +0.023 A 
ATOM     18  C   UNL     1       9.545   6.680   7.601  0.00  0.00    +0.014 A 
ATOM     19  C   UNL     1      10.133   4.389   7.111  0.00  0.00    +0.014 A 
ATOM     20  C   UNL     1       9.081   6.292   8.859  0.00  0.00    +0.039 A 
ATOM     21  C   UNL     1       9.669   4.001   8.368  0.00  0.00    +0.039 A 
ATOM     22  C   UNL     1       9.144   4.953   9.242  0.00  0.00    +0.123 A 
ENDBRANCH  16  17
BRANCH  15  11
ATOM      4  N   UNL     1      11.216   4.236   1.703  0.00  0.00    -0.289 NA
ATOM     11  C   UNL     1      11.375   5.676   1.993  0.00  0.00    +0.148 C 
ATOM     12  C   UNL     1      10.830   4.136   0.297  0.00  0.00    +0.116 C 
ATOM     13  C   UNL     1      10.431   6.383   1.003  0.00  0.00    +0.061 C 
ATOM     14  C   UNL     1       9.821   5.262   0.170  0.00  0.00    +0.130 C 
BRANCH  14   2
ATOM      2  O   UNL     1       9.656   5.669  -1.175  0.00  0.00    -0.390 OA
ATOM     23  H   UNL     1       8.752   6.018  -1.266  0.00  0.00    +0.210 HD
ENDBRANCH  14   2
BRANCH   4  10
ATOM     10  C   UNL     1      12.408   3.455   2.001  0.00  0.00    +0.088 C 
BRANCH  10   7
ATOM      7  C   UNL     1      13.651   4.185   1.604  0.00  0.00    +0.003 C 
ATOM      8  C   UNL     1      14.977   3.491   1.714  0.00  0.00    +0.005 C 
ATOM      9  C   UNL     1      14.383   3.768   0.363  0.00  0.00    +0.005 C 
ENDBRANCH  10   7
ENDBRANCH   4  10
ENDBRANCH  15  11
TORSDOF 5
ENDMDL
MODEL 8
REMARK VINA RESULT:      -6.0      5.234      8.470
REMARK  Name = 26744421
REMARK  5 active torsions:
REMARK  status: ('A' for Active; 'I' for Inactive)
REMARK    1  A    between atoms: O_2  and  C_14
REMARK    2  A    between atoms: N_4  and  C_10
REMARK    3  A    between atoms: C_7  and  C_10
REMARK    4  A    between atoms: C_11  and  C_15
REMARK    5  A    between atoms: C_16  and  C_17
REMARK                            x       y       z     vdW  Elec       q    Type
REMARK                         _______ _______ _______ _____ _____    ______ ____
ROOT
ATOM      3  O   UNL     1      14.163  10.783  21.728  0.00  0.00    -0.336 OA
ATOM      5  N   UNL     1      12.072  10.965  20.949  0.00  0.00    -0.190 NA
ATOM      6  N   UNL     1      13.564  11.818  22.458  0.00  0.00    -0.056 NA
ATOM     15  C   UNL     1      13.216  10.336  20.862  0.00  0.00    +0.245 A 
ATOM     16  C   UNL     1      12.333  11.865  21.940  0.00  0.00    +0.202 A 
ENDROOT
BRANCH  16  17
ATOM      1  F   UNL     1       8.487  15.487  23.685  0.00  0.00    -0.205 F 
ATOM     17  C   UNL     1      11.342  12.798  22.390  0.00  0.00    +0.023 A 
ATOM     18  C   UNL     1      10.721  13.652  21.478  0.00  0.00    +0.014 A 
ATOM     19  C   UNL     1      10.996  12.853  23.740  0.00  0.00    +0.014 A 
ATOM     20  C   UNL     1       9.757  14.560  21.915  0.00  0.00    +0.039 A 
ATOM     21  C   UNL     1      10.032  13.761  24.178  0.00  0.00    +0.039 A 
ATOM     22  C   UNL     1       9.413  14.615  23.265  0.00  0.00    +0.123 A 
ENDBRANCH  16  17
BRANCH  15  11
ATOM      4  N   UNL     1      13.667   7.898  20.644  0.00  0.00    -0.289 NA
ATOM     11  C   UNL     1      13.622   9.199  19.947  0.00  0.00    +0.148 C 
ATOM     12  C   UNL     1      13.357   6.880  19.642  0.00  0.00    +0.116 C 
ATOM     13  C   UNL     1      12.635   8.990  18.784  0.00  0.00    +0.061 C 
ATOM     14  C   UNL     1      12.214   7.529  18.883  0.00  0.00    +0.130 C 
BRANCH  14   2
ATOM      2  O   UNL     1      12.052   6.965  17.596  0.00  0.00    -0.390 OA
ATOM     23  H   UNL     1      11.505   7.578  17.075  0.00  0.00    +0.210 HD
ENDBRANCH  14   2
BRANCH   4  10
ATOM     10  C   UNL     1      14.939   7.644  21.307  0.00  0.00    +0.088 C 
BRANCH  10   7
ATOM      7  C   UNL     1      16.092   7.918  20.395  0.00  0.00    +0.003 C 
ATOM      8  C   UNL     1      17.489   7.855  20.939  0.00  0.00    +0.005 C 
ATOM      9  C   UNL     1      17.000   6.791  20.000  0.00  0.00    +0.005 C 
ENDBRANCH  10   7
ENDBRANCH   4  10
ENDBRANCH  15  11
TORSDOF 5
ENDMDL
MODEL 9
REMARK VINA RESULT:      -5.9     27.673     28.784
REMARK  Name = 26744421
REMARK  5 active torsions:
REMARK  status: ('A' for Active; 'I' for Inactive)
REMARK    1  A    between atoms: O_2  and  C_14
REMARK    2  A    between atoms: N_4  and  C_10
REMARK    3  A    between atoms: C_7  and  C_10
REMARK    4  A    between atoms: C_11  and  C_15
REMARK    5  A    between atoms: C_16  and  C_17
REMARK                            x       y       z     vdW  Elec       q    Type
REMARK                         _______ _______ _______ _____ _____    ______ ____
ROOT
ATOM      3  O   UNL     1      -4.806 -11.699  16.054  0.00  0.00    -0.336 OA
ATOM      5  N   UNL     1      -5.567  -9.854  15.038  0.00  0.00    -0.190 NA
ATOM      6  N   UNL     1      -4.271 -11.719  14.759  0.00  0.00    -0.056 NA
ATOM     15  C   UNL     1      -5.556 -10.569  16.134  0.00  0.00    +0.245 A 
ATOM     16  C   UNL     1      -4.765 -10.599  14.223  0.00  0.00    +0.202 A 
ENDROOT
BRANCH  16  17
ATOM      1  F   UNL     1      -3.653  -9.039   9.000  0.00  0.00    -0.205 F 
ATOM     17  C   UNL     1      -4.478 -10.197  12.877  0.00  0.00    +0.023 A 
ATOM     18  C   UNL     1      -5.452  -9.543  12.121  0.00  0.00    +0.014 A 
ATOM     19  C   UNL     1      -3.226 -10.458  12.322  0.00  0.00    +0.014 A 
ATOM     20  C   UNL     1      -5.173  -9.152  10.811  0.00  0.00    +0.039 A 
ATOM     21  C   UNL     1      -2.947 -10.067  11.012  0.00  0.00    +0.039 A 
ATOM     22  C   UNL     1      -3.921  -9.414  10.257  0.00  0.00    +0.123 A 
ENDBRANCH  16  17
BRANCH  15  11
ATOM      4  N   UNL     1      -7.443 -11.164  17.644  0.00  0.00    -0.289 NA
ATOM     11  C   UNL     1      -6.251 -10.313  17.455  0.00  0.00    +0.148 C 
ATOM     12  C   UNL     1      -7.582 -11.368  19.085  0.00  0.00    +0.116 C 
ATOM     13  C   UNL     1      -5.353 -10.619  18.668  0.00  0.00    +0.061 C 
ATOM     14  C   UNL     1      -6.145 -11.616  19.504  0.00  0.00    +0.130 C 
BRANCH  14   2
ATOM      2  O   UNL     1      -5.954 -11.378  20.885  0.00  0.00    -0.390 OA
ATOM     23  H   UNL     1      -5.173 -10.805  20.978  0.00  0.00    +0.210 HD
ENDBRANCH  14   2
BRANCH   4  10
ATOM     10  C   UNL     1      -8.650 -10.602  17.052  0.00  0.00    +0.088 C 
BRANCH  10   7
ATOM      7  C   UNL     1      -8.764  -9.139  17.335  0.00  0.00    +0.003 C 
ATOM      8  C   UNL     1      -9.429  -8.247  16.328  0.00  0.00    +0.005 C 
ATOM      9  C   UNL     1     -10.113  -8.551  17.629  0.00  0.00    +0.005 C 
ENDBRANCH  10   7
ENDBRANCH   4  10
ENDBRANCH  15  11
TORSDOF 5
ENDMDL
MODEL 10
REMARK VINA RESULT:      -5.9      3.473      7.815
REMARK  Name = 26744421
REMARK  5 active torsions:
REMARK  status: ('A' for Active; 'I' for Inactive)
REMARK    1  A    between atoms: O_2  and  C_14
REMARK    2  A    between atoms: N_4  and  C_10
REMARK    3  A    between atoms: C_7  and  C_10
REMARK    4  A    between atoms: C_11  and  C_15
REMARK    5  A    between atoms: C_16  and  C_17
REMARK                            x       y       z     vdW  Elec       q    Type
REMARK                         _______ _______ _______ _____ _____    ______ ____
ROOT
ATOM      3  O   UNL     1      18.215   5.606  19.319  0.00  0.00    -0.336 OA
ATOM      5  N   UNL     1      17.137   7.132  20.553  0.00  0.00    -0.190 NA
ATOM      6  N   UNL     1      16.919   5.689  18.792  0.00  0.00    -0.056 NA
ATOM     15  C   UNL     1      18.258   6.487  20.352  0.00  0.00    +0.245 A 
ATOM     16  C   UNL     1      16.346   6.609  19.573  0.00  0.00    +0.202 A 
ENDROOT
BRANCH  16  17
ATOM      1  F   UNL     1      11.065   8.229  18.908  0.00  0.00    -0.205 F 
ATOM     17  C   UNL     1      14.985   7.027  19.402  0.00  0.00    +0.023 A 
ATOM     18  C   UNL     1      14.576   7.597  18.196  0.00  0.00    +0.014 A 
ATOM     19  C   UNL     1      14.068   6.862  20.440  0.00  0.00    +0.014 A 
ATOM     20  C   UNL     1      13.252   8.003  18.029  0.00  0.00    +0.039 A 
ATOM     21  C   UNL     1      12.744   7.267  20.273  0.00  0.00    +0.039 A 
ATOM     22  C   UNL     1      12.337   7.839  19.068  0.00  0.00    +0.123 A 
ENDBRANCH  16  17
BRANCH  15  11
ATOM      4  N   UNL     1      20.702   6.010  20.339  0.00  0.00    -0.289 NA
ATOM     11  C   UNL     1      19.573   6.588  21.097  0.00  0.00    +0.148 C 
ATOM     12  C   UNL     1      21.896   6.748  20.746  0.00  0.00    +0.116 C 
ATOM     13  C   UNL     1      19.990   8.045  21.374  0.00  0.00    +0.061 C 
ATOM     14  C   UNL     1      21.384   8.176  20.774  0.00  0.00    +0.130 C 
BRANCH  14   2
ATOM      2  O   UNL     1      22.199   9.010  21.576  0.00  0.00    -0.390 OA
ATOM     23  H   UNL     1      21.907   8.905  22.498  0.00  0.00    +0.210 HD
ENDBRANCH  14   2
BRANCH   4  10
ATOM     10  C   UNL     1      20.851   4.575  20.537  0.00  0.00    +0.088 C 
BRANCH  10   7
ATOM      7  C   UNL     1      22.113   4.255  21.271  0.00  0.00    +0.003 C 
ATOM      8  C   UNL     1      22.072   3.277  22.409  0.00  0.00    +0.005 C 
ATOM      9  C   UNL     1      22.730   2.896  21.114  0.00  0.00    +0.005 C 
ENDBRANCH  10   7
ENDBRANCH   4  10
ENDBRANCH  15  11
TORSDOF 5
ENDMDL
