MODEL 1
REMARK VINA RESULT:      -6.8      0.000      0.000
REMARK  Name = 86769005
REMARK  7 active torsions:
REMARK  status: ('A' for Active; 'I' for Inactive)
REMARK    1  A    between atoms: O_3  and  C_10
REMARK    2  A    between atoms: N_5  and  C_9
REMARK    3  A    between atoms: N_5  and  C_14
REMARK    4  A    between atoms: N_6  and  C_13
REMARK    5  A    between atoms: C_11  and  C_13
REMARK    6  A    between atoms: C_14  and  C_15
REMARK    7  A    between atoms: C_16  and  C_18
REMARK                            x       y       z     vdW  Elec       q    Type
REMARK                         _______ _______ _______ _____ _____    ______ ____
ROOT
ATOM      2  O   UNL     1      18.248   7.096  21.717  0.00  0.00    -0.371 OA
ATOM      9  C   UNL     1      16.628   6.440  20.108  0.00  0.00    +0.111 C 
ATOM     10  C   UNL     1      18.014   6.172  19.552  0.00  0.00    +0.164 C 
ATOM     11  C   UNL     1      18.840   6.133  20.831  0.00  0.00    +0.165 C 
ATOM     12  C   UNL     1      16.936   7.425  21.225  0.00  0.00    +0.181 C 
ENDROOT
BRANCH  10   3
ATOM      3  O   UNL     1      18.091   4.954  18.838  0.00  0.00    -0.388 OA
ATOM     26  H   UNL     1      18.327   5.155  17.916  0.00  0.00    +0.210 HD
ENDBRANCH  10   3
BRANCH   9   5
ATOM      5  N   UNL     1      15.698   6.972  19.125  0.00  0.00    -0.304 NA
ATOM     25  H   UNL     1      15.071   6.226  18.824  0.00  0.00    +0.123 HD
BRANCH   5  14
ATOM     14  C   UNL     1      14.907   8.061  19.685  0.00  0.00    +0.136 C 
BRANCH  14  15
ATOM      7  N   UNL     1      13.288   6.554  20.897  0.00  0.00    -0.347 N 
ATOM      8  N   UNL     1      11.288   7.328  20.325  0.00  0.00    -0.244 NA
ATOM     15  C   UNL     1      13.521   7.610  20.063  0.00  0.00    +0.049 A 
ATOM     17  C   UNL     1      12.271   8.072  19.723  0.00  0.00    +0.134 A 
ATOM     19  C   UNL     1      11.934   6.422  21.025  0.00  0.00    +0.196 A 
ATOM     28  H   UNL     1      13.988   5.973  21.341  0.00  0.00    +0.167 HD
ENDBRANCH  14  15
ENDBRANCH   5  14
ENDBRANCH   9   5
BRANCH  11  13
ATOM     13  C   UNL     1      20.304   6.469  20.611  0.00  0.00    +0.138 C 
BRANCH  13   6
ATOM      4  O   UNL     1      21.237   5.395  23.106  0.00  0.00    -0.270 OA
ATOM      6  N   UNL     1      21.137   5.315  20.789  0.00  0.00    -0.309 N 
ATOM     16  C   UNL     1      21.544   4.864  22.041  0.00  0.00    +0.244 C 
ATOM     27  H   UNL     1      21.484   4.871  19.946  0.00  0.00    +0.149 HD
BRANCH  16  18
ATOM      1  F   UNL     1      24.884   0.353  22.093  0.00  0.00    -0.205 F 
ATOM     18  C   UNL     1      22.428   3.670  22.055  0.00  0.00    +0.037 A 
ATOM     20  C   UNL     1      22.719   3.032  23.260  0.00  0.00    +0.016 A 
ATOM     21  C   UNL     1      22.967   3.188  20.862  0.00  0.00    +0.016 A 
ATOM     22  C   UNL     1      23.549   1.911  23.274  0.00  0.00    +0.039 A 
ATOM     23  C   UNL     1      23.797   2.067  20.875  0.00  0.00    +0.039 A 
ATOM     24  C   UNL     1      24.088   1.429  22.081  0.00  0.00    +0.123 A 
ENDBRANCH  16  18
ENDBRANCH  13   6
ENDBRANCH  11  13
TORSDOF 7
ENDMDL
MODEL 2
REMARK VINA RESULT:      -6.7     32.376     34.828
REMARK  Name = 86769005
REMARK  7 active torsions:
REMARK  status: ('A' for Active; 'I' for Inactive)
REMARK    1  A    between atoms: O_3  and  C_10
REMARK    2  A    between atoms: N_5  and  C_9
REMARK    3  A    between atoms: N_5  and  C_14
REMARK    4  A    between atoms: N_6  and  C_13
REMARK    5  A    between atoms: C_11  and  C_13
REMARK    6  A    between atoms: C_14  and  C_15
REMARK    7  A    between atoms: C_16  and  C_18
REMARK                            x       y       z     vdW  Elec       q    Type
REMARK                         _______ _______ _______ _____ _____    ______ ____
ROOT
ATOM      2  O   UNL     1     -17.546   1.847  25.292  0.00  0.00    -0.371 OA
ATOM      9  C   UNL     1     -16.430   3.244  26.855  0.00  0.00    +0.111 C 
ATOM     10  C   UNL     1     -16.109   3.719  25.450  0.00  0.00    +0.164 C 
ATOM     11  C   UNL     1     -17.261   3.107  24.664  0.00  0.00    +0.165 C 
ATOM     12  C   UNL     1     -16.926   1.832  26.590  0.00  0.00    +0.181 C 
ENDROOT
BRANCH  10   3
ATOM      3  O   UNL     1     -16.087   5.129  25.341  0.00  0.00    -0.388 OA
ATOM     26  H   UNL     1     -16.987   5.434  25.139  0.00  0.00    +0.210 HD
ENDBRANCH  10   3
BRANCH   9   5
ATOM      5  N   UNL     1     -15.292   3.284  27.759  0.00  0.00    -0.304 NA
ATOM     25  H   UNL     1     -14.888   4.221  27.743  0.00  0.00    +0.123 HD
BRANCH   5  14
ATOM     14  C   UNL     1     -15.693   2.963  29.123  0.00  0.00    +0.136 C 
BRANCH  14  15
ATOM      7  N   UNL     1     -13.799   1.398  29.693  0.00  0.00    -0.347 N 
ATOM      8  N   UNL     1     -14.808  -0.489  30.282  0.00  0.00    -0.244 NA
ATOM     15  C   UNL     1     -15.139   1.639  29.575  0.00  0.00    +0.049 A 
ATOM     17  C   UNL     1     -15.742   0.459  29.944  0.00  0.00    +0.134 A 
ATOM     19  C   UNL     1     -13.649   0.109  30.121  0.00  0.00    +0.196 A 
ATOM     28  H   UNL     1     -13.052   2.053  29.500  0.00  0.00    +0.167 HD
ENDBRANCH  14  15
ENDBRANCH   5  14
ENDBRANCH   9   5
BRANCH  11  13
ATOM     13  C   UNL     1     -16.937   2.889  23.197  0.00  0.00    +0.138 C 
BRANCH  13   6
ATOM      4  O   UNL     1     -17.043   5.328  21.685  0.00  0.00    -0.270 OA
ATOM      6  N   UNL     1     -15.821   3.689  22.784  0.00  0.00    -0.309 N 
ATOM     16  C   UNL     1     -15.965   4.862  22.049  0.00  0.00    +0.244 C 
ATOM     27  H   UNL     1     -14.898   3.324  22.991  0.00  0.00    +0.149 HD
BRANCH  16  18
ATOM      1  F   UNL     1     -11.219   7.508  20.638  0.00  0.00    -0.205 F 
ATOM     18  C   UNL     1     -14.710   5.563  21.676  0.00  0.00    +0.037 A 
ATOM     20  C   UNL     1     -14.760   6.712  20.887  0.00  0.00    +0.016 A 
ATOM     21  C   UNL     1     -13.480   5.071  22.114  0.00  0.00    +0.016 A 
ATOM     22  C   UNL     1     -13.581   7.369  20.535  0.00  0.00    +0.039 A 
ATOM     23  C   UNL     1     -12.301   5.728  21.763  0.00  0.00    +0.039 A 
ATOM     24  C   UNL     1     -12.351   6.877  20.973  0.00  0.00    +0.123 A 
ENDBRANCH  16  18
ENDBRANCH  13   6
ENDBRANCH  11  13
TORSDOF 7
ENDMDL
MODEL 3
REMARK VINA RESULT:      -6.5      4.012      9.913
REMARK  Name = 86769005
REMARK  7 active torsions:
REMARK  status: ('A' for Active; 'I' for Inactive)
REMARK    1  A    between atoms: O_3  and  C_10
REMARK    2  A    between atoms: N_5  and  C_9
REMARK    3  A    between atoms: N_5  and  C_14
REMARK    4  A    between atoms: N_6  and  C_13
REMARK    5  A    between atoms: C_11  and  C_13
REMARK    6  A    between atoms: C_14  and  C_15
REMARK    7  A    between atoms: C_16  and  C_18
REMARK                            x       y       z     vdW  Elec       q    Type
REMARK                         _______ _______ _______ _____ _____    ______ ____
ROOT
ATOM      2  O   UNL     1      18.733   7.071  21.878  0.00  0.00    -0.371 OA
ATOM      9  C   UNL     1      19.960   5.857  20.246  0.00  0.00    +0.111 C 
ATOM     10  C   UNL     1      18.481   5.569  20.068  0.00  0.00    +0.164 C 
ATOM     11  C   UNL     1      17.862   6.767  20.777  0.00  0.00    +0.165 C 
ATOM     12  C   UNL     1      19.992   6.407  21.662  0.00  0.00    +0.181 C 
ENDROOT
BRANCH  10   3
ATOM      3  O   UNL     1      18.096   5.504  18.709  0.00  0.00    -0.388 OA
ATOM     26  H   UNL     1      18.644   4.833  18.268  0.00  0.00    +0.210 HD
ENDBRANCH  10   3
BRANCH   9   5
ATOM      5  N   UNL     1      20.806   4.687  20.074  0.00  0.00    -0.304 NA
ATOM     25  H   UNL     1      21.353   4.795  19.220  0.00  0.00    +0.123 HD
BRANCH   5  14
ATOM     14  C   UNL     1      21.716   4.526  21.202  0.00  0.00    +0.136 C 
BRANCH  14  15
ATOM      7  N   UNL     1      23.812   4.012  19.898  0.00  0.00    -0.347 N 
ATOM      8  N   UNL     1      24.480   2.049  20.689  0.00  0.00    -0.244 NA
ATOM     15  C   UNL     1      22.898   3.663  20.851  0.00  0.00    +0.049 A 
ATOM     17  C   UNL     1      23.331   2.447  21.326  0.00  0.00    +0.134 A 
ATOM     19  C   UNL     1      24.743   3.014  19.836  0.00  0.00    +0.196 A 
ATOM     28  H   UNL     1      23.805   4.855  19.339  0.00  0.00    +0.167 HD
ENDBRANCH  14  15
ENDBRANCH   5  14
ENDBRANCH   9   5
BRANCH  11  13
ATOM     13  C   UNL     1      16.459   6.502  21.290  0.00  0.00    +0.138 C 
BRANCH  13   6
ATOM      4  O   UNL     1      13.821   7.450  21.914  0.00  0.00    -0.270 OA
ATOM      6  N   UNL     1      15.467   6.951  20.356  0.00  0.00    -0.309 N 
ATOM     16  C   UNL     1      14.208   7.395  20.749  0.00  0.00    +0.244 C 
ATOM     27  H   UNL     1      15.697   6.865  19.372  0.00  0.00    +0.149 HD
BRANCH  16  18
ATOM      1  F   UNL     1      10.719   8.933  16.629  0.00  0.00    -0.205 F 
ATOM     18  C   UNL     1      13.285   7.802  19.659  0.00  0.00    +0.037 A 
ATOM     20  C   UNL     1      13.725   7.801  18.335  0.00  0.00    +0.016 A 
ATOM     21  C   UNL     1      11.977   8.185  19.958  0.00  0.00    +0.016 A 
ATOM     22  C   UNL     1      12.859   8.184  17.311  0.00  0.00    +0.039 A 
ATOM     23  C   UNL     1      11.110   8.567  18.934  0.00  0.00    +0.039 A 
ATOM     24  C   UNL     1      11.551   8.567  17.611  0.00  0.00    +0.123 A 
ENDBRANCH  16  18
ENDBRANCH  13   6
ENDBRANCH  11  13
TORSDOF 7
ENDMDL
MODEL 4
REMARK VINA RESULT:      -6.5     27.230     29.433
REMARK  Name = 86769005
REMARK  7 active torsions:
REMARK  status: ('A' for Active; 'I' for Inactive)
REMARK    1  A    between atoms: O_3  and  C_10
REMARK    2  A    between atoms: N_5  and  C_9
REMARK    3  A    between atoms: N_5  and  C_14
REMARK    4  A    between atoms: N_6  and  C_13
REMARK    5  A    between atoms: C_11  and  C_13
REMARK    6  A    between atoms: C_14  and  C_15
REMARK    7  A    between atoms: C_16  and  C_18
REMARK                            x       y       z     vdW  Elec       q    Type
REMARK                         _______ _______ _______ _____ _____    ______ ____
ROOT
ATOM      2  O   UNL     1      -1.117 -11.436  15.144  0.00  0.00    -0.371 OA
ATOM      9  C   UNL     1      -3.154 -10.973  16.274  0.00  0.00    +0.111 C 
ATOM     10  C   UNL     1      -3.467 -11.560  14.910  0.00  0.00    +0.164 C 
ATOM     11  C   UNL     1      -2.153 -12.256  14.582  0.00  0.00    +0.165 C 
ATOM     12  C   UNL     1      -1.713 -10.527  16.088  0.00  0.00    +0.181 C 
ENDROOT
BRANCH  10   3
ATOM      3  O   UNL     1      -4.552 -12.466  14.940  0.00  0.00    -0.388 OA
ATOM     26  H   UNL     1      -5.330 -12.025  14.558  0.00  0.00    +0.210 HD
ENDBRANCH  10   3
BRANCH   9   5
ATOM      5  N   UNL     1      -4.038  -9.885  16.658  0.00  0.00    -0.304 NA
ATOM     25  H   UNL     1      -4.430  -9.463  15.816  0.00  0.00    +0.123 HD
BRANCH   5  14
ATOM     14  C   UNL     1      -5.128 -10.365  17.499  0.00  0.00    +0.136 C 
BRANCH  14  15
ATOM      7  N   UNL     1      -6.808 -10.279  15.621  0.00  0.00    -0.347 N 
ATOM      8  N   UNL     1      -8.599  -9.335  16.532  0.00  0.00    -0.244 NA
ATOM     15  C   UNL     1      -6.476 -10.025  16.921  0.00  0.00    +0.049 A 
ATOM     17  C   UNL     1      -7.597  -9.442  17.464  0.00  0.00    +0.134 A 
ATOM     19  C   UNL     1      -8.092  -9.849  15.433  0.00  0.00    +0.196 A 
ATOM     28  H   UNL     1      -6.216 -10.708  14.922  0.00  0.00    +0.167 HD
ENDBRANCH  14  15
ENDBRANCH   5  14
ENDBRANCH   9   5
BRANCH  11  13
ATOM     13  C   UNL     1      -1.920 -12.429  13.092  0.00  0.00    +0.138 C 
BRANCH  13   6
ATOM      4  O   UNL     1      -1.449  -9.891  11.834  0.00  0.00    -0.270 OA
ATOM      6  N   UNL     1      -2.862 -11.666  12.325  0.00  0.00    -0.309 N 
ATOM     16  C   UNL     1      -2.546 -10.439  11.749  0.00  0.00    +0.244 C 
ATOM     27  H   UNL     1      -3.807 -12.028  12.275  0.00  0.00    +0.149 HD
BRANCH  16  18
ATOM      1  F   UNL     1      -6.678  -7.875   8.943  0.00  0.00    -0.205 F 
ATOM     18  C   UNL     1      -3.639  -9.760  11.007  0.00  0.00    +0.037 A 
ATOM     20  C   UNL     1      -4.860  -9.514  11.634  0.00  0.00    +0.016 A 
ATOM     21  C   UNL     1      -3.445  -9.370   9.681  0.00  0.00    +0.016 A 
ATOM     22  C   UNL     1      -5.887  -8.878  10.937  0.00  0.00    +0.039 A 
ATOM     23  C   UNL     1      -4.471  -8.732   8.984  0.00  0.00    +0.039 A 
ATOM     24  C   UNL     1      -5.693  -8.487   9.612  0.00  0.00    +0.123 A 
ENDBRANCH  16  18
ENDBRANCH  13   6
ENDBRANCH  11  13
TORSDOF 7
ENDMDL
MODEL 5
REMARK VINA RESULT:      -6.5     27.943     29.628
REMARK  Name = 86769005
REMARK  7 active torsions:
REMARK  status: ('A' for Active; 'I' for Inactive)
REMARK    1  A    between atoms: O_3  and  C_10
REMARK    2  A    between atoms: N_5  and  C_9
REMARK    3  A    between atoms: N_5  and  C_14
REMARK    4  A    between atoms: N_6  and  C_13
REMARK    5  A    between atoms: C_11  and  C_13
REMARK    6  A    between atoms: C_14  and  C_15
REMARK    7  A    between atoms: C_16  and  C_18
REMARK                            x       y       z     vdW  Elec       q    Type
REMARK                         _______ _______ _______ _____ _____    ______ ____
ROOT
ATOM      2  O   UNL     1      -3.996 -11.765  18.402  0.00  0.00    -0.371 OA
ATOM      9  C   UNL     1      -6.214 -10.950  18.152  0.00  0.00    +0.111 C 
ATOM     10  C   UNL     1      -5.353 -10.396  17.031  0.00  0.00    +0.164 C 
ATOM     11  C   UNL     1      -4.198 -11.389  17.031  0.00  0.00    +0.165 C 
ATOM     12  C   UNL     1      -5.158 -11.379  19.159  0.00  0.00    +0.181 C 
ENDROOT
BRANCH  10   3
ATOM      3  O   UNL     1      -6.026 -10.369  15.788  0.00  0.00    -0.388 OA
ATOM     26  H   UNL     1      -6.393 -11.253  15.619  0.00  0.00    +0.210 HD
ENDBRANCH  10   3
BRANCH   9   5
ATOM      5  N   UNL     1      -7.155  -9.986  18.696  0.00  0.00    -0.304 NA
ATOM     25  H   UNL     1      -7.004  -9.083  18.245  0.00  0.00    +0.123 HD
BRANCH   5  14
ATOM     14  C   UNL     1      -8.532 -10.407  18.463  0.00  0.00    +0.136 C 
BRANCH  14  15
ATOM      7  N   UNL     1      -8.619  -8.702  16.606  0.00  0.00    -0.347 N 
ATOM      8  N   UNL     1     -10.776  -8.215  16.412  0.00  0.00    -0.244 NA
ATOM     15  C   UNL     1      -9.259  -9.463  17.543  0.00  0.00    +0.049 A 
ATOM     17  C   UNL     1     -10.590  -9.146  17.404  0.00  0.00    +0.134 A 
ATOM     19  C   UNL     1      -9.569  -7.970  15.952  0.00  0.00    +0.196 A 
ATOM     28  H   UNL     1      -7.623  -8.682  16.427  0.00  0.00    +0.167 HD
ENDBRANCH  14  15
ENDBRANCH   5  14
ENDBRANCH   9   5
BRANCH  11  13
ATOM     13  C   UNL     1      -2.914 -10.814  16.461  0.00  0.00    +0.138 C 
BRANCH  13   6
ATOM      4  O   UNL     1      -2.477 -12.278  14.029  0.00  0.00    -0.270 OA
ATOM      6  N   UNL     1      -3.105 -10.330  15.124  0.00  0.00    -0.309 N 
ATOM     16  C   UNL     1      -2.867 -11.113  13.998  0.00  0.00    +0.244 C 
ATOM     27  H   UNL     1      -3.359  -9.354  15.027  0.00  0.00    +0.149 HD
BRANCH  16  18
ATOM      1  F   UNL     1      -3.699  -8.634   9.030  0.00  0.00    -0.205 F 
ATOM     18  C   UNL     1      -3.087 -10.457  12.684  0.00  0.00    +0.037 A 
ATOM     20  C   UNL     1      -4.385 -10.250  12.216  0.00  0.00    +0.016 A 
ATOM     21  C   UNL     1      -1.996 -10.049  11.917  0.00  0.00    +0.016 A 
ATOM     22  C   UNL     1      -4.592  -9.635  10.982  0.00  0.00    +0.039 A 
ATOM     23  C   UNL     1      -2.203  -9.433  10.682  0.00  0.00    +0.039 A 
ATOM     24  C   UNL     1      -3.501  -9.226  10.215  0.00  0.00    +0.123 A 
ENDBRANCH  16  18
ENDBRANCH  13   6
ENDBRANCH  11  13
TORSDOF 7
ENDMDL
MODEL 6
REMARK VINA RESULT:      -6.5     27.781     29.865
REMARK  Name = 86769005
REMARK  7 active torsions:
REMARK  status: ('A' for Active; 'I' for Inactive)
REMARK    1  A    between atoms: O_3  and  C_10
REMARK    2  A    between atoms: N_5  and  C_9
REMARK    3  A    between atoms: N_5  and  C_14
REMARK    4  A    between atoms: N_6  and  C_13
REMARK    5  A    between atoms: C_11  and  C_13
REMARK    6  A    between atoms: C_14  and  C_15
REMARK    7  A    between atoms: C_16  and  C_18
REMARK                            x       y       z     vdW  Elec       q    Type
REMARK                         _______ _______ _______ _____ _____    ______ ____
ROOT
ATOM      2  O   UNL     1      -4.042 -10.491  14.379  0.00  0.00    -0.371 OA
ATOM      9  C   UNL     1      -3.688 -11.221  16.612  0.00  0.00    +0.111 C 
ATOM     10  C   UNL     1      -2.395 -11.370  15.833  0.00  0.00    +0.164 C 
ATOM     11  C   UNL     1      -2.639 -10.410  14.676  0.00  0.00    +0.165 C 
ATOM     12  C   UNL     1      -4.708 -11.121  15.489  0.00  0.00    +0.181 C 
ENDROOT
BRANCH  10   3
ATOM      3  O   UNL     1      -1.256 -11.007  16.588  0.00  0.00    -0.388 OA
ATOM     26  H   UNL     1      -1.550 -10.473  17.346  0.00  0.00    +0.210 HD
ENDBRANCH  10   3
BRANCH   9   5
ATOM      5  N   UNL     1      -3.953 -12.325  17.519  0.00  0.00    -0.304 NA
ATOM     25  H   UNL     1      -3.158 -12.965  17.504  0.00  0.00    +0.123 HD
BRANCH   5  14
ATOM     14  C   UNL     1      -4.152 -11.850  18.883  0.00  0.00    +0.136 C 
BRANCH  14  15
ATOM      7  N   UNL     1      -6.512 -12.719  19.069  0.00  0.00    -0.347 N 
ATOM      8  N   UNL     1      -7.670 -10.993  19.850  0.00  0.00    -0.244 NA
ATOM     15  C   UNL     1      -5.612 -11.702  19.218  0.00  0.00    +0.049 A 
ATOM     17  C   UNL     1      -6.350 -10.647  19.702  0.00  0.00    +0.134 A 
ATOM     19  C   UNL     1      -7.734 -12.247  19.461  0.00  0.00    +0.196 A 
ATOM     28  H   UNL     1      -6.314 -13.652  18.731  0.00  0.00    +0.167 HD
ENDBRANCH  14  15
ENDBRANCH   5  14
ENDBRANCH   9   5
BRANCH  11  13
ATOM     13  C   UNL     1      -1.831 -10.747  13.435  0.00  0.00    +0.138 C 
BRANCH  13   6
ATOM      4  O   UNL     1      -2.890 -12.602  11.515  0.00  0.00    -0.270 OA
ATOM      6  N   UNL     1      -2.552 -10.422  12.238  0.00  0.00    -0.309 N 
ATOM     16  C   UNL     1      -3.030 -11.391  11.360  0.00  0.00    +0.244 C 
ATOM     27  H   UNL     1      -2.642  -9.438  12.015  0.00  0.00    +0.149 HD
BRANCH  16  18
ATOM      1  F   UNL     1      -5.690  -9.504   6.791  0.00  0.00    -0.205 F 
ATOM     18  C   UNL     1      -3.734 -10.892  10.151  0.00  0.00    +0.037 A 
ATOM     20  C   UNL     1      -4.297 -11.794   9.249  0.00  0.00    +0.016 A 
ATOM     21  C   UNL     1      -3.832  -9.520   9.918  0.00  0.00    +0.016 A 
ATOM     22  C   UNL     1      -4.957 -11.326   8.114  0.00  0.00    +0.039 A 
ATOM     23  C   UNL     1      -4.493  -9.051   8.782  0.00  0.00    +0.039 A 
ATOM     24  C   UNL     1      -5.055  -9.954   7.880  0.00  0.00    +0.123 A 
ENDBRANCH  16  18
ENDBRANCH  13   6
ENDBRANCH  11  13
TORSDOF 7
ENDMDL
MODEL 7
REMARK VINA RESULT:      -6.4     33.279     35.479
REMARK  Name = 86769005
REMARK  7 active torsions:
REMARK  status: ('A' for Active; 'I' for Inactive)
REMARK    1  A    between atoms: O_3  and  C_10
REMARK    2  A    between atoms: N_5  and  C_9
REMARK    3  A    between atoms: N_5  and  C_14
REMARK    4  A    between atoms: N_6  and  C_13
REMARK    5  A    between atoms: C_11  and  C_13
REMARK    6  A    between atoms: C_14  and  C_15
REMARK    7  A    between atoms: C_16  and  C_18
REMARK                            x       y       z     vdW  Elec       q    Type
REMARK                         _______ _______ _______ _____ _____    ______ ____
ROOT
ATOM      2  O   UNL     1     -18.265   2.739  26.691  0.00  0.00    -0.371 OA
ATOM      9  C   UNL     1     -17.248   2.321  24.585  0.00  0.00    +0.111 C 
ATOM     10  C   UNL     1     -16.992   1.139  25.502  0.00  0.00    +0.164 C 
ATOM     11  C   UNL     1     -18.100   1.321  26.531  0.00  0.00    +0.165 C 
ATOM     12  C   UNL     1     -17.625   3.402  25.585  0.00  0.00    +0.181 C 
ENDROOT
BRANCH  10   3
ATOM      3  O   UNL     1     -17.091  -0.103  24.834  0.00  0.00    -0.388 OA
ATOM     26  H   UNL     1     -17.599   0.030  24.015  0.00  0.00    +0.210 HD
ENDBRANCH  10   3
BRANCH   9   5
ATOM      5  N   UNL     1     -16.103   2.683  23.766  0.00  0.00    -0.304 NA
ATOM     25  H   UNL     1     -16.435   3.022  22.863  0.00  0.00    +0.123 HD
BRANCH   5  14
ATOM     14  C   UNL     1     -15.310   3.727  24.403  0.00  0.00    +0.136 C 
BRANCH  14  15
ATOM      7  N   UNL     1     -13.896   4.371  22.417  0.00  0.00    -0.347 N 
ATOM      8  N   UNL     1     -14.275   6.542  22.156  0.00  0.00    -0.244 NA
ATOM     15  C   UNL     1     -14.777   4.717  23.401  0.00  0.00    +0.049 A 
ATOM     17  C   UNL     1     -14.997   6.062  23.220  0.00  0.00    +0.134 A 
ATOM     19  C   UNL     1     -13.623   5.498  21.694  0.00  0.00    +0.196 A 
ATOM     28  H   UNL     1     -13.512   3.449  22.250  0.00  0.00    +0.167 HD
ENDBRANCH  14  15
ENDBRANCH   5  14
ENDBRANCH   9   5
BRANCH  11  13
ATOM     13  C   UNL     1     -17.782   0.686  27.873  0.00  0.00    +0.138 C 
BRANCH  13   6
ATOM      4  O   UNL     1     -15.839  -0.087  29.841  0.00  0.00    -0.270 OA
ATOM      6  N   UNL     1     -16.999   1.564  28.694  0.00  0.00    -0.309 N 
ATOM     16  C   UNL     1     -16.076   1.100  29.627  0.00  0.00    +0.244 C 
ATOM     27  H   UNL     1     -17.197   2.555  28.617  0.00  0.00    +0.149 HD
BRANCH  16  18
ATOM      1  F   UNL     1     -13.382   5.014  32.616  0.00  0.00    -0.205 F 
ATOM     18  C   UNL     1     -15.364   2.135  30.418  0.00  0.00    +0.037 A 
ATOM     20  C   UNL     1     -15.929   3.400  30.582  0.00  0.00    +0.016 A 
ATOM     21  C   UNL     1     -14.128   1.844  30.996  0.00  0.00    +0.016 A 
ATOM     22  C   UNL     1     -15.260   4.373  31.324  0.00  0.00    +0.039 A 
ATOM     23  C   UNL     1     -13.458   2.817  31.739  0.00  0.00    +0.039 A 
ATOM     24  C   UNL     1     -14.025   4.081  31.902  0.00  0.00    +0.123 A 
ENDBRANCH  16  18
ENDBRANCH  13   6
ENDBRANCH  11  13
TORSDOF 7
ENDMDL
MODEL 8
REMARK VINA RESULT:      -6.3     28.109     30.010
REMARK  Name = 86769005
REMARK  7 active torsions:
REMARK  status: ('A' for Active; 'I' for Inactive)
REMARK    1  A    between atoms: O_3  and  C_10
REMARK    2  A    between atoms: N_5  and  C_9
REMARK    3  A    between atoms: N_5  and  C_14
REMARK    4  A    between atoms: N_6  and  C_13
REMARK    5  A    between atoms: C_11  and  C_13
REMARK    6  A    between atoms: C_14  and  C_15
REMARK    7  A    between atoms: C_16  and  C_18
REMARK                            x       y       z     vdW  Elec       q    Type
REMARK                         _______ _______ _______ _____ _____    ______ ____
ROOT
ATOM      2  O   UNL     1      -5.269 -10.245  16.716  0.00  0.00    -0.371 OA
ATOM      9  C   UNL     1      -5.528 -10.743  19.024  0.00  0.00    +0.111 C 
ATOM     10  C   UNL     1      -4.650 -11.803  18.385  0.00  0.00    +0.164 C 
ATOM     11  C   UNL     1      -4.173 -11.074  17.136  0.00  0.00    +0.165 C 
ATOM     12  C   UNL     1      -6.204 -10.136  17.805  0.00  0.00    +0.181 C 
ENDROOT
BRANCH  10   3
ATOM      3  O   UNL     1      -3.572 -12.192  19.213  0.00  0.00    -0.388 OA
ATOM     26  H   UNL     1      -3.425 -11.493  19.872  0.00  0.00    +0.210 HD
ENDBRANCH  10   3
BRANCH   9   5
ATOM      5  N   UNL     1      -6.476 -11.276  19.989  0.00  0.00    -0.304 NA
ATOM     25  H   UNL     1      -6.978 -10.501  20.424  0.00  0.00    +0.123 HD
BRANCH   5  14
ATOM     14  C   UNL     1      -7.439 -12.163  19.346  0.00  0.00    +0.136 C 
BRANCH  14  15
ATOM      7  N   UNL     1      -9.328 -10.522  19.662  0.00  0.00    -0.347 N 
ATOM      8  N   UNL     1     -11.037 -11.778  20.318  0.00  0.00    -0.244 NA
ATOM     15  C   UNL     1      -8.857 -11.804  19.701  0.00  0.00    +0.049 A 
ATOM     17  C   UNL     1      -9.930 -12.561  20.108  0.00  0.00    +0.134 A 
ATOM     19  C   UNL     1     -10.641 -10.555  20.040  0.00  0.00    +0.196 A 
ATOM     28  H   UNL     1      -8.803  -9.697  19.402  0.00  0.00    +0.167 HD
ENDBRANCH  14  15
ENDBRANCH   5  14
ENDBRANCH   9   5
BRANCH  11  13
ATOM     13  C   UNL     1      -3.776 -12.010  16.009  0.00  0.00    +0.138 C 
BRANCH  13   6
ATOM      4  O   UNL     1      -1.686 -11.697  14.065  0.00  0.00    -0.270 OA
ATOM      6  N   UNL     1      -3.884 -11.365  14.732  0.00  0.00    -0.309 N 
ATOM     16  C   UNL     1      -2.813 -11.258  13.849  0.00  0.00    +0.244 C 
ATOM     27  H   UNL     1      -4.770 -10.920  14.521  0.00  0.00    +0.149 HD
BRANCH  16  18
ATOM      1  F   UNL     1      -3.821  -8.538   9.043  0.00  0.00    -0.205 F 
ATOM     18  C   UNL     1      -3.080 -10.539  12.577  0.00  0.00    +0.037 A 
ATOM     20  C   UNL     1      -4.392 -10.353  12.143  0.00  0.00    +0.016 A 
ATOM     21  C   UNL     1      -2.018 -10.048  11.817  0.00  0.00    +0.016 A 
ATOM     22  C   UNL     1      -4.643  -9.678  10.949  0.00  0.00    +0.039 A 
ATOM     23  C   UNL     1      -2.269  -9.372  10.623  0.00  0.00    +0.039 A 
ATOM     24  C   UNL     1      -3.581  -9.188  10.188  0.00  0.00    +0.123 A 
ENDBRANCH  16  18
ENDBRANCH  13   6
ENDBRANCH  11  13
TORSDOF 7
ENDMDL
MODEL 9
REMARK VINA RESULT:      -6.3     27.517     29.406
REMARK  Name = 86769005
REMARK  7 active torsions:
REMARK  status: ('A' for Active; 'I' for Inactive)
REMARK    1  A    between atoms: O_3  and  C_10
REMARK    2  A    between atoms: N_5  and  C_9
REMARK    3  A    between atoms: N_5  and  C_14
REMARK    4  A    between atoms: N_6  and  C_13
REMARK    5  A    between atoms: C_11  and  C_13
REMARK    6  A    between atoms: C_14  and  C_15
REMARK    7  A    between atoms: C_16  and  C_18
REMARK                            x       y       z     vdW  Elec       q    Type
REMARK                         _______ _______ _______ _____ _____    ______ ____
ROOT
ATOM      2  O   UNL     1      -3.403 -11.595  12.457  0.00  0.00    -0.371 OA
ATOM      9  C   UNL     1      -3.233 -10.379  10.424  0.00  0.00    +0.111 C 
ATOM     10  C   UNL     1      -2.348  -9.723  11.468  0.00  0.00    +0.164 C 
ATOM     11  C   UNL     1      -2.165 -10.867  12.456  0.00  0.00    +0.165 C 
ATOM     12  C   UNL     1      -4.160 -11.212  11.294  0.00  0.00    +0.181 C 
ENDROOT
BRANCH  10   3
ATOM      3  O   UNL     1      -1.114  -9.280  10.939  0.00  0.00    -0.388 OA
ATOM     26  H   UNL     1      -0.558 -10.059  10.768  0.00  0.00    +0.210 HD
ENDBRANCH  10   3
BRANCH   9   5
ATOM      5  N   UNL     1      -3.947  -9.430   9.586  0.00  0.00    -0.304 NA
ATOM     25  H   UNL     1      -4.561  -9.942   8.952  0.00  0.00    +0.123 HD
BRANCH   5  14
ATOM     14  C   UNL     1      -4.750  -8.517  10.390  0.00  0.00    +0.136 C 
BRANCH  14  15
ATOM      7  N   UNL     1      -6.516  -7.701   8.786  0.00  0.00    -0.347 N 
ATOM      8  N   UNL     1      -8.400  -8.599   9.545  0.00  0.00    -0.244 NA
ATOM     15  C   UNL     1      -6.167  -8.426   9.890  0.00  0.00    +0.049 A 
ATOM     17  C   UNL     1      -7.346  -8.971  10.341  0.00  0.00    +0.134 A 
ATOM     19  C   UNL     1      -7.866  -7.835   8.617  0.00  0.00    +0.196 A 
ATOM     28  H   UNL     1      -5.893  -7.163   8.199  0.00  0.00    +0.167 HD
ENDBRANCH  14  15
ENDBRANCH   5  14
ENDBRANCH   9   5
BRANCH  11  13
ATOM     13  C   UNL     1      -1.843 -10.399  13.864  0.00  0.00    +0.138 C 
BRANCH  13   6
ATOM      4  O   UNL     1      -1.999 -10.825  16.700  0.00  0.00    -0.270 OA
ATOM      6  N   UNL     1      -3.024 -10.334  14.676  0.00  0.00    -0.309 N 
ATOM     16  C   UNL     1      -3.007 -10.557  16.050  0.00  0.00    +0.244 C 
ATOM     27  H   UNL     1      -3.901 -10.186  14.190  0.00  0.00    +0.149 HD
BRANCH  16  18
ATOM      1  F   UNL     1      -7.961 -10.265  18.674  0.00  0.00    -0.205 F 
ATOM     18  C   UNL     1      -4.318 -10.479  16.744  0.00  0.00    +0.037 A 
ATOM     20  C   UNL     1      -5.376  -9.783  16.161  0.00  0.00    +0.016 A 
ATOM     21  C   UNL     1      -4.490 -11.103  17.980  0.00  0.00    +0.016 A 
ATOM     22  C   UNL     1      -6.607  -9.710  16.812  0.00  0.00    +0.039 A 
ATOM     23  C   UNL     1      -5.722 -11.031  18.632  0.00  0.00    +0.039 A 
ATOM     24  C   UNL     1      -6.780 -10.334  18.048  0.00  0.00    +0.123 A 
ENDBRANCH  16  18
ENDBRANCH  13   6
ENDBRANCH  11  13
TORSDOF 7
ENDMDL
MODEL 10
REMARK VINA RESULT:      -6.3     34.489     35.294
REMARK  Name = 86769005
REMARK  7 active torsions:
REMARK  status: ('A' for Active; 'I' for Inactive)
REMARK    1  A    between atoms: O_3  and  C_10
REMARK    2  A    between atoms: N_5  and  C_9
REMARK    3  A    between atoms: N_5  and  C_14
REMARK    4  A    between atoms: N_6  and  C_13
REMARK    5  A    between atoms: C_11  and  C_13
REMARK    6  A    between atoms: C_14  and  C_15
REMARK    7  A    between atoms: C_16  and  C_18
REMARK                            x       y       z     vdW  Elec       q    Type
REMARK                         _______ _______ _______ _____ _____    ______ ____
ROOT
ATOM      2  O   UNL     1     -16.115   2.831  31.659  0.00  0.00    -0.371 OA
ATOM      9  C   UNL     1     -15.337   2.652  29.422  0.00  0.00    +0.111 C 
ATOM     10  C   UNL     1     -14.146   2.625  30.363  0.00  0.00    +0.164 C 
ATOM     11  C   UNL     1     -14.816   2.217  31.669  0.00  0.00    +0.165 C 
ATOM     12  C   UNL     1     -16.414   3.248  30.315  0.00  0.00    +0.181 C 
ENDROOT
BRANCH  10   3
ATOM      3  O   UNL     1     -13.156   1.697  29.966  0.00  0.00    -0.388 OA
ATOM     26  H   UNL     1     -13.189   0.937  30.571  0.00  0.00    +0.210 HD
ENDBRANCH  10   3
BRANCH   9   5
ATOM      5  N   UNL     1     -15.108   3.431  28.216  0.00  0.00    -0.304 NA
ATOM     25  H   UNL     1     -14.480   2.913  27.600  0.00  0.00    +0.123 HD
BRANCH   5  14
ATOM     14  C   UNL     1     -16.358   3.686  27.510  0.00  0.00    +0.136 C 
BRANCH  14  15
ATOM      7  N   UNL     1     -15.760   4.360  25.155  0.00  0.00    -0.347 N 
ATOM      8  N   UNL     1     -16.234   2.566  23.936  0.00  0.00    -0.244 NA
ATOM     15  C   UNL     1     -16.232   3.426  26.033  0.00  0.00    +0.049 A 
ATOM     17  C   UNL     1     -16.518   2.327  25.258  0.00  0.00    +0.134 A 
ATOM     19  C   UNL     1     -15.778   3.799  23.909  0.00  0.00    +0.196 A 
ATOM     28  H   UNL     1     -15.452   5.297  25.382  0.00  0.00    +0.167 HD
ENDBRANCH  14  15
ENDBRANCH   5  14
ENDBRANCH   9   5
BRANCH  11  13
ATOM     13  C   UNL     1     -14.048   2.661  32.901  0.00  0.00    +0.138 C 
BRANCH  13   6
ATOM      4  O   UNL     1     -14.810   4.573  34.904  0.00  0.00    -0.270 OA
ATOM      6  N   UNL     1     -13.793   4.073  32.878  0.00  0.00    -0.309 N 
ATOM     16  C   UNL     1     -14.202   4.929  33.897  0.00  0.00    +0.244 C 
ATOM     27  H   UNL     1     -13.357   4.442  32.041  0.00  0.00    +0.149 HD
BRANCH  16  18
ATOM      1  F   UNL     1     -13.007  10.369  33.196  0.00  0.00    -0.205 F 
ATOM     18  C   UNL     1     -13.886   6.368  33.712  0.00  0.00    +0.037 A 
ATOM     20  C   UNL     1     -13.400   7.119  34.782  0.00  0.00    +0.016 A 
ATOM     21  C   UNL     1     -14.075   6.969  32.467  0.00  0.00    +0.016 A 
ATOM     22  C   UNL     1     -13.104   8.471  34.608  0.00  0.00    +0.039 A 
ATOM     23  C   UNL     1     -13.778   8.321  32.293  0.00  0.00    +0.039 A 
ATOM     24  C   UNL     1     -13.293   9.072  33.364  0.00  0.00    +0.123 A 
ENDBRANCH  16  18
ENDBRANCH  13   6
ENDBRANCH  11  13
TORSDOF 7
ENDMDL
