MODEL 1
REMARK VINA RESULT:      -7.1      0.000      0.000
REMARK  Name = 44716321
REMARK  8 active torsions:
REMARK  status: ('A' for Active; 'I' for Inactive)
REMARK    1  A    between atoms: N_2  and  C_17
REMARK    2  A    between atoms: N_3  and  C_14
REMARK    3  A    between atoms: N_5  and  C_23
REMARK    4  A    between atoms: N_5  and  C_24
REMARK    5  A    between atoms: N_5  and  C_25
REMARK    6  A    between atoms: C_7  and  C_13
REMARK    7  A    between atoms: C_8  and  C_14
REMARK    8  A    between atoms: C_16  and  C_18
REMARK                            x       y       z     vdW  Elec       q    Type
REMARK                         _______ _______ _______ _____ _____    ______ ____
ROOT
ATOM      2  N   UNL     1      15.968   9.164  21.350  0.00  0.00    -0.270 N 
ATOM      4  N   UNL     1      17.201   8.738  21.674  0.00  0.00    -0.171 NA
ATOM     13  C   UNL     1      15.288   8.311  20.530  0.00  0.00    +0.044 A 
ATOM     15  C   UNL     1      16.136   7.255  20.302  0.00  0.00    +0.053 A 
ATOM     16  C   UNL     1      17.298   7.571  21.031  0.00  0.00    +0.093 A 
ATOM     17  C   UNL     1      15.498  10.425  21.873  0.00  0.00    +0.172 C 
ENDROOT
BRANCH  13   7
ATOM      1  N   UNL     1      11.748   7.280  19.680  0.00  0.00    -0.298 NA
ATOM      6  C   UNL     1      12.859   9.213  21.029  0.00  0.00    +0.002 C 
ATOM      7  C   UNL     1      13.877   8.588  20.034  0.00  0.00    +0.055 C 
ATOM      8  C   UNL     1      11.495   7.096  21.133  0.00  0.00    +0.070 C 
ATOM      9  C   UNL     1      12.315   8.109  21.961  0.00  0.00    +0.024 C 
ATOM     10  C   UNL     1      11.669   9.721  20.187  0.00  0.00    +0.019 C 
ATOM     11  C   UNL     1      13.209   7.325  19.420  0.00  0.00    +0.094 C 
ATOM     12  C   UNL     1      11.167   8.584  19.279  0.00  0.00    +0.085 C 
BRANCH   8  14
ATOM     14  C   UNL     1      11.741   5.656  21.589  0.00  0.00    +0.096 C 
BRANCH  14   3
ATOM      3  N   UNL     1      10.654   4.788  21.164  0.00  0.00    -0.329 NA
ATOM     26  H   UNL     1      10.191   5.197  20.355  0.00  0.00    +0.118 HD
ATOM     27  H   UNL     1      11.020   3.889  20.853  0.00  0.00    +0.118 HD
ENDBRANCH  14   3
ENDBRANCH   8  14
ENDBRANCH  13   7
BRANCH  16  18
ATOM     18  C   UNL     1      18.498   6.782  21.123  0.00  0.00    +0.002 A 
ATOM     19  C   UNL     1      18.773   5.814  20.156  0.00  0.00    +0.012 A 
ATOM     20  C   UNL     1      19.388   6.985  22.178  0.00  0.00    +0.012 A 
ATOM     21  C   UNL     1      19.936   5.050  20.245  0.00  0.00    +0.024 A 
ATOM     22  C   UNL     1      20.551   6.221  22.267  0.00  0.00    +0.024 A 
ATOM     23  C   UNL     1      20.826   5.254  21.301  0.00  0.00    +0.029 A 
BRANCH  23   5
ATOM      5  N   UNL     1      22.002   4.481  21.390  0.00  0.00    -0.336 N 
ATOM     24  C   UNL     1      22.101   3.405  22.356  0.00  0.00    +0.129 C 
ATOM     25  C   UNL     1      23.124   4.749  20.513  0.00  0.00    +0.129 C 
ENDBRANCH  23   5
ENDBRANCH  16  18
TORSDOF 5
ENDMDL
MODEL 2
REMARK VINA RESULT:      -7.0      4.621      7.036
REMARK  Name = 44716321
REMARK  8 active torsions:
REMARK  status: ('A' for Active; 'I' for Inactive)
REMARK    1  A    between atoms: N_2  and  C_17
REMARK    2  A    between atoms: N_3  and  C_14
REMARK    3  A    between atoms: N_5  and  C_23
REMARK    4  A    between atoms: N_5  and  C_24
REMARK    5  A    between atoms: N_5  and  C_25
REMARK    6  A    between atoms: C_7  and  C_13
REMARK    7  A    between atoms: C_8  and  C_14
REMARK    8  A    between atoms: C_16  and  C_18
REMARK                            x       y       z     vdW  Elec       q    Type
REMARK                         _______ _______ _______ _____ _____    ______ ____
ROOT
ATOM      2  N   UNL     1      12.066   9.185  16.787  0.00  0.00    -0.270 N 
ATOM      4  N   UNL     1      12.795   9.926  15.937  0.00  0.00    -0.171 NA
ATOM     13  C   UNL     1      12.676   8.963  17.987  0.00  0.00    +0.044 A 
ATOM     15  C   UNL     1      13.889   9.603  17.915  0.00  0.00    +0.053 A 
ATOM     16  C   UNL     1      13.908  10.179  16.631  0.00  0.00    +0.093 A 
ATOM     17  C   UNL     1      10.765   8.712  16.374  0.00  0.00    +0.172 C 
ENDROOT
BRANCH  13   7
ATOM      1  N   UNL     1      12.817   6.761  21.062  0.00  0.00    -0.298 NA
ATOM      6  C   UNL     1      11.517   8.906  20.357  0.00  0.00    +0.002 C 
ATOM      7  C   UNL     1      12.038   8.149  19.104  0.00  0.00    +0.055 C 
ATOM      8  C   UNL     1      13.317   7.932  21.828  0.00  0.00    +0.070 C 
ATOM      9  C   UNL     1      12.707   9.241  21.281  0.00  0.00    +0.024 C 
ATOM     10  C   UNL     1      10.610   7.922  21.127  0.00  0.00    +0.019 C 
ATOM     11  C   UNL     1      12.965   7.006  19.605  0.00  0.00    +0.094 C 
ATOM     12  C   UNL     1      11.373   6.605  21.359  0.00  0.00    +0.085 C 
BRANCH   8  14
ATOM     14  C   UNL     1      14.845   7.990  21.873  0.00  0.00    +0.096 C 
BRANCH  14   3
ATOM      3  N   UNL     1      15.401   6.685  22.191  0.00  0.00    -0.329 NA
ATOM     26  H   UNL     1      15.789   6.268  21.347  0.00  0.00    +0.118 HD
ATOM     27  H   UNL     1      16.181   6.781  22.840  0.00  0.00    +0.118 HD
ENDBRANCH  14   3
ENDBRANCH   8  14
ENDBRANCH  13   7
BRANCH  16  18
ATOM     18  C   UNL     1      14.969  10.963  16.054  0.00  0.00    +0.002 A 
ATOM     19  C   UNL     1      15.342  10.762  14.725  0.00  0.00    +0.012 A 
ATOM     20  C   UNL     1      15.623  11.924  16.825  0.00  0.00    +0.012 A 
ATOM     21  C   UNL     1      16.369  11.523  14.167  0.00  0.00    +0.024 A 
ATOM     22  C   UNL     1      16.651  12.684  16.268  0.00  0.00    +0.024 A 
ATOM     23  C   UNL     1      17.024  12.484  14.939  0.00  0.00    +0.029 A 
BRANCH  23   5
ATOM      5  N   UNL     1      18.063  13.253  14.374  0.00  0.00    -0.336 N 
ATOM     24  C   UNL     1      19.143  12.610  13.654  0.00  0.00    +0.129 C 
ATOM     25  C   UNL     1      18.058  14.697  14.500  0.00  0.00    +0.129 C 
ENDBRANCH  23   5
ENDBRANCH  16  18
TORSDOF 5
ENDMDL
MODEL 3
REMARK VINA RESULT:      -6.8      1.800      2.971
REMARK  Name = 44716321
REMARK  8 active torsions:
REMARK  status: ('A' for Active; 'I' for Inactive)
REMARK    1  A    between atoms: N_2  and  C_17
REMARK    2  A    between atoms: N_3  and  C_14
REMARK    3  A    between atoms: N_5  and  C_23
REMARK    4  A    between atoms: N_5  and  C_24
REMARK    5  A    between atoms: N_5  and  C_25
REMARK    6  A    between atoms: C_7  and  C_13
REMARK    7  A    between atoms: C_8  and  C_14
REMARK    8  A    between atoms: C_16  and  C_18
REMARK                            x       y       z     vdW  Elec       q    Type
REMARK                         _______ _______ _______ _____ _____    ______ ____
ROOT
ATOM      2  N   UNL     1      15.067   7.043  18.868  0.00  0.00    -0.270 N 
ATOM      4  N   UNL     1      16.373   6.730  18.822  0.00  0.00    -0.171 NA
ATOM     13  C   UNL     1      14.561   7.112  20.133  0.00  0.00    +0.044 A 
ATOM     15  C   UNL     1      15.610   6.824  20.972  0.00  0.00    +0.053 A 
ATOM     16  C   UNL     1      16.699   6.596  20.110  0.00  0.00    +0.093 A 
ATOM     17  C   UNL     1      14.351   7.266  17.634  0.00  0.00    +0.172 C 
ENDROOT
BRANCH  13   7
ATOM      1  N   UNL     1      11.819   8.713  22.192  0.00  0.00    -0.298 NA
ATOM      6  C   UNL     1      12.464   8.644  19.669  0.00  0.00    +0.002 C 
ATOM      7  C   UNL     1      13.107   7.450  20.427  0.00  0.00    +0.055 C 
ATOM      8  C   UNL     1      12.327  10.042  21.761  0.00  0.00    +0.070 C 
ATOM      9  C   UNL     1      12.905   9.966  20.332  0.00  0.00    +0.024 C 
ATOM     10  C   UNL     1      10.937   8.527  19.866  0.00  0.00    +0.019 C 
ATOM     11  C   UNL     1      12.848   7.671  21.944  0.00  0.00    +0.094 C 
ATOM     12  C   UNL     1      10.629   8.391  21.368  0.00  0.00    +0.085 C 
BRANCH   8  14
ATOM     14  C   UNL     1      13.332  10.631  22.753  0.00  0.00    +0.096 C 
BRANCH  14   3
ATOM      3  N   UNL     1      12.676  10.990  24.000  0.00  0.00    -0.329 NA
ATOM     26  H   UNL     1      13.066  10.434  24.760  0.00  0.00    +0.118 HD
ATOM     27  H   UNL     1      12.871  11.962  24.235  0.00  0.00    +0.118 HD
ENDBRANCH  14   3
ENDBRANCH   8  14
ENDBRANCH  13   7
BRANCH  16  18
ATOM     18  C   UNL     1      18.043   6.254  20.494  0.00  0.00    +0.002 A 
ATOM     19  C   UNL     1      18.644   6.892  21.579  0.00  0.00    +0.012 A 
ATOM     20  C   UNL     1      18.746   5.283  19.780  0.00  0.00    +0.012 A 
ATOM     21  C   UNL     1      19.946   6.559  21.951  0.00  0.00    +0.024 A 
ATOM     22  C   UNL     1      20.048   4.950  20.151  0.00  0.00    +0.024 A 
ATOM     23  C   UNL     1      20.649   5.587  21.237  0.00  0.00    +0.029 A 
BRANCH  23   5
ATOM      5  N   UNL     1      21.966   5.251  21.613  0.00  0.00    -0.336 N 
ATOM     24  C   UNL     1      23.098   5.811  20.902  0.00  0.00    +0.129 C 
ATOM     25  C   UNL     1      22.204   4.347  22.720  0.00  0.00    +0.129 C 
ENDBRANCH  23   5
ENDBRANCH  16  18
TORSDOF 5
ENDMDL
MODEL 4
REMARK VINA RESULT:      -6.4     25.995     29.163
REMARK  Name = 44716321
REMARK  8 active torsions:
REMARK  status: ('A' for Active; 'I' for Inactive)
REMARK    1  A    between atoms: N_2  and  C_17
REMARK    2  A    between atoms: N_3  and  C_14
REMARK    3  A    between atoms: N_5  and  C_23
REMARK    4  A    between atoms: N_5  and  C_24
REMARK    5  A    between atoms: N_5  and  C_25
REMARK    6  A    between atoms: C_7  and  C_13
REMARK    7  A    between atoms: C_8  and  C_14
REMARK    8  A    between atoms: C_16  and  C_18
REMARK                            x       y       z     vdW  Elec       q    Type
REMARK                         _______ _______ _______ _____ _____    ______ ____
ROOT
ATOM      2  N   UNL     1      -2.601 -10.609  14.747  0.00  0.00    -0.270 N 
ATOM      4  N   UNL     1      -2.451 -10.638  13.413  0.00  0.00    -0.171 NA
ATOM     13  C   UNL     1      -3.900 -10.684  15.158  0.00  0.00    +0.044 A 
ATOM     15  C   UNL     1      -4.651 -10.766  14.011  0.00  0.00    +0.053 A 
ATOM     16  C   UNL     1      -3.706 -10.733  12.968  0.00  0.00    +0.093 A 
ATOM     17  C   UNL     1      -1.430 -10.507  15.587  0.00  0.00    +0.172 C 
ENDROOT
BRANCH  13   7
ATOM      1  N   UNL     1      -6.452 -10.527  17.947  0.00  0.00    -0.298 NA
ATOM      6  C   UNL     1      -4.401 -12.027  17.373  0.00  0.00    +0.002 C 
ATOM      7  C   UNL     1      -4.308 -10.668  16.624  0.00  0.00    +0.055 C 
ATOM      8  C   UNL     1      -6.910 -11.883  17.550  0.00  0.00    +0.070 C 
ATOM      9  C   UNL     1      -5.730 -12.720  17.010  0.00  0.00    +0.024 C 
ATOM     10  C   UNL     1      -4.458 -11.699  18.881  0.00  0.00    +0.019 C 
ATOM     11  C   UNL     1      -5.652  -9.920  16.854  0.00  0.00    +0.094 C 
ATOM     12  C   UNL     1      -5.576 -10.672  19.135  0.00  0.00    +0.085 C 
BRANCH   8  14
ATOM     14  C   UNL     1      -8.077 -11.838  16.561  0.00  0.00    +0.096 C 
BRANCH  14   3
ATOM      3  N   UNL     1      -7.708 -12.457  15.299  0.00  0.00    -0.329 NA
ATOM     26  H   UNL     1      -7.508 -11.732  14.612  0.00  0.00    +0.118 HD
ATOM     27  H   UNL     1      -6.845 -12.989  15.404  0.00  0.00    +0.118 HD
ENDBRANCH  14   3
ENDBRANCH   8  14
ENDBRANCH  13   7
BRANCH  16  18
ATOM     18  C   UNL     1      -3.981 -10.789  11.556  0.00  0.00    +0.002 A 
ATOM     19  C   UNL     1      -4.411 -11.982  10.975  0.00  0.00    +0.012 A 
ATOM     20  C   UNL     1      -3.817  -9.650  10.768  0.00  0.00    +0.012 A 
ATOM     21  C   UNL     1      -4.678 -12.036   9.607  0.00  0.00    +0.024 A 
ATOM     22  C   UNL     1      -4.082  -9.703   9.400  0.00  0.00    +0.024 A 
ATOM     23  C   UNL     1      -4.514 -10.896   8.819  0.00  0.00    +0.029 A 
BRANCH  23   5
ATOM      5  N   UNL     1      -4.784 -10.951   7.436  0.00  0.00    -0.336 N 
ATOM     24  C   UNL     1      -5.584  -9.922   6.804  0.00  0.00    +0.129 C 
ATOM     25  C   UNL     1      -4.256 -12.032   6.628  0.00  0.00    +0.129 C 
ENDBRANCH  23   5
ENDBRANCH  16  18
TORSDOF 5
ENDMDL
MODEL 5
REMARK VINA RESULT:      -6.4     27.961     31.217
REMARK  Name = 44716321
REMARK  8 active torsions:
REMARK  status: ('A' for Active; 'I' for Inactive)
REMARK    1  A    between atoms: N_2  and  C_17
REMARK    2  A    between atoms: N_3  and  C_14
REMARK    3  A    between atoms: N_5  and  C_23
REMARK    4  A    between atoms: N_5  and  C_24
REMARK    5  A    between atoms: N_5  and  C_25
REMARK    6  A    between atoms: C_7  and  C_13
REMARK    7  A    between atoms: C_8  and  C_14
REMARK    8  A    between atoms: C_16  and  C_18
REMARK                            x       y       z     vdW  Elec       q    Type
REMARK                         _______ _______ _______ _____ _____    ______ ____
ROOT
ATOM      2  N   UNL     1      -9.494 -10.379  18.693  0.00  0.00    -0.270 N 
ATOM      4  N   UNL     1     -10.455  -9.557  18.240  0.00  0.00    -0.171 NA
ATOM     13  C   UNL     1      -8.416 -10.477  17.863  0.00  0.00    +0.044 A 
ATOM     15  C   UNL     1      -8.692  -9.664  16.791  0.00  0.00    +0.053 A 
ATOM     16  C   UNL     1      -9.961  -9.124  17.077  0.00  0.00    +0.093 A 
ATOM     17  C   UNL     1      -9.679 -11.052  19.958  0.00  0.00    +0.172 C 
ENDROOT
BRANCH  13   7
ATOM      1  N   UNL     1      -5.334 -12.443  16.882  0.00  0.00    -0.298 NA
ATOM      6  C   UNL     1      -5.916 -10.658  18.688  0.00  0.00    +0.002 C 
ATOM      7  C   UNL     1      -7.208 -11.350  18.171  0.00  0.00    +0.055 C 
ATOM      8  C   UNL     1      -4.666 -11.156  16.558  0.00  0.00    +0.070 C 
ATOM      9  C   UNL     1      -5.160 -10.034  17.496  0.00  0.00    +0.024 C 
ATOM     10  C   UNL     1      -5.014 -11.771  19.263  0.00  0.00    +0.019 C 
ATOM     11  C   UNL     1      -6.803 -12.246  16.966  0.00  0.00    +0.094 C 
ATOM     12  C   UNL     1      -4.851 -12.884  18.213  0.00  0.00    +0.085 C 
BRANCH   8  14
ATOM     14  C   UNL     1      -4.818 -10.776  15.084  0.00  0.00    +0.096 C 
BRANCH  14   3
ATOM      3  N   UNL     1      -5.582  -9.547  14.944  0.00  0.00    -0.329 NA
ATOM     26  H   UNL     1      -6.516  -9.766  14.601  0.00  0.00    +0.118 HD
ATOM     27  H   UNL     1      -5.714  -9.106  15.853  0.00  0.00    +0.118 HD
ENDBRANCH  14   3
ENDBRANCH   8  14
ENDBRANCH  13   7
BRANCH  16  18
ATOM     18  C   UNL     1     -10.708  -8.203  16.261  0.00  0.00    +0.002 A 
ATOM     19  C   UNL     1     -11.287  -8.639  15.069  0.00  0.00    +0.012 A 
ATOM     20  C   UNL     1     -10.853  -6.875  16.662  0.00  0.00    +0.012 A 
ATOM     21  C   UNL     1     -12.013  -7.747  14.279  0.00  0.00    +0.024 A 
ATOM     22  C   UNL     1     -11.578  -5.983  15.872  0.00  0.00    +0.024 A 
ATOM     23  C   UNL     1     -12.158  -6.419  14.680  0.00  0.00    +0.029 A 
BRANCH  23   5
ATOM      5  N   UNL     1     -12.891  -5.517  13.881  0.00  0.00    -0.336 N 
ATOM     24  C   UNL     1     -12.210  -4.482  13.130  0.00  0.00    +0.129 C 
ATOM     25  C   UNL     1     -14.334  -5.619  13.795  0.00  0.00    +0.129 C 
ENDBRANCH  23   5
ENDBRANCH  16  18
TORSDOF 5
ENDMDL
MODEL 6
REMARK VINA RESULT:      -6.3     25.429     26.693
REMARK  Name = 44716321
REMARK  8 active torsions:
REMARK  status: ('A' for Active; 'I' for Inactive)
REMARK    1  A    between atoms: N_2  and  C_17
REMARK    2  A    between atoms: N_3  and  C_14
REMARK    3  A    between atoms: N_5  and  C_23
REMARK    4  A    between atoms: N_5  and  C_24
REMARK    5  A    between atoms: N_5  and  C_25
REMARK    6  A    between atoms: C_7  and  C_13
REMARK    7  A    between atoms: C_8  and  C_14
REMARK    8  A    between atoms: C_16  and  C_18
REMARK                            x       y       z     vdW  Elec       q    Type
REMARK                         _______ _______ _______ _____ _____    ______ ____
ROOT
ATOM      2  N   UNL     1      17.333  -3.880  -2.865  0.00  0.00    -0.270 N 
ATOM      4  N   UNL     1      18.198  -3.902  -1.837  0.00  0.00    -0.171 NA
ATOM     13  C   UNL     1      16.986  -5.118  -3.320  0.00  0.00    +0.044 A 
ATOM     15  C   UNL     1      17.672  -6.012  -2.535  0.00  0.00    +0.053 A 
ATOM     16  C   UNL     1      18.402  -5.207  -1.640  0.00  0.00    +0.093 A 
ATOM     17  C   UNL     1      16.873  -2.608  -3.372  0.00  0.00    +0.172 C 
ENDROOT
BRANCH  13   7
ATOM      1  N   UNL     1      14.986  -7.297  -5.681  0.00  0.00    -0.298 NA
ATOM      6  C   UNL     1      14.497  -5.216  -4.193  0.00  0.00    +0.002 C 
ATOM      7  C   UNL     1      16.021  -5.336  -4.477  0.00  0.00    +0.055 C 
ATOM      8  C   UNL     1      14.128  -7.685  -4.532  0.00  0.00    +0.070 C 
ATOM      9  C   UNL     1      13.998  -6.517  -3.531  0.00  0.00    +0.024 C 
ATOM     10  C   UNL     1      13.796  -5.108  -5.564  0.00  0.00    +0.019 C 
ATOM     11  C   UNL     1      16.253  -6.698  -5.190  0.00  0.00    +0.094 C 
ATOM     12  C   UNL     1      14.261  -6.267  -6.464  0.00  0.00    +0.085 C 
BRANCH   8  14
ATOM     14  C   UNL     1      14.609  -8.968  -3.852  0.00  0.00    +0.096 C 
BRANCH  14   3
ATOM      3  N   UNL     1      14.335  -8.930  -2.425  0.00  0.00    -0.329 NA
ATOM     26  H   UNL     1      14.331  -9.880  -2.055  0.00  0.00    +0.118 HD
ATOM     27  H   UNL     1      15.082  -8.441  -1.933  0.00  0.00    +0.118 HD
ENDBRANCH  14   3
ENDBRANCH   8  14
ENDBRANCH  13   7
BRANCH  16  18
ATOM     18  C   UNL     1      19.290  -5.661  -0.603  0.00  0.00    +0.002 A 
ATOM     19  C   UNL     1      19.856  -6.934  -0.676  0.00  0.00    +0.012 A 
ATOM     20  C   UNL     1      19.586  -4.828   0.476  0.00  0.00    +0.012 A 
ATOM     21  C   UNL     1      20.718  -7.374   0.329  0.00  0.00    +0.024 A 
ATOM     22  C   UNL     1      20.446  -5.267   1.482  0.00  0.00    +0.024 A 
ATOM     23  C   UNL     1      21.013  -6.540   1.408  0.00  0.00    +0.029 A 
BRANCH  23   5
ATOM      5  N   UNL     1      21.884  -6.984   2.425  0.00  0.00    -0.336 N 
ATOM     24  C   UNL     1      22.068  -8.401   2.666  0.00  0.00    +0.129 C 
ATOM     25  C   UNL     1      22.613  -6.029   3.236  0.00  0.00    +0.129 C 
ENDBRANCH  23   5
ENDBRANCH  16  18
TORSDOF 5
ENDMDL
MODEL 7
REMARK VINA RESULT:      -6.2     32.507     33.738
REMARK  Name = 44716321
REMARK  8 active torsions:
REMARK  status: ('A' for Active; 'I' for Inactive)
REMARK    1  A    between atoms: N_2  and  C_17
REMARK    2  A    between atoms: N_3  and  C_14
REMARK    3  A    between atoms: N_5  and  C_23
REMARK    4  A    between atoms: N_5  and  C_24
REMARK    5  A    between atoms: N_5  and  C_25
REMARK    6  A    between atoms: C_7  and  C_13
REMARK    7  A    between atoms: C_8  and  C_14
REMARK    8  A    between atoms: C_16  and  C_18
REMARK                            x       y       z     vdW  Elec       q    Type
REMARK                         _______ _______ _______ _____ _____    ______ ____
ROOT
ATOM      2  N   UNL     1     -15.168   1.897  31.472  0.00  0.00    -0.270 N 
ATOM      4  N   UNL     1     -14.508   2.574  32.426  0.00  0.00    -0.171 NA
ATOM     13  C   UNL     1     -15.955   2.683  30.682  0.00  0.00    +0.044 A 
ATOM     15  C   UNL     1     -15.798   3.964  31.153  0.00  0.00    +0.053 A 
ATOM     16  C   UNL     1     -14.897   3.836  32.227  0.00  0.00    +0.093 A 
ATOM     17  C   UNL     1     -14.994   0.466  31.374  0.00  0.00    +0.172 C 
ENDROOT
BRANCH  13   7
ATOM      1  N   UNL     1     -18.407   3.038  27.822  0.00  0.00    -0.298 NA
ATOM      6  C   UNL     1     -16.097   1.886  28.170  0.00  0.00    +0.002 C 
ATOM      7  C   UNL     1     -16.794   2.133  29.538  0.00  0.00    +0.055 C 
ATOM      8  C   UNL     1     -17.357   3.768  27.064  0.00  0.00    +0.070 C 
ATOM      9  C   UNL     1     -15.955   3.228  27.421  0.00  0.00    +0.024 C 
ATOM     10  C   UNL     1     -17.051   1.002  27.338  0.00  0.00    +0.019 C 
ATOM     11  C   UNL     1     -18.058   2.997  29.264  0.00  0.00    +0.094 C 
ATOM     12  C   UNL     1     -18.449   1.645  27.316  0.00  0.00    +0.085 C 
BRANCH   8  14
ATOM     14  C   UNL     1     -17.449   5.283  27.252  0.00  0.00    +0.096 C 
BRANCH  14   3
ATOM      3  N   UNL     1     -17.177   5.975  26.003  0.00  0.00    -0.329 NA
ATOM     26  H   UNL     1     -16.944   6.948  26.199  0.00  0.00    +0.118 HD
ATOM     27  H   UNL     1     -16.357   5.576  25.548  0.00  0.00    +0.118 HD
ENDBRANCH  14   3
ENDBRANCH   8  14
ENDBRANCH  13   7
BRANCH  16  18
ATOM     18  C   UNL     1     -14.403   4.896  33.066  0.00  0.00    +0.002 A 
ATOM     19  C   UNL     1     -14.309   4.709  34.446  0.00  0.00    +0.012 A 
ATOM     20  C   UNL     1     -14.016   6.111  32.500  0.00  0.00    +0.012 A 
ATOM     21  C   UNL     1     -13.829   5.736  35.258  0.00  0.00    +0.024 A 
ATOM     22  C   UNL     1     -13.537   7.138  33.312  0.00  0.00    +0.024 A 
ATOM     23  C   UNL     1     -13.443   6.951  34.691  0.00  0.00    +0.029 A 
BRANCH  23   5
ATOM      5  N   UNL     1     -12.957   7.989  35.513  0.00  0.00    -0.336 N 
ATOM     24  C   UNL     1     -13.240   9.374  35.190  0.00  0.00    +0.129 C 
ATOM     25  C   UNL     1     -12.177   7.685  36.696  0.00  0.00    +0.129 C 
ENDBRANCH  23   5
ENDBRANCH  16  18
TORSDOF 5
ENDMDL
MODEL 8
REMARK VINA RESULT:      -6.1     26.787     29.889
REMARK  Name = 44716321
REMARK  8 active torsions:
REMARK  status: ('A' for Active; 'I' for Inactive)
REMARK    1  A    between atoms: N_2  and  C_17
REMARK    2  A    between atoms: N_3  and  C_14
REMARK    3  A    between atoms: N_5  and  C_23
REMARK    4  A    between atoms: N_5  and  C_24
REMARK    5  A    between atoms: N_5  and  C_25
REMARK    6  A    between atoms: C_7  and  C_13
REMARK    7  A    between atoms: C_8  and  C_14
REMARK    8  A    between atoms: C_16  and  C_18
REMARK                            x       y       z     vdW  Elec       q    Type
REMARK                         _______ _______ _______ _____ _____    ______ ____
ROOT
ATOM      2  N   UNL     1     -12.849  10.346  21.606  0.00  0.00    -0.270 N 
ATOM      4  N   UNL     1     -13.610   9.513  22.334  0.00  0.00    -0.171 NA
ATOM     13  C   UNL     1     -12.245   9.750  20.537  0.00  0.00    +0.044 A 
ATOM     15  C   UNL     1     -12.639   8.435  20.570  0.00  0.00    +0.053 A 
ATOM     16  C   UNL     1     -13.478   8.346  21.697  0.00  0.00    +0.093 A 
ATOM     17  C   UNL     1     -12.743  11.732  22.001  0.00  0.00    +0.172 C 
ENDROOT
BRANCH  13   7
ATOM      1  N   UNL     1     -10.024   9.980  17.482  0.00  0.00    -0.298 NA
ATOM      6  C   UNL     1     -11.999  11.366  18.465  0.00  0.00    +0.002 C 
ATOM      7  C   UNL     1     -11.337  10.500  19.573  0.00  0.00    +0.055 C 
ATOM      8  C   UNL     1     -11.236   9.808  16.638  0.00  0.00    +0.070 C 
ATOM      9  C   UNL     1     -12.466  10.451  17.314  0.00  0.00    +0.024 C 
ATOM     10  C   UNL     1     -10.894  12.281  17.896  0.00  0.00    +0.019 C 
ATOM     11  C   UNL     1     -10.313   9.560  18.876  0.00  0.00    +0.094 C 
ATOM     12  C   UNL     1      -9.681  11.422  17.495  0.00  0.00    +0.085 C 
BRANCH   8  14
ATOM     14  C   UNL     1     -11.487   8.344  16.271  0.00  0.00    +0.096 C 
BRANCH  14   3
ATOM      3  N   UNL     1     -10.252   7.696  15.857  0.00  0.00    -0.329 NA
ATOM     26  H   UNL     1     -10.066   7.916  14.880  0.00  0.00    +0.118 HD
ATOM     27  H   UNL     1      -9.463   8.069  16.383  0.00  0.00    +0.118 HD
ENDBRANCH  14   3
ENDBRANCH   8  14
ENDBRANCH  13   7
BRANCH  16  18
ATOM     18  C   UNL     1     -14.153   7.169  22.177  0.00  0.00    +0.002 A 
ATOM     19  C   UNL     1     -15.307   7.293  22.951  0.00  0.00    +0.012 A 
ATOM     20  C   UNL     1     -13.654   5.904  21.868  0.00  0.00    +0.012 A 
ATOM     21  C   UNL     1     -15.962   6.152  23.415  0.00  0.00    +0.024 A 
ATOM     22  C   UNL     1     -14.307   4.763  22.332  0.00  0.00    +0.024 A 
ATOM     23  C   UNL     1     -15.462   4.887  23.106  0.00  0.00    +0.029 A 
BRANCH  23   5
ATOM      5  N   UNL     1     -16.124   3.733  23.575  0.00  0.00    -0.336 N 
ATOM     24  C   UNL     1     -15.722   3.113  24.822  0.00  0.00    +0.129 C 
ATOM     25  C   UNL     1     -17.219   3.158  22.821  0.00  0.00    +0.129 C 
ENDBRANCH  23   5
ENDBRANCH  16  18
TORSDOF 5
ENDMDL
MODEL 9
REMARK VINA RESULT:      -6.0     17.366     19.833
REMARK  Name = 44716321
REMARK  8 active torsions:
REMARK  status: ('A' for Active; 'I' for Inactive)
REMARK    1  A    between atoms: N_2  and  C_17
REMARK    2  A    between atoms: N_3  and  C_14
REMARK    3  A    between atoms: N_5  and  C_23
REMARK    4  A    between atoms: N_5  and  C_24
REMARK    5  A    between atoms: N_5  and  C_25
REMARK    6  A    between atoms: C_7  and  C_13
REMARK    7  A    between atoms: C_8  and  C_14
REMARK    8  A    between atoms: C_16  and  C_18
REMARK                            x       y       z     vdW  Elec       q    Type
REMARK                         _______ _______ _______ _____ _____    ______ ____
ROOT
ATOM      2  N   UNL     1      12.426   6.457   3.710  0.00  0.00    -0.270 N 
ATOM      4  N   UNL     1      12.653   6.166   2.419  0.00  0.00    -0.171 NA
ATOM     13  C   UNL     1      11.325   5.842   4.230  0.00  0.00    +0.044 A 
ATOM     15  C   UNL     1      10.794   5.097   3.205  0.00  0.00    +0.053 A 
ATOM     16  C   UNL     1      11.653   5.335   2.115  0.00  0.00    +0.093 A 
ATOM     17  C   UNL     1      13.325   7.354   4.400  0.00  0.00    +0.172 C 
ENDROOT
BRANCH  13   7
ATOM      1  N   UNL     1       9.660   7.775   7.024  0.00  0.00    -0.298 NA
ATOM      6  C   UNL     1       9.558   5.333   6.122  0.00  0.00    +0.002 C 
ATOM      7  C   UNL     1      10.875   6.026   5.672  0.00  0.00    +0.055 C 
ATOM      8  C   UNL     1       8.353   7.534   6.358  0.00  0.00    +0.070 C 
ATOM      9  C   UNL     1       8.352   6.168   5.639  0.00  0.00    +0.024 C 
ATOM     10  C   UNL     1       9.542   5.367   7.665  0.00  0.00    +0.019 C 
ATOM     11  C   UNL     1      10.770   7.525   6.071  0.00  0.00    +0.094 C 
ATOM     12  C   UNL     1       9.785   6.810   8.143  0.00  0.00    +0.085 C 
BRANCH   8  14
ATOM     14  C   UNL     1       7.960   8.674   5.417  0.00  0.00    +0.096 C 
BRANCH  14   3
ATOM      3  N   UNL     1       7.657   8.165   4.089  0.00  0.00    -0.329 NA
ATOM     26  H   UNL     1       7.289   7.218   4.165  0.00  0.00    +0.118 HD
ATOM     27  H   UNL     1       6.919   8.719   3.657  0.00  0.00    +0.118 HD
ENDBRANCH  14   3
ENDBRANCH   8  14
ENDBRANCH  13   7
BRANCH  16  18
ATOM     18  C   UNL     1      11.534   4.785   0.790  0.00  0.00    +0.002 A 
ATOM     19  C   UNL     1      12.466   3.852   0.336  0.00  0.00    +0.012 A 
ATOM     20  C   UNL     1      10.487   5.184  -0.040  0.00  0.00    +0.012 A 
ATOM     21  C   UNL     1      12.351   3.318  -0.948  0.00  0.00    +0.024 A 
ATOM     22  C   UNL     1      10.371   4.652  -1.323  0.00  0.00    +0.024 A 
ATOM     23  C   UNL     1      11.303   3.718  -1.778  0.00  0.00    +0.029 A 
BRANCH  23   5
ATOM      5  N   UNL     1      11.186   3.178  -3.075  0.00  0.00    -0.336 N 
ATOM     24  C   UNL     1      12.361   3.003  -3.905  0.00  0.00    +0.129 C 
ATOM     25  C   UNL     1       9.890   2.785  -3.593  0.00  0.00    +0.129 C 
ENDBRANCH  23   5
ENDBRANCH  16  18
TORSDOF 5
ENDMDL
MODEL 10
REMARK VINA RESULT:      -5.9     16.785     19.416
REMARK  Name = 44716321
REMARK  8 active torsions:
REMARK  status: ('A' for Active; 'I' for Inactive)
REMARK    1  A    between atoms: N_2  and  C_17
REMARK    2  A    between atoms: N_3  and  C_14
REMARK    3  A    between atoms: N_5  and  C_23
REMARK    4  A    between atoms: N_5  and  C_24
REMARK    5  A    between atoms: N_5  and  C_25
REMARK    6  A    between atoms: C_7  and  C_13
REMARK    7  A    between atoms: C_8  and  C_14
REMARK    8  A    between atoms: C_16  and  C_18
REMARK                            x       y       z     vdW  Elec       q    Type
REMARK                         _______ _______ _______ _____ _____    ______ ____
ROOT
ATOM      2  N   UNL     1       8.635   8.210   3.080  0.00  0.00    -0.270 N 
ATOM      4  N   UNL     1       8.827   7.672   1.864  0.00  0.00    -0.171 NA
ATOM     13  C   UNL     1       9.415   7.661   4.055  0.00  0.00    +0.044 A 
ATOM     15  C   UNL     1      10.168   6.695   3.433  0.00  0.00    +0.053 A 
ATOM     16  C   UNL     1       9.763   6.747   2.085  0.00  0.00    +0.093 A 
ATOM     17  C   UNL     1       7.667   9.271   3.237  0.00  0.00    +0.172 C 
ENDROOT
BRANCH  13   7
ATOM      1  N   UNL     1       8.900   7.068   7.757  0.00  0.00    -0.298 NA
ATOM      6  C   UNL     1      10.709   8.227   6.284  0.00  0.00    +0.002 C 
ATOM      7  C   UNL     1       9.367   8.112   5.508  0.00  0.00    +0.055 C 
ATOM      8  C   UNL     1      10.150   6.264   7.761  0.00  0.00    +0.070 C 
ATOM      9  C   UNL     1      11.159   6.822   6.735  0.00  0.00    +0.024 C 
ATOM     10  C   UNL     1      10.415   9.040   7.563  0.00  0.00    +0.019 C 
ATOM     11  C   UNL     1       8.409   7.238   6.366  0.00  0.00    +0.094 C 
ATOM     12  C   UNL     1       9.220   8.410   8.301  0.00  0.00    +0.085 C 
BRANCH   8  14
ATOM     14  C   UNL     1       9.884   4.772   7.547  0.00  0.00    +0.096 C 
BRANCH  14   3
ATOM      3  N   UNL     1      10.370   3.994   8.675  0.00  0.00    -0.329 NA
ATOM     26  H   UNL     1      11.388   4.031   8.698  0.00  0.00    +0.118 HD
ATOM     27  H   UNL     1      10.054   4.406   9.551  0.00  0.00    +0.118 HD
ENDBRANCH  14   3
ENDBRANCH   8  14
ENDBRANCH  13   7
BRANCH  16  18
ATOM     18  C   UNL     1      10.254   5.928   1.008  0.00  0.00    +0.002 A 
ATOM     19  C   UNL     1      10.009   6.296  -0.316  0.00  0.00    +0.012 A 
ATOM     20  C   UNL     1      10.975   4.767   1.286  0.00  0.00    +0.012 A 
ATOM     21  C   UNL     1      10.486   5.504  -1.360  0.00  0.00    +0.024 A 
ATOM     22  C   UNL     1      11.452   3.974   0.243  0.00  0.00    +0.024 A 
ATOM     23  C   UNL     1      11.207   4.342  -1.080  0.00  0.00    +0.029 A 
BRANCH  23   5
ATOM      5  N   UNL     1      11.689   3.541  -2.136  0.00  0.00    -0.336 N 
ATOM     24  C   UNL     1      10.931   2.392  -2.590  0.00  0.00    +0.129 C 
ATOM     25  C   UNL     1      12.944   3.861  -2.786  0.00  0.00    +0.129 C 
ENDBRANCH  23   5
ENDBRANCH  16  18
TORSDOF 5
ENDMDL
