MODEL 1
REMARK VINA RESULT:      -6.5      0.000      0.000
REMARK  Name = 51136663
REMARK  11 active torsions:
REMARK  status: ('A' for Active; 'I' for Inactive)
REMARK    1  A    between atoms: O_2  and  C_17
REMARK    2  A    between atoms: O_4  and  C_28
REMARK    3  A    between atoms: O_4  and  C_29
REMARK    4  A    between atoms: C_7  and  C_12
REMARK    5  A    between atoms: C_8  and  C_13
REMARK    6  A    between atoms: C_12  and  C_15
REMARK    7  A    between atoms: C_13  and  C_17
REMARK    8  A    between atoms: C_14  and  C_16
REMARK    9  A    between atoms: C_16  and  C_19
REMARK   10  A    between atoms: C_16  and  C_20
REMARK   11  A    between atoms: C_16  and  C_21
REMARK                            x       y       z     vdW  Elec       q    Type
REMARK                         _______ _______ _______ _____ _____    ______ ____
ROOT
ATOM      1  O   UNL     1      13.161   9.201   5.157  0.00  0.00    -0.275 OA
ATOM      5  N   UNL     1      13.513   7.388   3.745  0.00  0.00    -0.301 N 
ATOM      7  C   UNL     1      11.440   6.560   2.672  0.00  0.00    +0.016 C 
ATOM      8  C   UNL     1      12.281   5.698   1.697  0.00  0.00    +0.006 C 
ATOM      9  C   UNL     1      12.185   6.820   3.989  0.00  0.00    +0.112 C 
ATOM     10  C   UNL     1      13.670   6.337   1.518  0.00  0.00    +0.023 C 
ATOM     11  C   UNL     1      14.371   6.604   2.849  0.00  0.00    +0.108 C 
ATOM     14  C   UNL     1      13.897   8.555   4.406  0.00  0.00    +0.221 C 
ENDROOT
BRANCH  14  16
ATOM     16  C   UNL     1      15.307   9.036   4.167  0.00  0.00    +0.039 C 
ATOM     19  C   UNL     1      15.548  10.250   5.065  0.00  0.00    +0.020 C 
ATOM     20  C   UNL     1      15.452   9.424   2.695  0.00  0.00    +0.020 C 
ATOM     21  C   UNL     1      16.279   7.909   4.518  0.00  0.00    +0.020 C 
ENDBRANCH  14  16
BRANCH   7  12
ATOM     12  C   UNL     1      10.055   5.977   2.943  0.00  0.00    +0.061 C 
BRANCH  12  15
ATOM      6  N   UNL     1       8.899   7.785   4.022  0.00  0.00    -0.287 NA
ATOM     15  C   UNL     1       9.455   6.627   4.167  0.00  0.00    +0.044 C 
ATOM     18  C   UNL     1       9.539   5.916   5.468  0.00  0.00    -0.001 A 
ATOM     22  C   UNL     1       9.336   6.685   6.622  0.00  0.00    -0.033 A 
ATOM     23  C   UNL     1       9.066   8.153   6.470  0.00  0.00    +0.059 C 
ATOM     24  C   UNL     1       8.263   8.389   5.199  0.00  0.00    +0.146 C 
ATOM     25  C   UNL     1       9.819   4.553   5.566  0.00  0.00    +0.013 A 
ATOM     26  C   UNL     1       9.441   6.084   7.878  0.00  0.00    +0.050 A 
ATOM     27  C   UNL     1       9.907   3.958   6.826  0.00  0.00    +0.046 A 
ATOM     28  C   UNL     1       9.722   4.721   7.978  0.00  0.00    +0.120 A 
BRANCH  28   4
ATOM      4  O   UNL     1       9.817   4.134   9.204  0.00  0.00    -0.495 OA
ATOM     29  C   UNL     1       8.983   4.655  10.238  0.00  0.00    +0.277 C 
ENDBRANCH  28   4
ENDBRANCH  12  15
ENDBRANCH   7  12
BRANCH   8  13
ATOM     13  C   UNL     1      12.404   4.227   2.112  0.00  0.00    +0.124 C 
BRANCH  13  17
ATOM      3  O   UNL     1      13.211   3.225   0.042  0.00  0.00    -0.251 OA
ATOM     17  C   UNL     1      13.362   3.480   1.227  0.00  0.00    +0.305 C 
BRANCH  17   2
ATOM      2  O   UNL     1      14.456   3.113   1.944  0.00  0.00    -0.481 OA
ATOM     30  H   UNL     1      14.245   2.419   2.605  0.00  0.00    +0.295 HD
ENDBRANCH  17   2
ENDBRANCH  13  17
ENDBRANCH   8  13
TORSDOF 7
ENDMDL
MODEL 2
REMARK VINA RESULT:      -6.4     23.437     28.084
REMARK  Name = 51136663
REMARK  11 active torsions:
REMARK  status: ('A' for Active; 'I' for Inactive)
REMARK    1  A    between atoms: O_2  and  C_17
REMARK    2  A    between atoms: O_4  and  C_28
REMARK    3  A    between atoms: O_4  and  C_29
REMARK    4  A    between atoms: C_7  and  C_12
REMARK    5  A    between atoms: C_8  and  C_13
REMARK    6  A    between atoms: C_12  and  C_15
REMARK    7  A    between atoms: C_13  and  C_17
REMARK    8  A    between atoms: C_14  and  C_16
REMARK    9  A    between atoms: C_16  and  C_19
REMARK   10  A    between atoms: C_16  and  C_20
REMARK   11  A    between atoms: C_16  and  C_21
REMARK                            x       y       z     vdW  Elec       q    Type
REMARK                         _______ _______ _______ _____ _____    ______ ____
ROOT
ATOM      1  O   UNL     1     -10.111 -10.954  15.476  0.00  0.00    -0.275 OA
ATOM      5  N   UNL     1      -8.410 -10.919  17.060  0.00  0.00    -0.301 N 
ATOM      7  C   UNL     1      -6.206 -11.591  16.152  0.00  0.00    +0.016 C 
ATOM      8  C   UNL     1      -5.511 -11.074  17.436  0.00  0.00    +0.006 C 
ATOM      9  C   UNL     1      -7.661 -12.003  16.418  0.00  0.00    +0.112 C 
ATOM     10  C   UNL     1      -6.371  -9.966  18.071  0.00  0.00    +0.023 C 
ATOM     11  C   UNL     1      -7.818 -10.401  18.299  0.00  0.00    +0.108 C 
ATOM     14  C   UNL     1      -9.629 -10.507  16.520  0.00  0.00    +0.221 C 
ENDROOT
BRANCH  14  16
ATOM     16  C   UNL     1     -10.381  -9.442  17.279  0.00  0.00    +0.039 C 
ATOM     19  C   UNL     1      -9.551  -8.160  17.237  0.00  0.00    +0.020 C 
ATOM     20  C   UNL     1     -10.571  -9.909  18.724  0.00  0.00    +0.020 C 
ATOM     21  C   UNL     1     -11.738  -9.224  16.609  0.00  0.00    +0.020 C 
ENDBRANCH  14  16
BRANCH   7  12
ATOM     12  C   UNL     1      -5.442 -12.727  15.474  0.00  0.00    +0.061 C 
BRANCH  12  15
ATOM      6  N   UNL     1      -3.113 -12.199  15.220  0.00  0.00    -0.287 NA
ATOM     15  C   UNL     1      -4.287 -12.166  14.680  0.00  0.00    +0.044 C 
ATOM     18  C   UNL     1      -4.552 -11.602  13.332  0.00  0.00    -0.001 A 
ATOM     22  C   UNL     1      -3.570 -10.759  12.796  0.00  0.00    -0.033 A 
ATOM     23  C   UNL     1      -2.342 -10.475  13.611  0.00  0.00    +0.059 C 
ATOM     24  C   UNL     1      -1.981 -11.710  14.424  0.00  0.00    +0.146 C 
ATOM     25  C   UNL     1      -5.721 -11.870  12.619  0.00  0.00    +0.013 A 
ATOM     26  C   UNL     1      -3.777 -10.164  11.549  0.00  0.00    +0.050 A 
ATOM     27  C   UNL     1      -5.912 -11.283  11.367  0.00  0.00    +0.046 A 
ATOM     28  C   UNL     1      -4.945 -10.430  10.835  0.00  0.00    +0.120 A 
BRANCH  28   4
ATOM      4  O   UNL     1      -5.143  -9.855   9.616  0.00  0.00    -0.495 OA
ATOM     29  C   UNL     1      -4.202  -8.864   9.207  0.00  0.00    +0.277 C 
ENDBRANCH  28   4
ENDBRANCH  12  15
ENDBRANCH   7  12
BRANCH   8  13
ATOM     13  C   UNL     1      -5.191 -12.172  18.458  0.00  0.00    +0.124 C 
BRANCH  13  17
ATOM      3  O   UNL     1      -3.395 -12.338  20.097  0.00  0.00    -0.251 OA
ATOM     17  C   UNL     1      -3.784 -12.056  18.974  0.00  0.00    +0.305 C 
BRANCH  17   2
ATOM      2  O   UNL     1      -2.974 -11.580  17.993  0.00  0.00    -0.481 OA
ATOM     30  H   UNL     1      -2.156 -11.179  18.356  0.00  0.00    +0.295 HD
ENDBRANCH  17   2
ENDBRANCH  13  17
ENDBRANCH   8  13
TORSDOF 7
ENDMDL
MODEL 3
REMARK VINA RESULT:      -6.3     24.438     28.839
REMARK  Name = 51136663
REMARK  11 active torsions:
REMARK  status: ('A' for Active; 'I' for Inactive)
REMARK    1  A    between atoms: O_2  and  C_17
REMARK    2  A    between atoms: O_4  and  C_28
REMARK    3  A    between atoms: O_4  and  C_29
REMARK    4  A    between atoms: C_7  and  C_12
REMARK    5  A    between atoms: C_8  and  C_13
REMARK    6  A    between atoms: C_12  and  C_15
REMARK    7  A    between atoms: C_13  and  C_17
REMARK    8  A    between atoms: C_14  and  C_16
REMARK    9  A    between atoms: C_16  and  C_19
REMARK   10  A    between atoms: C_16  and  C_20
REMARK   11  A    between atoms: C_16  and  C_21
REMARK                            x       y       z     vdW  Elec       q    Type
REMARK                         _______ _______ _______ _____ _____    ______ ____
ROOT
ATOM      1  O   UNL     1     -11.746  -8.366  13.085  0.00  0.00    -0.275 OA
ATOM      5  N   UNL     1     -11.376  -8.714  15.354  0.00  0.00    -0.301 N 
ATOM      7  C   UNL     1      -9.150  -9.681  15.849  0.00  0.00    +0.016 C 
ATOM      8  C   UNL     1      -9.342  -9.370  17.354  0.00  0.00    +0.006 C 
ATOM      9  C   UNL     1     -10.494  -9.863  15.129  0.00  0.00    +0.112 C 
ATOM     10  C   UNL     1     -10.305  -8.179  17.511  0.00  0.00    +0.023 C 
ATOM     11  C   UNL     1     -11.621  -8.383  16.762  0.00  0.00    +0.108 C 
ATOM     14  C   UNL     1     -11.965  -8.072  14.264  0.00  0.00    +0.221 C 
ENDROOT
BRANCH  14  16
ATOM     16  C   UNL     1     -12.924  -6.950  14.576  0.00  0.00    +0.039 C 
ATOM     19  C   UNL     1     -13.553  -6.490  13.261  0.00  0.00    +0.020 C 
ATOM     20  C   UNL     1     -12.146  -5.804  15.225  0.00  0.00    +0.020 C 
ATOM     21  C   UNL     1     -13.999  -7.470  15.531  0.00  0.00    +0.020 C 
ENDBRANCH  14  16
BRANCH   7  12
ATOM     12  C   UNL     1      -8.239 -10.881  15.598  0.00  0.00    +0.061 C 
BRANCH  12  15
ATOM      6  N   UNL     1      -7.351 -10.081  13.514  0.00  0.00    -0.287 NA
ATOM     15  C   UNL     1      -7.083 -10.472  14.717  0.00  0.00    +0.044 C 
ATOM     18  C   UNL     1      -5.705 -10.543  15.266  0.00  0.00    -0.001 A 
ATOM     22  C   UNL     1      -4.655 -10.538  14.339  0.00  0.00    -0.033 A 
ATOM     23  C   UNL     1      -4.986 -10.475  12.876  0.00  0.00    +0.059 C 
ATOM     24  C   UNL     1      -6.234  -9.626  12.679  0.00  0.00    +0.146 C 
ATOM     25  C   UNL     1      -5.441 -10.627  16.634  0.00  0.00    +0.013 A 
ATOM     26  C   UNL     1      -3.336 -10.643  14.789  0.00  0.00    +0.050 A 
ATOM     27  C   UNL     1      -4.119 -10.717  17.074  0.00  0.00    +0.046 A 
ATOM     28  C   UNL     1      -3.071 -10.728  16.155  0.00  0.00    +0.120 A 
BRANCH  28   4
ATOM      4  O   UNL     1      -1.784 -10.823  16.593  0.00  0.00    -0.495 OA
ATOM     29  C   UNL     1      -0.775 -10.238  15.772  0.00  0.00    +0.277 C 
ENDBRANCH  28   4
ENDBRANCH  12  15
ENDBRANCH   7  12
BRANCH   8  13
ATOM     13  C   UNL     1      -9.816 -10.569  18.184  0.00  0.00    +0.124 C 
BRANCH  13  17
ATOM      3  O   UNL     1      -7.912 -11.028  19.636  0.00  0.00    -0.251 OA
ATOM     17  C   UNL     1      -9.071 -10.672  19.486  0.00  0.00    +0.305 C 
BRANCH  17   2
ATOM      2  O   UNL     1      -9.885 -10.302  20.509  0.00  0.00    -0.481 OA
ATOM     30  H   UNL     1     -10.760  -9.996  20.188  0.00  0.00    +0.295 HD
ENDBRANCH  17   2
ENDBRANCH  13  17
ENDBRANCH   8  13
TORSDOF 7
ENDMDL
MODEL 4
REMARK VINA RESULT:      -6.3     23.597     27.357
REMARK  Name = 51136663
REMARK  11 active torsions:
REMARK  status: ('A' for Active; 'I' for Inactive)
REMARK    1  A    between atoms: O_2  and  C_17
REMARK    2  A    between atoms: O_4  and  C_28
REMARK    3  A    between atoms: O_4  and  C_29
REMARK    4  A    between atoms: C_7  and  C_12
REMARK    5  A    between atoms: C_8  and  C_13
REMARK    6  A    between atoms: C_12  and  C_15
REMARK    7  A    between atoms: C_13  and  C_17
REMARK    8  A    between atoms: C_14  and  C_16
REMARK    9  A    between atoms: C_16  and  C_19
REMARK   10  A    between atoms: C_16  and  C_20
REMARK   11  A    between atoms: C_16  and  C_21
REMARK                            x       y       z     vdW  Elec       q    Type
REMARK                         _______ _______ _______ _____ _____    ______ ____
ROOT
ATOM      1  O   UNL     1      -5.359  -9.761  11.891  0.00  0.00    -0.275 OA
ATOM      5  N   UNL     1      -4.257 -10.524  13.790  0.00  0.00    -0.301 N 
ATOM      7  C   UNL     1      -5.789 -11.357  15.548  0.00  0.00    +0.016 C 
ATOM      8  C   UNL     1      -4.592 -11.985  16.304  0.00  0.00    +0.006 C 
ATOM      9  C   UNL     1      -5.356 -10.161  14.688  0.00  0.00    +0.112 C 
ATOM     10  C   UNL     1      -3.467 -12.305  15.304  0.00  0.00    +0.023 C 
ATOM     11  C   UNL     1      -3.079 -11.100  14.448  0.00  0.00    +0.108 C 
ATOM     14  C   UNL     1      -4.359 -10.247  12.426  0.00  0.00    +0.221 C 
ENDROOT
BRANCH  14  16
ATOM     16  C   UNL     1      -3.157 -10.575  11.576  0.00  0.00    +0.039 C 
ATOM     19  C   UNL     1      -1.908 -10.126  12.336  0.00  0.00    +0.020 C 
ATOM     20  C   UNL     1      -3.272  -9.825  10.248  0.00  0.00    +0.020 C 
ATOM     21  C   UNL     1      -3.121 -12.084  11.333  0.00  0.00    +0.020 C 
ENDBRANCH  14  16
BRANCH   7  12
ATOM     12  C   UNL     1      -6.942 -10.966  16.472  0.00  0.00    +0.061 C 
BRANCH  12  15
ATOM      6  N   UNL     1      -8.486 -11.679  14.776  0.00  0.00    -0.287 NA
ATOM     15  C   UNL     1      -8.205 -10.784  15.667  0.00  0.00    +0.044 C 
ATOM     18  C   UNL     1      -9.055  -9.594  15.927  0.00  0.00    -0.001 A 
ATOM     22  C   UNL     1      -9.981  -9.249  14.934  0.00  0.00    -0.033 A 
ATOM     23  C   UNL     1     -10.043 -10.083  13.687  0.00  0.00    +0.059 C 
ATOM     24  C   UNL     1      -9.745 -11.534  14.037  0.00  0.00    +0.146 C 
ATOM     25  C   UNL     1      -8.946  -8.829  17.089  0.00  0.00    +0.013 A 
ATOM     26  C   UNL     1     -10.782  -8.117  15.100  0.00  0.00    +0.050 A 
ATOM     27  C   UNL     1      -9.762  -7.708  17.253  0.00  0.00    +0.046 A 
ATOM     28  C   UNL     1     -10.674  -7.351  16.261  0.00  0.00    +0.120 A 
BRANCH  28   4
ATOM      4  O   UNL     1     -11.461  -6.252  16.425  0.00  0.00    -0.495 OA
ATOM     29  C   UNL     1     -12.515  -6.063  15.483  0.00  0.00    +0.277 C 
ENDBRANCH  28   4
ENDBRANCH  12  15
ENDBRANCH   7  12
BRANCH   8  13
ATOM     13  C   UNL     1      -4.066 -11.128  17.463  0.00  0.00    +0.124 C 
BRANCH  13  17
ATOM      3  O   UNL     1      -5.198 -12.217  19.326  0.00  0.00    -0.251 OA
ATOM     17  C   UNL     1      -4.170 -11.848  18.778  0.00  0.00    +0.305 C 
BRANCH  17   2
ATOM      2  O   UNL     1      -2.929 -12.043  19.293  0.00  0.00    -0.481 OA
ATOM     30  H   UNL     1      -2.230 -11.664  18.717  0.00  0.00    +0.295 HD
ENDBRANCH  17   2
ENDBRANCH  13  17
ENDBRANCH   8  13
TORSDOF 7
ENDMDL
MODEL 5
REMARK VINA RESULT:      -6.3      3.056      6.470
REMARK  Name = 51136663
REMARK  11 active torsions:
REMARK  status: ('A' for Active; 'I' for Inactive)
REMARK    1  A    between atoms: O_2  and  C_17
REMARK    2  A    between atoms: O_4  and  C_28
REMARK    3  A    between atoms: O_4  and  C_29
REMARK    4  A    between atoms: C_7  and  C_12
REMARK    5  A    between atoms: C_8  and  C_13
REMARK    6  A    between atoms: C_12  and  C_15
REMARK    7  A    between atoms: C_13  and  C_17
REMARK    8  A    between atoms: C_14  and  C_16
REMARK    9  A    between atoms: C_16  and  C_19
REMARK   10  A    between atoms: C_16  and  C_20
REMARK   11  A    between atoms: C_16  and  C_21
REMARK                            x       y       z     vdW  Elec       q    Type
REMARK                         _______ _______ _______ _____ _____    ______ ____
ROOT
ATOM      1  O   UNL     1       8.651  11.452   5.923  0.00  0.00    -0.275 OA
ATOM      5  N   UNL     1       9.201   9.448   6.964  0.00  0.00    -0.301 N 
ATOM      7  C   UNL     1       9.459   7.557   5.386  0.00  0.00    +0.016 C 
ATOM      8  C   UNL     1      10.104   6.702   6.504  0.00  0.00    +0.006 C 
ATOM      9  C   UNL     1       8.520   8.629   5.958  0.00  0.00    +0.112 C 
ATOM     10  C   UNL     1      10.767   7.629   7.538  0.00  0.00    +0.023 C 
ATOM     11  C   UNL     1       9.813   8.698   8.068  0.00  0.00    +0.108 C 
ATOM     14  C   UNL     1       9.171  10.839   6.859  0.00  0.00    +0.221 C 
ENDROOT
BRANCH  14  16
ATOM     16  C   UNL     1       9.824  11.617   7.974  0.00  0.00    +0.039 C 
ATOM     19  C   UNL     1      11.335  11.413   7.866  0.00  0.00    +0.020 C 
ATOM     20  C   UNL     1       9.308  11.087   9.313  0.00  0.00    +0.020 C 
ATOM     21  C   UNL     1       9.471  13.097   7.816  0.00  0.00    +0.020 C 
ENDBRANCH  14  16
BRANCH   7  12
ATOM     12  C   UNL     1       8.738   6.719   4.331  0.00  0.00    +0.061 C 
BRANCH  12  15
ATOM      6  N   UNL     1       9.043   8.075   2.373  0.00  0.00    -0.287 NA
ATOM     15  C   UNL     1       9.344   6.970   2.972  0.00  0.00    +0.044 C 
ATOM     18  C   UNL     1      10.244   5.942   2.389  0.00  0.00    -0.001 A 
ATOM     22  C   UNL     1      10.473   6.012   1.009  0.00  0.00    -0.033 A 
ATOM     23  C   UNL     1       9.794   7.095   0.221  0.00  0.00    +0.059 C 
ATOM     24  C   UNL     1       9.681   8.347   1.080  0.00  0.00    +0.146 C 
ATOM     25  C   UNL     1      10.834   4.935   3.154  0.00  0.00    +0.013 A 
ATOM     26  C   UNL     1      11.278   5.051   0.393  0.00  0.00    +0.050 A 
ATOM     27  C   UNL     1      11.649   3.987   2.531  0.00  0.00    +0.046 A 
ATOM     28  C   UNL     1      11.868   4.043   1.155  0.00  0.00    +0.120 A 
BRANCH  28   4
ATOM      4  O   UNL     1      12.658   3.111   0.554  0.00  0.00    -0.495 OA
ATOM     29  C   UNL     1      12.806   3.202  -0.861  0.00  0.00    +0.277 C 
ENDBRANCH  28   4
ENDBRANCH  12  15
ENDBRANCH   7  12
BRANCH   8  13
ATOM     13  C   UNL     1       9.134   5.728   7.184  0.00  0.00    +0.124 C 
BRANCH  13  17
ATOM      3  O   UNL     1      10.156   4.727   9.157  0.00  0.00    -0.251 OA
ATOM     17  C   UNL     1       9.864   4.676   7.971  0.00  0.00    +0.305 C 
BRANCH  17   2
ATOM      2  O   UNL     1      10.166   3.627   7.164  0.00  0.00    -0.481 OA
ATOM     30  H   UNL     1      10.287   2.797   7.673  0.00  0.00    +0.295 HD
ENDBRANCH  17   2
ENDBRANCH  13  17
ENDBRANCH   8  13
TORSDOF 7
ENDMDL
MODEL 6
REMARK VINA RESULT:      -6.1     24.828     28.147
REMARK  Name = 51136663
REMARK  11 active torsions:
REMARK  status: ('A' for Active; 'I' for Inactive)
REMARK    1  A    between atoms: O_2  and  C_17
REMARK    2  A    between atoms: O_4  and  C_28
REMARK    3  A    between atoms: O_4  and  C_29
REMARK    4  A    between atoms: C_7  and  C_12
REMARK    5  A    between atoms: C_8  and  C_13
REMARK    6  A    between atoms: C_12  and  C_15
REMARK    7  A    between atoms: C_13  and  C_17
REMARK    8  A    between atoms: C_14  and  C_16
REMARK    9  A    between atoms: C_16  and  C_19
REMARK   10  A    between atoms: C_16  and  C_20
REMARK   11  A    between atoms: C_16  and  C_21
REMARK                            x       y       z     vdW  Elec       q    Type
REMARK                         _______ _______ _______ _____ _____    ______ ____
ROOT
ATOM      1  O   UNL     1      -4.346 -10.218  13.014  0.00  0.00    -0.275 OA
ATOM      5  N   UNL     1      -4.510 -10.882  15.236  0.00  0.00    -0.301 N 
ATOM      7  C   UNL     1      -6.758 -10.518  16.208  0.00  0.00    +0.016 C 
ATOM      8  C   UNL     1      -6.378 -11.388  17.432  0.00  0.00    +0.006 C 
ATOM      9  C   UNL     1      -5.524  -9.875  15.560  0.00  0.00    +0.112 C 
ATOM     10  C   UNL     1      -5.287 -12.395  17.024  0.00  0.00    +0.023 C 
ATOM     11  C   UNL     1      -4.085 -11.724  16.361  0.00  0.00    +0.108 C 
ATOM     14  C   UNL     1      -3.976 -10.935  13.948  0.00  0.00    +0.221 C 
ENDROOT
BRANCH  14  16
ATOM     16  C   UNL     1      -2.880 -11.943  13.709  0.00  0.00    +0.039 C 
ATOM     19  C   UNL     1      -3.481 -13.339  13.881  0.00  0.00    +0.020 C 
ATOM     20  C   UNL     1      -1.766 -11.712  14.732  0.00  0.00    +0.020 C 
ATOM     21  C   UNL     1      -2.343 -11.763  12.289  0.00  0.00    +0.020 C 
ENDBRANCH  14  16
BRANCH   7  12
ATOM     12  C   UNL     1      -7.809  -9.458  16.532  0.00  0.00    +0.061 C 
BRANCH  12  15
ATOM      6  N   UNL     1      -9.157 -10.792  15.058  0.00  0.00    -0.287 NA
ATOM     15  C   UNL     1      -9.022  -9.653  15.654  0.00  0.00    +0.044 C 
ATOM     18  C   UNL     1      -9.989  -8.534  15.512  0.00  0.00    -0.001 A 
ATOM     22  C   UNL     1     -10.867  -8.593  14.422  0.00  0.00    -0.033 A 
ATOM     23  C   UNL     1     -10.765  -9.755  13.477  0.00  0.00    +0.059 C 
ATOM     24  C   UNL     1     -10.367 -11.002  14.254  0.00  0.00    +0.146 C 
ATOM     25  C   UNL     1     -10.034  -7.458  16.399  0.00  0.00    +0.013 A 
ATOM     26  C   UNL     1     -11.775  -7.553  14.210  0.00  0.00    +0.050 A 
ATOM     27  C   UNL     1     -10.955  -6.430  16.188  0.00  0.00    +0.046 A 
ATOM     28  C   UNL     1     -11.820  -6.476  15.095  0.00  0.00    +0.120 A 
BRANCH  28   4
ATOM      4  O   UNL     1     -12.711  -5.465  14.891  0.00  0.00    -0.495 OA
ATOM     29  C   UNL     1     -13.025  -5.142  13.538  0.00  0.00    +0.277 C 
ENDBRANCH  28   4
ENDBRANCH  12  15
ENDBRANCH   7  12
BRANCH   8  13
ATOM     13  C   UNL     1      -5.945 -10.581  18.662  0.00  0.00    +0.124 C 
BRANCH  13  17
ATOM      3  O   UNL     1      -7.916 -11.068  20.010  0.00  0.00    -0.251 OA
ATOM     17  C   UNL     1      -6.702 -10.996  19.892  0.00  0.00    +0.305 C 
BRANCH  17   2
ATOM      2  O   UNL     1      -5.829 -11.291  20.890  0.00  0.00    -0.481 OA
ATOM     30  H   UNL     1      -6.235 -11.867  21.573  0.00  0.00    +0.295 HD
ENDBRANCH  17   2
ENDBRANCH  13  17
ENDBRANCH   8  13
TORSDOF 7
ENDMDL
MODEL 7
REMARK VINA RESULT:      -6.1      3.119      5.789
REMARK  Name = 51136663
REMARK  11 active torsions:
REMARK  status: ('A' for Active; 'I' for Inactive)
REMARK    1  A    between atoms: O_2  and  C_17
REMARK    2  A    between atoms: O_4  and  C_28
REMARK    3  A    between atoms: O_4  and  C_29
REMARK    4  A    between atoms: C_7  and  C_12
REMARK    5  A    between atoms: C_8  and  C_13
REMARK    6  A    between atoms: C_12  and  C_15
REMARK    7  A    between atoms: C_13  and  C_17
REMARK    8  A    between atoms: C_14  and  C_16
REMARK    9  A    between atoms: C_16  and  C_19
REMARK   10  A    between atoms: C_16  and  C_20
REMARK   11  A    between atoms: C_16  and  C_21
REMARK                            x       y       z     vdW  Elec       q    Type
REMARK                         _______ _______ _______ _____ _____    ______ ____
ROOT
ATOM      1  O   UNL     1       9.591   7.510   1.538  0.00  0.00    -0.275 OA
ATOM      5  N   UNL     1      10.181   6.275   3.417  0.00  0.00    -0.301 N 
ATOM      7  C   UNL     1       8.549   6.465   5.270  0.00  0.00    +0.016 C 
ATOM      8  C   UNL     1       9.227   5.279   5.999  0.00  0.00    +0.006 C 
ATOM      9  C   UNL     1       9.529   7.202   4.346  0.00  0.00    +0.112 C 
ATOM     10  C   UNL     1       9.918   4.372   4.965  0.00  0.00    +0.023 C 
ATOM     11  C   UNL     1      10.866   5.141   4.047  0.00  0.00    +0.108 C 
ATOM     14  C   UNL     1      10.174   6.550   2.049  0.00  0.00    +0.221 C 
ENDROOT
BRANCH  14  16
ATOM     16  C   UNL     1      10.933   5.594   1.163  0.00  0.00    +0.039 C 
ATOM     19  C   UNL     1      10.864   6.126  -0.269  0.00  0.00    +0.020 C 
ATOM     20  C   UNL     1      10.280   4.214   1.252  0.00  0.00    +0.020 C 
ATOM     21  C   UNL     1      12.385   5.526   1.639  0.00  0.00    +0.020 C 
ENDBRANCH  14  16
BRANCH   7  12
ATOM     12  C   UNL     1       7.870   7.446   6.225  0.00  0.00    +0.061 C 
BRANCH  12  15
ATOM      6  N   UNL     1       7.545   9.335   4.778  0.00  0.00    -0.287 NA
ATOM     15  C   UNL     1       8.173   8.864   5.805  0.00  0.00    +0.044 C 
ATOM     18  C   UNL     1       9.174   9.642   6.580  0.00  0.00    -0.001 A 
ATOM     22  C   UNL     1       9.711  10.776   5.958  0.00  0.00    -0.033 A 
ATOM     23  C   UNL     1       9.258  11.118   4.569  0.00  0.00    +0.059 C 
ATOM     24  C   UNL     1       7.794  10.733   4.407  0.00  0.00    +0.146 C 
ATOM     25  C   UNL     1       9.587   9.274   7.861  0.00  0.00    +0.013 A 
ATOM     26  C   UNL     1      10.685  11.528   6.618  0.00  0.00    +0.050 A 
ATOM     27  C   UNL     1      10.551  10.041   8.518  0.00  0.00    +0.046 A 
ATOM     28  C   UNL     1      11.101  11.162   7.898  0.00  0.00    +0.120 A 
BRANCH  28   4
ATOM      4  O   UNL     1      12.047  11.900   8.543  0.00  0.00    -0.495 OA
ATOM     29  C   UNL     1      12.013  11.893   9.969  0.00  0.00    +0.277 C 
ENDBRANCH  28   4
ENDBRANCH  12  15
ENDBRANCH   7  12
BRANCH   8  13
ATOM     13  C   UNL     1      10.209   5.702   7.099  0.00  0.00    +0.124 C 
BRANCH  13  17
ATOM      3  O   UNL     1       9.198   5.498   9.308  0.00  0.00    -0.251 OA
ATOM     17  C   UNL     1       9.890   5.040   8.411  0.00  0.00    +0.305 C 
BRANCH  17   2
ATOM      2  O   UNL     1      10.493   3.825   8.469  0.00  0.00    -0.481 OA
ATOM     30  H   UNL     1      10.101   3.191   7.831  0.00  0.00    +0.295 HD
ENDBRANCH  17   2
ENDBRANCH  13  17
ENDBRANCH   8  13
TORSDOF 7
ENDMDL
MODEL 8
REMARK VINA RESULT:      -6.1     25.229     29.742
REMARK  Name = 51136663
REMARK  11 active torsions:
REMARK  status: ('A' for Active; 'I' for Inactive)
REMARK    1  A    between atoms: O_2  and  C_17
REMARK    2  A    between atoms: O_4  and  C_28
REMARK    3  A    between atoms: O_4  and  C_29
REMARK    4  A    between atoms: C_7  and  C_12
REMARK    5  A    between atoms: C_8  and  C_13
REMARK    6  A    between atoms: C_12  and  C_15
REMARK    7  A    between atoms: C_13  and  C_17
REMARK    8  A    between atoms: C_14  and  C_16
REMARK    9  A    between atoms: C_16  and  C_19
REMARK   10  A    between atoms: C_16  and  C_20
REMARK   11  A    between atoms: C_16  and  C_21
REMARK                            x       y       z     vdW  Elec       q    Type
REMARK                         _______ _______ _______ _____ _____    ______ ____
ROOT
ATOM      1  O   UNL     1     -11.273  -8.735  13.080  0.00  0.00    -0.275 OA
ATOM      5  N   UNL     1     -11.530  -8.815  15.389  0.00  0.00    -0.301 N 
ATOM      7  C   UNL     1      -9.791 -10.164  16.525  0.00  0.00    +0.016 C 
ATOM      8  C   UNL     1     -10.238  -9.598  17.896  0.00  0.00    +0.006 C 
ATOM      9  C   UNL     1     -10.936 -10.150  15.502  0.00  0.00    +0.112 C 
ATOM     10  C   UNL     1     -10.881  -8.214  17.693  0.00  0.00    +0.023 C 
ATOM     11  C   UNL     1     -11.999  -8.232  16.651  0.00  0.00    +0.108 C 
ATOM     14  C   UNL     1     -11.675  -8.228  14.131  0.00  0.00    +0.221 C 
ENDROOT
BRANCH  14  16
ATOM     16  C   UNL     1     -12.367  -6.889  14.084  0.00  0.00    +0.039 C 
ATOM     19  C   UNL     1     -11.521  -5.895  14.881  0.00  0.00    +0.020 C 
ATOM     20  C   UNL     1     -13.756  -7.030  14.709  0.00  0.00    +0.020 C 
ATOM     21  C   UNL     1     -12.483  -6.444  12.626  0.00  0.00    +0.020 C 
ENDBRANCH  14  16
BRANCH   7  12
ATOM     12  C   UNL     1      -9.177 -11.559  16.625  0.00  0.00    +0.061 C 
BRANCH  12  15
ATOM      6  N   UNL     1      -8.008 -11.655  18.721  0.00  0.00    -0.287 NA
ATOM     15  C   UNL     1      -7.908 -11.504  17.441  0.00  0.00    +0.044 C 
ATOM     18  C   UNL     1      -6.618 -11.273  16.743  0.00  0.00    -0.001 A 
ATOM     22  C   UNL     1      -5.541 -10.846  17.530  0.00  0.00    -0.033 A 
ATOM     23  C   UNL     1      -5.761 -10.640  19.000  0.00  0.00    +0.059 C 
ATOM     24  C   UNL     1      -6.769 -11.663  19.507  0.00  0.00    +0.146 C 
ATOM     25  C   UNL     1      -6.462 -11.451  15.367  0.00  0.00    +0.013 A 
ATOM     26  C   UNL     1      -4.310 -10.573  16.928  0.00  0.00    +0.050 A 
ATOM     27  C   UNL     1      -5.224 -11.190  14.776  0.00  0.00    +0.046 A 
ATOM     28  C   UNL     1      -4.153 -10.750  15.553  0.00  0.00    +0.120 A 
BRANCH  28   4
ATOM      4  O   UNL     1      -2.951 -10.490  14.967  0.00  0.00    -0.495 OA
ATOM     29  C   UNL     1      -1.800 -10.523  15.809  0.00  0.00    +0.277 C 
ENDBRANCH  28   4
ENDBRANCH  12  15
ENDBRANCH   7  12
BRANCH   8  13
ATOM     13  C   UNL     1     -11.173 -10.527  18.680  0.00  0.00    +0.124 C 
BRANCH  13  17
ATOM      3  O   UNL     1     -12.219  -9.821  20.765  0.00  0.00    -0.251 OA
ATOM     17  C   UNL     1     -11.227 -10.158  20.136  0.00  0.00    +0.305 C 
BRANCH  17   2
ATOM      2  O   UNL     1      -9.986 -10.255  20.680  0.00  0.00    -0.481 OA
ATOM     30  H   UNL     1      -9.503  -9.402  20.641  0.00  0.00    +0.295 HD
ENDBRANCH  17   2
ENDBRANCH  13  17
ENDBRANCH   8  13
TORSDOF 7
ENDMDL
MODEL 9
REMARK VINA RESULT:      -6.1      3.148      5.554
REMARK  Name = 51136663
REMARK  11 active torsions:
REMARK  status: ('A' for Active; 'I' for Inactive)
REMARK    1  A    between atoms: O_2  and  C_17
REMARK    2  A    between atoms: O_4  and  C_28
REMARK    3  A    between atoms: O_4  and  C_29
REMARK    4  A    between atoms: C_7  and  C_12
REMARK    5  A    between atoms: C_8  and  C_13
REMARK    6  A    between atoms: C_12  and  C_15
REMARK    7  A    between atoms: C_13  and  C_17
REMARK    8  A    between atoms: C_14  and  C_16
REMARK    9  A    between atoms: C_16  and  C_19
REMARK   10  A    between atoms: C_16  and  C_20
REMARK   11  A    between atoms: C_16  and  C_21
REMARK                            x       y       z     vdW  Elec       q    Type
REMARK                         _______ _______ _______ _____ _____    ______ ____
ROOT
ATOM      1  O   UNL     1       9.946   5.486  -2.802  0.00  0.00    -0.275 OA
ATOM      5  N   UNL     1      11.792   4.654  -1.660  0.00  0.00    -0.301 N 
ATOM      7  C   UNL     1      11.949   5.463   0.676  0.00  0.00    +0.016 C 
ATOM      8  C   UNL     1      13.036   4.403   0.978  0.00  0.00    +0.006 C 
ATOM      9  C   UNL     1      11.920   5.843  -0.811  0.00  0.00    +0.112 C 
ATOM     10  C   UNL     1      12.859   3.205   0.028  0.00  0.00    +0.023 C 
ATOM     11  C   UNL     1      12.810   3.620  -1.441  0.00  0.00    +0.108 C 
ATOM     14  C   UNL     1      10.794   4.605  -2.634  0.00  0.00    +0.221 C 
ENDROOT
BRANCH  14  16
ATOM     16  C   UNL     1      10.774   3.386  -3.522  0.00  0.00    +0.039 C 
ATOM     19  C   UNL     1       9.549   3.487  -4.431  0.00  0.00    +0.020 C 
ATOM     20  C   UNL     1      10.686   2.138  -2.643  0.00  0.00    +0.020 C 
ATOM     21  C   UNL     1      12.057   3.360  -4.354  0.00  0.00    +0.020 C 
ENDBRANCH  14  16
BRANCH   7  12
ATOM     12  C   UNL     1      12.073   6.713   1.547  0.00  0.00    +0.061 C 
BRANCH  12  15
ATOM      6  N   UNL     1       9.979   7.866   1.309  0.00  0.00    -0.287 NA
ATOM     15  C   UNL     1      10.712   7.115   2.064  0.00  0.00    +0.044 C 
ATOM     18  C   UNL     1      10.288   6.639   3.406  0.00  0.00    -0.001 A 
ATOM     22  C   UNL     1       9.226   7.323   4.011  0.00  0.00    -0.033 A 
ATOM     23  C   UNL     1       8.607   8.480   3.283  0.00  0.00    +0.059 C 
ATOM     24  C   UNL     1       8.633   8.206   1.786  0.00  0.00    +0.146 C 
ATOM     25  C   UNL     1      10.909   5.575   4.060  0.00  0.00    +0.013 A 
ATOM     26  C   UNL     1       8.805   6.951   5.290  0.00  0.00    +0.050 A 
ATOM     27  C   UNL     1      10.472   5.200   5.332  0.00  0.00    +0.046 A 
ATOM     28  C   UNL     1       9.425   5.888   5.946  0.00  0.00    +0.120 A 
BRANCH  28   4
ATOM      4  O   UNL     1       9.010   5.521   7.190  0.00  0.00    -0.495 OA
ATOM     29  C   UNL     1       9.514   6.276   8.291  0.00  0.00    +0.277 C 
ENDBRANCH  28   4
ENDBRANCH  12  15
ENDBRANCH   7  12
BRANCH   8  13
ATOM     13  C   UNL     1      14.470   4.944   0.916  0.00  0.00    +0.124 C 
BRANCH  13  17
ATOM      3  O   UNL     1      16.280   3.496   0.162  0.00  0.00    -0.251 OA
ATOM     17  C   UNL     1      15.485   3.840   1.024  0.00  0.00    +0.305 C 
BRANCH  17   2
ATOM      2  O   UNL     1      15.398   3.257   2.247  0.00  0.00    -0.481 OA
ATOM     30  H   UNL     1      15.991   3.687   2.900  0.00  0.00    +0.295 HD
ENDBRANCH  17   2
ENDBRANCH  13  17
ENDBRANCH   8  13
TORSDOF 7
ENDMDL
MODEL 10
REMARK VINA RESULT:      -6.1     24.935     28.719
REMARK  Name = 51136663
REMARK  11 active torsions:
REMARK  status: ('A' for Active; 'I' for Inactive)
REMARK    1  A    between atoms: O_2  and  C_17
REMARK    2  A    between atoms: O_4  and  C_28
REMARK    3  A    between atoms: O_4  and  C_29
REMARK    4  A    between atoms: C_7  and  C_12
REMARK    5  A    between atoms: C_8  and  C_13
REMARK    6  A    between atoms: C_12  and  C_15
REMARK    7  A    between atoms: C_13  and  C_17
REMARK    8  A    between atoms: C_14  and  C_16
REMARK    9  A    between atoms: C_16  and  C_19
REMARK   10  A    between atoms: C_16  and  C_20
REMARK   11  A    between atoms: C_16  and  C_21
REMARK                            x       y       z     vdW  Elec       q    Type
REMARK                         _______ _______ _______ _____ _____    ______ ____
ROOT
ATOM      1  O   UNL     1      -4.385 -10.131  12.870  0.00  0.00    -0.275 OA
ATOM      5  N   UNL     1      -4.484 -11.092  14.984  0.00  0.00    -0.301 N 
ATOM      7  C   UNL     1      -6.553 -10.530  16.224  0.00  0.00    +0.016 C 
ATOM      8  C   UNL     1      -6.232 -11.625  17.271  0.00  0.00    +0.006 C 
ATOM      9  C   UNL     1      -5.282  -9.999  15.547  0.00  0.00    +0.112 C 
ATOM     10  C   UNL     1      -5.365 -12.717  16.619  0.00  0.00    +0.023 C 
ATOM     11  C   UNL     1      -4.122 -12.151  15.933  0.00  0.00    +0.108 C 
ATOM     14  C   UNL     1      -4.070 -11.031  13.653  0.00  0.00    +0.221 C 
ENDROOT
BRANCH  14  16
ATOM     16  C   UNL     1      -3.185 -12.151  13.167  0.00  0.00    +0.039 C 
ATOM     19  C   UNL     1      -3.990 -13.449  13.236  0.00  0.00    +0.020 C 
ATOM     20  C   UNL     1      -1.955 -12.236  14.073  0.00  0.00    +0.020 C 
ATOM     21  C   UNL     1      -2.764 -11.859  11.726  0.00  0.00    +0.020 C 
ENDBRANCH  14  16
BRANCH   7  12
ATOM     12  C   UNL     1      -7.379  -9.379  16.796  0.00  0.00    +0.061 C 
BRANCH  12  15
ATOM      6  N   UNL     1      -8.841  -9.238  14.896  0.00  0.00    -0.287 NA
ATOM     15  C   UNL     1      -8.756  -9.379  16.179  0.00  0.00    +0.044 C 
ATOM     18  C   UNL     1      -9.938  -9.530  17.066  0.00  0.00    -0.001 A 
ATOM     22  C   UNL     1     -11.177  -9.144  16.538  0.00  0.00    -0.033 A 
ATOM     23  C   UNL     1     -11.226  -8.599  15.141  0.00  0.00    +0.059 C 
ATOM     24  C   UNL     1     -10.176  -9.299  14.290  0.00  0.00    +0.146 C 
ATOM     25  C   UNL     1      -9.845 -10.017  18.370  0.00  0.00    +0.013 A 
ATOM     26  C   UNL     1     -12.321  -9.225  17.335  0.00  0.00    +0.050 A 
ATOM     27  C   UNL     1     -10.996 -10.108  19.154  0.00  0.00    +0.046 A 
ATOM     28  C   UNL     1     -12.230  -9.710  18.639  0.00  0.00    +0.120 A 
BRANCH  28   4
ATOM      4  O   UNL     1     -13.348  -9.795  19.413  0.00  0.00    -0.495 OA
ATOM     29  C   UNL     1     -13.190  -9.544  20.809  0.00  0.00    +0.277 C 
ENDBRANCH  28   4
ENDBRANCH  12  15
ENDBRANCH   7  12
BRANCH   8  13
ATOM     13  C   UNL     1      -5.572 -11.093  18.549  0.00  0.00    +0.124 C 
BRANCH  13  17
ATOM      3  O   UNL     1      -7.107 -12.086  20.160  0.00  0.00    -0.251 OA
ATOM     17  C   UNL     1      -6.522 -11.111  19.713  0.00  0.00    +0.305 C 
BRANCH  17   2
ATOM      2  O   UNL     1      -6.648  -9.857  20.220  0.00  0.00    -0.481 OA
ATOM     30  H   UNL     1      -6.210  -9.770  21.094  0.00  0.00    +0.295 HD
ENDBRANCH  17   2
ENDBRANCH  13  17
ENDBRANCH   8  13
TORSDOF 7
ENDMDL
