MODEL 1
REMARK VINA RESULT:      -7.6      0.000      0.000
REMARK  Name = 45783797
REMARK  9 active torsions:
REMARK  status: ('A' for Active; 'I' for Inactive)
REMARK    1  A    between atoms: O_2  and  C_25
REMARK    2  A    between atoms: N_4  and  C_13
REMARK    3  A    between atoms: N_8  and  C_27
REMARK    4  A    between atoms: N_8  and  C_28
REMARK    5  A    between atoms: N_8  and  C_29
REMARK    6  A    between atoms: C_9  and  C_14
REMARK    7  A    between atoms: C_13  and  C_15
REMARK    8  A    between atoms: C_18  and  C_21
REMARK    9  A    between atoms: C_22  and  C_25
REMARK                            x       y       z     vdW  Elec       q    Type
REMARK                         _______ _______ _______ _____ _____    ______ ____
ROOT
ATOM      4  N   UNL     1      12.733   8.337  18.707  0.00  0.00    -0.287 NA
ATOM      9  C   UNL     1      13.828   7.460  18.246  0.00  0.00    +0.146 C 
ATOM     10  C   UNL     1      14.133   7.934  16.813  0.00  0.00    +0.030 C 
ATOM     11  C   UNL     1      13.120   9.036  16.535  0.00  0.00    +0.017 C 
ATOM     12  C   UNL     1      11.997   8.742  17.509  0.00  0.00    +0.085 C 
ENDROOT
BRANCH   9  14
ATOM      1  O   UNL     1      15.054   8.508  20.082  0.00  0.00    -0.336 OA
ATOM      5  N   UNL     1      16.098   6.747  19.173  0.00  0.00    -0.190 NA
ATOM      6  N   UNL     1      16.256   8.361  20.787  0.00  0.00    -0.056 NA
ATOM     14  C   UNL     1      15.041   7.519  19.151  0.00  0.00    +0.245 A 
ATOM     18  C   UNL     1      16.815   7.303  20.193  0.00  0.00    +0.204 A 
BRANCH  18  21
ATOM      7  N   UNL     1      19.975   6.857  22.102  0.00  0.00    -0.240 NA
ATOM     21  C   UNL     1      18.087   6.776  20.593  0.00  0.00    +0.041 A 
ATOM     23  C   UNL     1      18.670   5.714  19.911  0.00  0.00    +0.016 A 
ATOM     24  C   UNL     1      18.774   7.307  21.673  0.00  0.00    +0.124 A 
ATOM     26  C   UNL     1      19.905   5.223  20.322  0.00  0.00    +0.044 A 
ATOM     27  C   UNL     1      20.510   5.825  21.413  0.00  0.00    +0.121 A 
BRANCH  27   8
ATOM      8  N   UNL     1      21.767   5.314  21.821  0.00  0.00    -0.321 N 
ATOM     28  C   UNL     1      22.938   6.163  21.801  0.00  0.00    +0.130 C 
ATOM     29  C   UNL     1      21.885   3.944  22.269  0.00  0.00    +0.130 C 
ENDBRANCH  27   8
ENDBRANCH  18  21
ENDBRANCH   9  14
BRANCH   4  13
ATOM     13  C   UNL     1      11.868   7.705  19.694  0.00  0.00    +0.120 C 
BRANCH  13  15
ATOM     15  C   UNL     1      11.603   8.610  20.867  0.00  0.00    -0.033 A 
ATOM     16  C   UNL     1      11.935   9.963  20.793  0.00  0.00    +0.006 A 
ATOM     17  C   UNL     1      11.026   8.097  22.029  0.00  0.00    +0.006 A 
ATOM     19  C   UNL     1      11.689  10.803  21.880  0.00  0.00    +0.015 A 
ATOM     20  C   UNL     1      10.781   8.936  23.116  0.00  0.00    +0.015 A 
ATOM     22  C   UNL     1      11.112  10.289  23.041  0.00  0.00    +0.059 A 
BRANCH  22  25
ATOM      3  O   UNL     1      10.285  12.257  24.119  0.00  0.00    -0.245 OA
ATOM     25  C   UNL     1      10.855  11.163  24.174  0.00  0.00    +0.337 C 
BRANCH  25   2
ATOM      2  O   UNL     1      11.318  10.647  25.346  0.00  0.00    -0.477 OA
ATOM     30  H   UNL     1      10.605  10.568  26.016  0.00  0.00    +0.295 HD
ENDBRANCH  25   2
ENDBRANCH  22  25
ENDBRANCH  13  15
ENDBRANCH   4  13
TORSDOF 7
ENDMDL
MODEL 2
REMARK VINA RESULT:      -7.0     16.160     19.857
REMARK  Name = 45783797
REMARK  9 active torsions:
REMARK  status: ('A' for Active; 'I' for Inactive)
REMARK    1  A    between atoms: O_2  and  C_25
REMARK    2  A    between atoms: N_4  and  C_13
REMARK    3  A    between atoms: N_8  and  C_27
REMARK    4  A    between atoms: N_8  and  C_28
REMARK    5  A    between atoms: N_8  and  C_29
REMARK    6  A    between atoms: C_9  and  C_14
REMARK    7  A    between atoms: C_13  and  C_15
REMARK    8  A    between atoms: C_18  and  C_21
REMARK    9  A    between atoms: C_22  and  C_25
REMARK                            x       y       z     vdW  Elec       q    Type
REMARK                         _______ _______ _______ _____ _____    ______ ____
ROOT
ATOM      4  N   UNL     1      11.426   6.173   4.501  0.00  0.00    -0.287 NA
ATOM      9  C   UNL     1      11.702   6.719   3.158  0.00  0.00    +0.146 C 
ATOM     10  C   UNL     1      13.049   7.452   3.301  0.00  0.00    +0.030 C 
ATOM     11  C   UNL     1      13.421   7.315   4.771  0.00  0.00    +0.017 C 
ATOM     12  C   UNL     1      12.091   7.064   5.453  0.00  0.00    +0.085 C 
ENDROOT
BRANCH   9  14
ATOM      1  O   UNL     1      12.035   4.389   2.500  0.00  0.00    -0.336 OA
ATOM      5  N   UNL     1      11.503   5.751   0.803  0.00  0.00    -0.190 NA
ATOM      6  N   UNL     1      12.001   3.587   1.352  0.00  0.00    -0.056 NA
ATOM     14  C   UNL     1      11.731   5.648   2.088  0.00  0.00    +0.245 A 
ATOM     18  C   UNL     1      11.681   4.461   0.394  0.00  0.00    +0.204 A 
BRANCH  18  21
ATOM      7  N   UNL     1      10.512   4.483  -3.136  0.00  0.00    -0.240 NA
ATOM     21  C   UNL     1      11.530   4.080  -0.980  0.00  0.00    +0.041 A 
ATOM     23  C   UNL     1      12.214   2.986  -1.500  0.00  0.00    +0.016 A 
ATOM     24  C   UNL     1      10.698   4.789  -1.832  0.00  0.00    +0.124 A 
ATOM     26  C   UNL     1      12.047   2.640  -2.837  0.00  0.00    +0.044 A 
ATOM     27  C   UNL     1      11.192   3.413  -3.605  0.00  0.00    +0.121 A 
BRANCH  27   8
ATOM      8  N   UNL     1      11.034   3.049  -4.965  0.00  0.00    -0.321 N 
ATOM     28  C   UNL     1      12.173   3.052  -5.855  0.00  0.00    +0.130 C 
ATOM     29  C   UNL     1       9.733   2.665  -5.469  0.00  0.00    +0.130 C 
ENDBRANCH  27   8
ENDBRANCH  18  21
ENDBRANCH   9  14
BRANCH   4  13
ATOM     13  C   UNL     1      10.003   6.034   4.783  0.00  0.00    +0.120 C 
BRANCH  13  15
ATOM     15  C   UNL     1       9.750   5.686   6.226  0.00  0.00    -0.033 A 
ATOM     16  C   UNL     1       9.277   6.661   7.105  0.00  0.00    +0.006 A 
ATOM     17  C   UNL     1       9.988   4.390   6.685  0.00  0.00    +0.006 A 
ATOM     19  C   UNL     1       9.041   6.339   8.442  0.00  0.00    +0.015 A 
ATOM     20  C   UNL     1       9.754   4.068   8.021  0.00  0.00    +0.015 A 
ATOM     22  C   UNL     1       9.280   5.043   8.900  0.00  0.00    +0.059 A 
BRANCH  22  25
ATOM      3  O   UNL     1       7.926   4.673  10.837  0.00  0.00    -0.245 OA
ATOM     25  C   UNL     1       9.034   4.707  10.293  0.00  0.00    +0.337 C 
BRANCH  25   2
ATOM      2  O   UNL     1      10.181   4.420  10.969  0.00  0.00    -0.477 OA
ATOM     30  H   UNL     1      10.930   4.245  10.360  0.00  0.00    +0.295 HD
ENDBRANCH  25   2
ENDBRANCH  22  25
ENDBRANCH  13  15
ENDBRANCH   4  13
TORSDOF 7
ENDMDL
MODEL 3
REMARK VINA RESULT:      -7.0      2.673      5.065
REMARK  Name = 45783797
REMARK  9 active torsions:
REMARK  status: ('A' for Active; 'I' for Inactive)
REMARK    1  A    between atoms: O_2  and  C_25
REMARK    2  A    between atoms: N_4  and  C_13
REMARK    3  A    between atoms: N_8  and  C_27
REMARK    4  A    between atoms: N_8  and  C_28
REMARK    5  A    between atoms: N_8  and  C_29
REMARK    6  A    between atoms: C_9  and  C_14
REMARK    7  A    between atoms: C_13  and  C_15
REMARK    8  A    between atoms: C_18  and  C_21
REMARK    9  A    between atoms: C_22  and  C_25
REMARK                            x       y       z     vdW  Elec       q    Type
REMARK                         _______ _______ _______ _____ _____    ______ ____
ROOT
ATOM      4  N   UNL     1      12.661   8.932  20.051  0.00  0.00    -0.287 NA
ATOM      9  C   UNL     1      13.313   8.214  21.164  0.00  0.00    +0.146 C 
ATOM     10  C   UNL     1      12.238   7.241  21.685  0.00  0.00    +0.030 C 
ATOM     11  C   UNL     1      11.002   7.528  20.845  0.00  0.00    +0.017 C 
ATOM     12  C   UNL     1      11.229   8.941  20.349  0.00  0.00    +0.085 C 
ENDROOT
BRANCH   9  14
ATOM      1  O   UNL     1      14.519   6.789  19.587  0.00  0.00    -0.336 OA
ATOM      5  N   UNL     1      15.755   7.485  21.320  0.00  0.00    -0.190 NA
ATOM      6  N   UNL     1      15.793   6.237  19.403  0.00  0.00    -0.056 NA
ATOM     14  C   UNL     1      14.583   7.508  20.738  0.00  0.00    +0.245 A 
ATOM     18  C   UNL     1      16.464   6.692  20.465  0.00  0.00    +0.204 A 
BRANCH  18  21
ATOM      7  N   UNL     1      19.813   5.125  20.066  0.00  0.00    -0.240 NA
ATOM     21  C   UNL     1      17.843   6.376  20.700  0.00  0.00    +0.041 A 
ATOM     23  C   UNL     1      18.549   6.973  21.739  0.00  0.00    +0.016 A 
ATOM     24  C   UNL     1      18.515   5.467  19.899  0.00  0.00    +0.124 A 
ATOM     26  C   UNL     1      19.885   6.647  21.943  0.00  0.00    +0.044 A 
ATOM     27  C   UNL     1      20.465   5.725  21.087  0.00  0.00    +0.121 A 
BRANCH  27   8
ATOM      8  N   UNL     1      21.827   5.403  21.306  0.00  0.00    -0.321 N 
ATOM     28  C   UNL     1      22.185   4.343  22.223  0.00  0.00    +0.130 C 
ATOM     29  C   UNL     1      22.867   6.126  20.609  0.00  0.00    +0.130 C 
ENDBRANCH  27   8
ENDBRANCH  18  21
ENDBRANCH   9  14
BRANCH   4  13
ATOM     13  C   UNL     1      13.187  10.275  19.848  0.00  0.00    +0.120 C 
BRANCH  13  15
ATOM     15  C   UNL     1      13.688  10.474  18.443  0.00  0.00    -0.033 A 
ATOM     16  C   UNL     1      14.120  11.735  18.029  0.00  0.00    +0.006 A 
ATOM     17  C   UNL     1      13.722   9.400  17.554  0.00  0.00    +0.006 A 
ATOM     19  C   UNL     1      14.584  11.920  16.726  0.00  0.00    +0.015 A 
ATOM     20  C   UNL     1      14.185   9.584  16.252  0.00  0.00    +0.015 A 
ATOM     22  C   UNL     1      14.617  10.845  15.838  0.00  0.00    +0.059 A 
BRANCH  22  25
ATOM      3  O   UNL     1      14.429  11.452  13.532  0.00  0.00    -0.245 OA
ATOM     25  C   UNL     1      15.102  11.037  14.481  0.00  0.00    +0.337 C 
BRANCH  25   2
ATOM      2  O   UNL     1      16.416  10.707  14.345  0.00  0.00    -0.477 OA
ATOM     30  H   UNL     1      16.997  11.496  14.394  0.00  0.00    +0.295 HD
ENDBRANCH  25   2
ENDBRANCH  22  25
ENDBRANCH  13  15
ENDBRANCH   4  13
TORSDOF 7
ENDMDL
MODEL 4
REMARK VINA RESULT:      -6.9     27.720     30.126
REMARK  Name = 45783797
REMARK  9 active torsions:
REMARK  status: ('A' for Active; 'I' for Inactive)
REMARK    1  A    between atoms: O_2  and  C_25
REMARK    2  A    between atoms: N_4  and  C_13
REMARK    3  A    between atoms: N_8  and  C_27
REMARK    4  A    between atoms: N_8  and  C_28
REMARK    5  A    between atoms: N_8  and  C_29
REMARK    6  A    between atoms: C_9  and  C_14
REMARK    7  A    between atoms: C_13  and  C_15
REMARK    8  A    between atoms: C_18  and  C_21
REMARK    9  A    between atoms: C_22  and  C_25
REMARK                            x       y       z     vdW  Elec       q    Type
REMARK                         _______ _______ _______ _____ _____    ______ ____
ROOT
ATOM      4  N   UNL     1     -11.083 -11.823  18.485  0.00  0.00    -0.287 NA
ATOM      9  C   UNL     1     -10.047 -12.417  19.353  0.00  0.00    +0.146 C 
ATOM     10  C   UNL     1     -10.100 -13.926  19.048  0.00  0.00    +0.030 C 
ATOM     11  C   UNL     1     -11.236 -14.090  18.047  0.00  0.00    +0.017 C 
ATOM     12  C   UNL     1     -12.092 -12.861  18.276  0.00  0.00    +0.085 C 
ENDROOT
BRANCH   9  14
ATOM      1  O   UNL     1      -8.184 -11.020  20.095  0.00  0.00    -0.336 OA
ATOM      5  N   UNL     1      -7.877 -11.962  18.086  0.00  0.00    -0.190 NA
ATOM      6  N   UNL     1      -6.925 -10.594  19.654  0.00  0.00    -0.056 NA
ATOM     14  C   UNL     1      -8.676 -11.821  19.114  0.00  0.00    +0.245 A 
ATOM     18  C   UNL     1      -6.816 -11.191  18.463  0.00  0.00    +0.204 A 
BRANCH  18  21
ATOM      7  N   UNL     1      -4.724 -10.367  15.501  0.00  0.00    -0.240 NA
ATOM     21  C   UNL     1      -5.661 -11.039  17.626  0.00  0.00    +0.041 A 
ATOM     23  C   UNL     1      -4.395 -11.392  18.080  0.00  0.00    +0.016 A 
ATOM     24  C   UNL     1      -5.770 -10.536  16.340  0.00  0.00    +0.124 A 
ATOM     26  C   UNL     1      -3.293 -11.233  17.247  0.00  0.00    +0.044 A 
ATOM     27  C   UNL     1      -3.510 -10.722  15.978  0.00  0.00    +0.121 A 
BRANCH  27   8
ATOM      8  N   UNL     1      -2.378 -10.565  15.140  0.00  0.00    -0.321 N 
ATOM     28  C   UNL     1      -1.083 -10.271  15.714  0.00  0.00    +0.130 C 
ATOM     29  C   UNL     1      -2.508 -10.706  13.706  0.00  0.00    +0.130 C 
ENDBRANCH  27   8
ENDBRANCH  18  21
ENDBRANCH   9  14
BRANCH   4  13
ATOM     13  C   UNL     1     -11.659 -10.602  19.033  0.00  0.00    +0.120 C 
BRANCH  13  15
ATOM     15  C   UNL     1     -11.482  -9.432  18.102  0.00  0.00    -0.033 A 
ATOM     16  C   UNL     1     -10.227  -8.840  17.958  0.00  0.00    +0.006 A 
ATOM     17  C   UNL     1     -12.571  -8.940  17.383  0.00  0.00    +0.006 A 
ATOM     19  C   UNL     1     -10.062  -7.756  17.095  0.00  0.00    +0.015 A 
ATOM     20  C   UNL     1     -12.407  -7.856  16.521  0.00  0.00    +0.015 A 
ATOM     22  C   UNL     1     -11.152  -7.264  16.377  0.00  0.00    +0.059 A 
BRANCH  22  25
ATOM      3  O   UNL     1     -11.887  -5.565  14.862  0.00  0.00    -0.245 OA
ATOM     25  C   UNL     1     -10.980  -6.135  15.477  0.00  0.00    +0.337 C 
BRANCH  25   2
ATOM      2  O   UNL     1      -9.680  -5.747  15.371  0.00  0.00    -0.477 OA
ATOM     30  H   UNL     1      -9.384  -5.714  14.436  0.00  0.00    +0.295 HD
ENDBRANCH  25   2
ENDBRANCH  22  25
ENDBRANCH  13  15
ENDBRANCH   4  13
TORSDOF 7
ENDMDL
MODEL 5
REMARK VINA RESULT:      -6.9      3.543      8.565
REMARK  Name = 45783797
REMARK  9 active torsions:
REMARK  status: ('A' for Active; 'I' for Inactive)
REMARK    1  A    between atoms: O_2  and  C_25
REMARK    2  A    between atoms: N_4  and  C_13
REMARK    3  A    between atoms: N_8  and  C_27
REMARK    4  A    between atoms: N_8  and  C_28
REMARK    5  A    between atoms: N_8  and  C_29
REMARK    6  A    between atoms: C_9  and  C_14
REMARK    7  A    between atoms: C_13  and  C_15
REMARK    8  A    between atoms: C_18  and  C_21
REMARK    9  A    between atoms: C_22  and  C_25
REMARK                            x       y       z     vdW  Elec       q    Type
REMARK                         _______ _______ _______ _____ _____    ______ ____
ROOT
ATOM      4  N   UNL     1      14.488   7.707  19.292  0.00  0.00    -0.287 NA
ATOM      9  C   UNL     1      13.828   6.933  20.361  0.00  0.00    +0.146 C 
ATOM     10  C   UNL     1      14.984   6.365  21.205  0.00  0.00    +0.030 C 
ATOM     11  C   UNL     1      16.253   6.821  20.499  0.00  0.00    +0.017 C 
ATOM     12  C   UNL     1      15.795   7.084  19.078  0.00  0.00    +0.085 C 
ENDROOT
BRANCH   9  14
ATOM      1  O   UNL     1      11.839   7.109  21.770  0.00  0.00    -0.336 OA
ATOM      5  N   UNL     1      12.873   9.061  21.400  0.00  0.00    -0.190 NA
ATOM      6  N   UNL     1      11.097   8.079  22.456  0.00  0.00    -0.056 NA
ATOM     14  C   UNL     1      12.866   7.771  21.177  0.00  0.00    +0.245 A 
ATOM     18  C   UNL     1      11.769   9.203  22.190  0.00  0.00    +0.204 A 
BRANCH  18  21
ATOM      7  N   UNL     1      10.599  11.817  24.563  0.00  0.00    -0.240 NA
ATOM     21  C   UNL     1      11.365  10.482  22.697  0.00  0.00    +0.041 A 
ATOM     23  C   UNL     1      11.339  11.604  21.876  0.00  0.00    +0.016 A 
ATOM     24  C   UNL     1      10.989  10.641  24.022  0.00  0.00    +0.124 A 
ATOM     26  C   UNL     1      10.944  12.831  22.396  0.00  0.00    +0.044 A 
ATOM     27  C   UNL     1      10.586  12.884  23.733  0.00  0.00    +0.121 A 
BRANCH  27   8
ATOM      8  N   UNL     1      10.186  14.141  24.249  0.00  0.00    -0.321 N 
ATOM     28  C   UNL     1      10.585  14.540  25.581  0.00  0.00    +0.130 C 
ATOM     29  C   UNL     1       9.384  15.037  23.445  0.00  0.00    +0.130 C 
ENDBRANCH  27   8
ENDBRANCH  18  21
ENDBRANCH   9  14
BRANCH   4  13
ATOM     13  C   UNL     1      13.706   7.773  18.064  0.00  0.00    +0.120 C 
BRANCH  13  15
ATOM     15  C   UNL     1      13.882   9.091  17.358  0.00  0.00    -0.033 A 
ATOM     16  C   UNL     1      14.111   9.120  15.982  0.00  0.00    +0.006 A 
ATOM     17  C   UNL     1      13.818  10.284  18.079  0.00  0.00    +0.006 A 
ATOM     19  C   UNL     1      14.274  10.341  15.327  0.00  0.00    +0.015 A 
ATOM     20  C   UNL     1      13.981  11.505  17.425  0.00  0.00    +0.015 A 
ATOM     22  C   UNL     1      14.209  11.533  16.049  0.00  0.00    +0.059 A 
BRANCH  22  25
ATOM      3  O   UNL     1      15.212  13.042  14.487  0.00  0.00    -0.245 OA
ATOM     25  C   UNL     1      14.378  12.806  15.367  0.00  0.00    +0.337 C 
BRANCH  25   2
ATOM      2  O   UNL     1      13.499  13.751  15.802  0.00  0.00    -0.477 OA
ATOM     30  H   UNL     1      13.459  14.519  15.193  0.00  0.00    +0.295 HD
ENDBRANCH  25   2
ENDBRANCH  22  25
ENDBRANCH  13  15
ENDBRANCH   4  13
TORSDOF 7
ENDMDL
MODEL 6
REMARK VINA RESULT:      -6.8     27.562     29.194
REMARK  Name = 45783797
REMARK  9 active torsions:
REMARK  status: ('A' for Active; 'I' for Inactive)
REMARK    1  A    between atoms: O_2  and  C_25
REMARK    2  A    between atoms: N_4  and  C_13
REMARK    3  A    between atoms: N_8  and  C_27
REMARK    4  A    between atoms: N_8  and  C_28
REMARK    5  A    between atoms: N_8  and  C_29
REMARK    6  A    between atoms: C_9  and  C_14
REMARK    7  A    between atoms: C_13  and  C_15
REMARK    8  A    between atoms: C_18  and  C_21
REMARK    9  A    between atoms: C_22  and  C_25
REMARK                            x       y       z     vdW  Elec       q    Type
REMARK                         _______ _______ _______ _____ _____    ______ ____
ROOT
ATOM      4  N   UNL     1      -5.141  -9.667   9.249  0.00  0.00    -0.287 NA
ATOM      9  C   UNL     1      -6.042  -8.695   9.898  0.00  0.00    +0.146 C 
ATOM     10  C   UNL     1      -7.237  -8.564   8.936  0.00  0.00    +0.030 C 
ATOM     11  C   UNL     1      -6.890  -9.452   7.748  0.00  0.00    +0.017 C 
ATOM     12  C   UNL     1      -5.379  -9.554   7.810  0.00  0.00    +0.085 C 
ENDROOT
BRANCH   9  14
ATOM      1  O   UNL     1      -7.784  -9.332  11.489  0.00  0.00    -0.336 OA
ATOM      5  N   UNL     1      -5.716  -9.329  12.350  0.00  0.00    -0.190 NA
ATOM      6  N   UNL     1      -7.920  -9.714  12.830  0.00  0.00    -0.056 NA
ATOM     14  C   UNL     1      -6.456  -9.124  11.290  0.00  0.00    +0.245 A 
ATOM     18  C   UNL     1      -6.658  -9.689  13.270  0.00  0.00    +0.204 A 
BRANCH  18  21
ATOM      7  N   UNL     1      -6.983 -10.290  16.925  0.00  0.00    -0.240 NA
ATOM     21  C   UNL     1      -6.305 -10.018  14.620  0.00  0.00    +0.041 A 
ATOM     23  C   UNL     1      -5.003 -10.376  14.954  0.00  0.00    +0.016 A 
ATOM     24  C   UNL     1      -7.249  -9.991  15.634  0.00  0.00    +0.124 A 
ATOM     26  C   UNL     1      -4.690 -10.690  16.272  0.00  0.00    +0.044 A 
ATOM     27  C   UNL     1      -5.707 -10.632  17.211  0.00  0.00    +0.121 A 
BRANCH  27   8
ATOM      8  N   UNL     1      -5.373 -10.956  18.549  0.00  0.00    -0.321 N 
ATOM     28  C   UNL     1      -4.225 -11.789  18.831  0.00  0.00    +0.130 C 
ATOM     29  C   UNL     1      -6.174 -10.450  19.642  0.00  0.00    +0.130 C 
ENDBRANCH  27   8
ENDBRANCH  18  21
ENDBRANCH   9  14
BRANCH   4  13
ATOM     13  C   UNL     1      -3.739  -9.468   9.589  0.00  0.00    +0.120 C 
BRANCH  13  15
ATOM     15  C   UNL     1      -3.260 -10.473  10.602  0.00  0.00    -0.033 A 
ATOM     16  C   UNL     1      -2.344 -10.092  11.584  0.00  0.00    +0.006 A 
ATOM     17  C   UNL     1      -3.730 -11.786  10.561  0.00  0.00    +0.006 A 
ATOM     19  C   UNL     1      -1.900 -11.023  12.523  0.00  0.00    +0.015 A 
ATOM     20  C   UNL     1      -3.286 -12.717  11.499  0.00  0.00    +0.015 A 
ATOM     22  C   UNL     1      -2.371 -12.335  12.481  0.00  0.00    +0.059 A 
BRANCH  22  25
ATOM      3  O   UNL     1      -1.484 -14.437  13.201  0.00  0.00    -0.245 OA
ATOM     25  C   UNL     1      -1.909 -13.306  13.459  0.00  0.00    +0.337 C 
BRANCH  25   2
ATOM      2  O   UNL     1      -1.990 -12.838  14.735  0.00  0.00    -0.477 OA
ATOM     30  H   UNL     1      -2.713 -13.271  15.238  0.00  0.00    +0.295 HD
ENDBRANCH  25   2
ENDBRANCH  22  25
ENDBRANCH  13  15
ENDBRANCH   4  13
TORSDOF 7
ENDMDL
MODEL 7
REMARK VINA RESULT:      -6.7      3.630      7.525
REMARK  Name = 45783797
REMARK  9 active torsions:
REMARK  status: ('A' for Active; 'I' for Inactive)
REMARK    1  A    between atoms: O_2  and  C_25
REMARK    2  A    between atoms: N_4  and  C_13
REMARK    3  A    between atoms: N_8  and  C_27
REMARK    4  A    between atoms: N_8  and  C_28
REMARK    5  A    between atoms: N_8  and  C_29
REMARK    6  A    between atoms: C_9  and  C_14
REMARK    7  A    between atoms: C_13  and  C_15
REMARK    8  A    between atoms: C_18  and  C_21
REMARK    9  A    between atoms: C_22  and  C_25
REMARK                            x       y       z     vdW  Elec       q    Type
REMARK                         _______ _______ _______ _____ _____    ______ ____
ROOT
ATOM      4  N   UNL     1      12.482   8.979  21.500  0.00  0.00    -0.287 NA
ATOM      9  C   UNL     1      12.010  10.071  20.626  0.00  0.00    +0.146 C 
ATOM     10  C   UNL     1      11.363  11.088  21.584  0.00  0.00    +0.030 C 
ATOM     11  C   UNL     1      11.464  10.453  22.964  0.00  0.00    +0.017 C 
ATOM     12  C   UNL     1      11.600   8.974  22.667  0.00  0.00    +0.085 C 
ENDROOT
BRANCH   9  14
ATOM      1  O   UNL     1      14.037  11.428  20.467  0.00  0.00    -0.336 OA
ATOM      5  N   UNL     1      13.345  10.585  18.511  0.00  0.00    -0.190 NA
ATOM      6  N   UNL     1      14.953  11.874  19.505  0.00  0.00    -0.056 NA
ATOM     14  C   UNL     1      13.124  10.677  19.798  0.00  0.00    +0.245 A 
ATOM     18  C   UNL     1      14.478  11.336  18.378  0.00  0.00    +0.204 A 
BRANCH  18  21
ATOM      7  N   UNL     1      16.831  12.607  15.795  0.00  0.00    -0.240 NA
ATOM     21  C   UNL     1      15.110  11.527  17.105  0.00  0.00    +0.041 A 
ATOM     23  C   UNL     1      14.657  10.860  15.972  0.00  0.00    +0.016 A 
ATOM     24  C   UNL     1      16.191  12.382  16.965  0.00  0.00    +0.124 A 
ATOM     26  C   UNL     1      15.290  11.065  14.751  0.00  0.00    +0.044 A 
ATOM     27  C   UNL     1      16.362  11.942  14.716  0.00  0.00    +0.121 A 
BRANCH  27   8
ATOM      8  N   UNL     1      16.998  12.140  13.466  0.00  0.00    -0.321 N 
ATOM     28  C   UNL     1      18.410  12.448  13.409  0.00  0.00    +0.130 C 
ATOM     29  C   UNL     1      16.240  12.029  12.239  0.00  0.00    +0.130 C 
ENDBRANCH  27   8
ENDBRANCH  18  21
ENDBRANCH   9  14
BRANCH   4  13
ATOM     13  C   UNL     1      12.517   7.684  20.833  0.00  0.00    +0.120 C 
BRANCH  13  15
ATOM     15  C   UNL     1      13.924   7.263  20.501  0.00  0.00    -0.033 A 
ATOM     16  C   UNL     1      14.848   7.053  21.525  0.00  0.00    +0.006 A 
ATOM     17  C   UNL     1      14.304   7.082  19.171  0.00  0.00    +0.006 A 
ATOM     19  C   UNL     1      16.152   6.662  21.219  0.00  0.00    +0.015 A 
ATOM     20  C   UNL     1      15.607   6.692  18.864  0.00  0.00    +0.015 A 
ATOM     22  C   UNL     1      16.531   6.481  19.888  0.00  0.00    +0.059 A 
BRANCH  22  25
ATOM      3  O   UNL     1      18.898   6.370  20.217  0.00  0.00    -0.245 OA
ATOM     25  C   UNL     1      17.889   6.074  19.568  0.00  0.00    +0.337 C 
BRANCH  25   2
ATOM      2  O   UNL     1      17.952   5.305  18.446  0.00  0.00    -0.477 OA
ATOM     30  H   UNL     1      18.874   5.050  18.229  0.00  0.00    +0.295 HD
ENDBRANCH  25   2
ENDBRANCH  22  25
ENDBRANCH  13  15
ENDBRANCH   4  13
TORSDOF 7
ENDMDL
MODEL 8
REMARK VINA RESULT:      -6.7     27.286     29.372
REMARK  Name = 45783797
REMARK  9 active torsions:
REMARK  status: ('A' for Active; 'I' for Inactive)
REMARK    1  A    between atoms: O_2  and  C_25
REMARK    2  A    between atoms: N_4  and  C_13
REMARK    3  A    between atoms: N_8  and  C_27
REMARK    4  A    between atoms: N_8  and  C_28
REMARK    5  A    between atoms: N_8  and  C_29
REMARK    6  A    between atoms: C_9  and  C_14
REMARK    7  A    between atoms: C_13  and  C_15
REMARK    8  A    between atoms: C_18  and  C_21
REMARK    9  A    between atoms: C_22  and  C_25
REMARK                            x       y       z     vdW  Elec       q    Type
REMARK                         _______ _______ _______ _____ _____    ______ ____
ROOT
ATOM      4  N   UNL     1      -3.464 -11.759  14.048  0.00  0.00    -0.287 NA
ATOM      9  C   UNL     1      -2.592 -11.816  12.859  0.00  0.00    +0.146 C 
ATOM     10  C   UNL     1      -2.582 -13.301  12.451  0.00  0.00    +0.030 C 
ATOM     11  C   UNL     1      -3.425 -14.008  13.504  0.00  0.00    +0.017 C 
ATOM     12  C   UNL     1      -3.370 -13.069  14.692  0.00  0.00    +0.085 C 
ENDROOT
BRANCH   9  14
ATOM      1  O   UNL     1      -2.189  -9.964  11.317  0.00  0.00    -0.336 OA
ATOM      5  N   UNL     1      -4.217 -10.892  11.120  0.00  0.00    -0.190 NA
ATOM      6  N   UNL     1      -2.843  -9.257  10.299  0.00  0.00    -0.056 NA
ATOM     14  C   UNL     1      -3.067 -10.907  11.745  0.00  0.00    +0.245 A 
ATOM     18  C   UNL     1      -4.033  -9.863  10.242  0.00  0.00    +0.204 A 
BRANCH  18  21
ATOM      7  N   UNL     1      -6.059  -9.673   7.130  0.00  0.00    -0.240 NA
ATOM     21  C   UNL     1      -5.058  -9.466   9.321  0.00  0.00    +0.041 A 
ATOM     23  C   UNL     1      -6.021  -8.530   9.680  0.00  0.00    +0.016 A 
ATOM     24  C   UNL     1      -5.120 -10.003   8.045  0.00  0.00    +0.124 A 
ATOM     26  C   UNL     1      -7.003  -8.165   8.765  0.00  0.00    +0.044 A 
ATOM     27  C   UNL     1      -6.977  -8.759   7.515  0.00  0.00    +0.121 A 
BRANCH  27   8
ATOM      8  N   UNL     1      -7.984  -8.378   6.594  0.00  0.00    -0.321 N 
ATOM     28  C   UNL     1      -8.460  -9.321   5.606  0.00  0.00    +0.130 C 
ATOM     29  C   UNL     1      -8.548  -7.047   6.641  0.00  0.00    +0.130 C 
ENDBRANCH  27   8
ENDBRANCH  18  21
ENDBRANCH   9  14
BRANCH   4  13
ATOM     13  C   UNL     1      -3.122 -10.675  14.960  0.00  0.00    +0.120 C 
BRANCH  13  15
ATOM     15  C   UNL     1      -3.941 -10.725  16.222  0.00  0.00    -0.033 A 
ATOM     16  C   UNL     1      -3.420 -11.330  17.367  0.00  0.00    +0.006 A 
ATOM     17  C   UNL     1      -5.219 -10.167  16.249  0.00  0.00    +0.006 A 
ATOM     19  C   UNL     1      -4.178 -11.377  18.537  0.00  0.00    +0.015 A 
ATOM     20  C   UNL     1      -5.977 -10.214  17.419  0.00  0.00    +0.015 A 
ATOM     22  C   UNL     1      -5.456 -10.819  18.563  0.00  0.00    +0.059 A 
BRANCH  22  25
ATOM      3  O   UNL     1      -5.882 -11.365  20.853  0.00  0.00    -0.245 OA
ATOM     25  C   UNL     1      -6.246 -10.867  19.783  0.00  0.00    +0.337 C 
BRANCH  25   2
ATOM      2  O   UNL     1      -7.471 -10.290  19.633  0.00  0.00    -0.477 OA
ATOM     30  H   UNL     1      -7.617  -9.977  18.714  0.00  0.00    +0.295 HD
ENDBRANCH  25   2
ENDBRANCH  22  25
ENDBRANCH  13  15
ENDBRANCH   4  13
TORSDOF 7
ENDMDL
MODEL 9
REMARK VINA RESULT:      -6.6      4.038      7.608
REMARK  Name = 45783797
REMARK  9 active torsions:
REMARK  status: ('A' for Active; 'I' for Inactive)
REMARK    1  A    between atoms: O_2  and  C_25
REMARK    2  A    between atoms: N_4  and  C_13
REMARK    3  A    between atoms: N_8  and  C_27
REMARK    4  A    between atoms: N_8  and  C_28
REMARK    5  A    between atoms: N_8  and  C_29
REMARK    6  A    between atoms: C_9  and  C_14
REMARK    7  A    between atoms: C_13  and  C_15
REMARK    8  A    between atoms: C_18  and  C_21
REMARK    9  A    between atoms: C_22  and  C_25
REMARK                            x       y       z     vdW  Elec       q    Type
REMARK                         _______ _______ _______ _____ _____    ______ ____
ROOT
ATOM      4  N   UNL     1      13.210   7.930  19.696  0.00  0.00    -0.287 NA
ATOM      9  C   UNL     1      12.327   7.914  18.513  0.00  0.00    +0.146 C 
ATOM     10  C   UNL     1      10.985   8.477  19.018  0.00  0.00    +0.030 C 
ATOM     11  C   UNL     1      11.192   8.722  20.506  0.00  0.00    +0.017 C 
ATOM     12  C   UNL     1      12.338   7.798  20.863  0.00  0.00    +0.085 C 
ENDROOT
BRANCH   9  14
ATOM      1  O   UNL     1      12.441   8.375  16.116  0.00  0.00    -0.336 OA
ATOM      5  N   UNL     1      13.769   9.679  17.361  0.00  0.00    -0.190 NA
ATOM      6  N   UNL     1      13.098   9.230  15.221  0.00  0.00    -0.056 NA
ATOM     14  C   UNL     1      12.893   8.706  17.353  0.00  0.00    +0.245 A 
ATOM     18  C   UNL     1      13.863   9.968  16.030  0.00  0.00    +0.204 A 
BRANCH  18  21
ATOM      7  N   UNL     1      15.483  13.295  15.668  0.00  0.00    -0.240 NA
ATOM     21  C   UNL     1      14.730  11.001  15.543  0.00  0.00    +0.041 A 
ATOM     23  C   UNL     1      15.635  10.753  14.517  0.00  0.00    +0.016 A 
ATOM     24  C   UNL     1      14.694  12.278  16.080  0.00  0.00    +0.124 A 
ATOM     26  C   UNL     1      16.463  11.774  14.065  0.00  0.00    +0.044 A 
ATOM     27  C   UNL     1      16.348  13.016  14.668  0.00  0.00    +0.121 A 
BRANCH  27   8
ATOM      8  N   UNL     1      17.200  14.047  14.198  0.00  0.00    -0.321 N 
ATOM     28  C   UNL     1      18.416  13.717  13.488  0.00  0.00    +0.130 C 
ATOM     29  C   UNL     1      16.854  15.433  14.418  0.00  0.00    +0.130 C 
ENDBRANCH  27   8
ENDBRANCH  18  21
ENDBRANCH   9  14
BRANCH   4  13
ATOM     13  C   UNL     1      14.237   6.898  19.659  0.00  0.00    +0.120 C 
BRANCH  13  15
ATOM     15  C   UNL     1      15.535   7.378  20.253  0.00  0.00    -0.033 A 
ATOM     16  C   UNL     1      15.819   8.743  20.294  0.00  0.00    +0.006 A 
ATOM     17  C   UNL     1      16.453   6.459  20.762  0.00  0.00    +0.006 A 
ATOM     19  C   UNL     1      17.022   9.189  20.844  0.00  0.00    +0.015 A 
ATOM     20  C   UNL     1      17.655   6.904  21.311  0.00  0.00    +0.015 A 
ATOM     22  C   UNL     1      17.939   8.269  21.353  0.00  0.00    +0.059 A 
BRANCH  22  25
ATOM      3  O   UNL     1      19.987   9.504  21.381  0.00  0.00    -0.245 OA
ATOM     25  C   UNL     1      19.191   8.733  21.927  0.00  0.00    +0.337 C 
BRANCH  25   2
ATOM      2  O   UNL     1      19.416   8.222  23.169  0.00  0.00    -0.477 OA
ATOM     30  H   UNL     1      19.898   7.368  23.130  0.00  0.00    +0.295 HD
ENDBRANCH  25   2
ENDBRANCH  22  25
ENDBRANCH  13  15
ENDBRANCH   4  13
TORSDOF 7
ENDMDL
MODEL 10
REMARK VINA RESULT:      -6.6      3.616      8.122
REMARK  Name = 45783797
REMARK  9 active torsions:
REMARK  status: ('A' for Active; 'I' for Inactive)
REMARK    1  A    between atoms: O_2  and  C_25
REMARK    2  A    between atoms: N_4  and  C_13
REMARK    3  A    between atoms: N_8  and  C_27
REMARK    4  A    between atoms: N_8  and  C_28
REMARK    5  A    between atoms: N_8  and  C_29
REMARK    6  A    between atoms: C_9  and  C_14
REMARK    7  A    between atoms: C_13  and  C_15
REMARK    8  A    between atoms: C_18  and  C_21
REMARK    9  A    between atoms: C_22  and  C_25
REMARK                            x       y       z     vdW  Elec       q    Type
REMARK                         _______ _______ _______ _____ _____    ______ ____
ROOT
ATOM      4  N   UNL     1      13.145   7.694  20.409  0.00  0.00    -0.287 NA
ATOM      9  C   UNL     1      12.188   8.395  19.530  0.00  0.00    +0.146 C 
ATOM     10  C   UNL     1      11.096   8.921  20.481  0.00  0.00    +0.030 C 
ATOM     11  C   UNL     1      11.493   8.415  21.860  0.00  0.00    +0.017 C 
ATOM     12  C   UNL     1      12.377   7.221  21.561  0.00  0.00    +0.085 C 
ENDROOT
BRANCH   9  14
ATOM      1  O   UNL     1      13.046  10.677  19.363  0.00  0.00    -0.336 OA
ATOM      5  N   UNL     1      13.241   9.486  17.476  0.00  0.00    -0.190 NA
ATOM      6  N   UNL     1      13.649  11.527  18.426  0.00  0.00    -0.056 NA
ATOM     14  C   UNL     1      12.840   9.497  18.722  0.00  0.00    +0.245 A 
ATOM     18  C   UNL     1      13.731  10.753  17.340  0.00  0.00    +0.204 A 
BRANCH  18  21
ATOM      7  N   UNL     1      15.418  10.696  14.027  0.00  0.00    -0.240 NA
ATOM     21  C   UNL     1      14.296  11.214  16.105  0.00  0.00    +0.041 A 
ATOM     23  C   UNL     1      14.285  12.563  15.770  0.00  0.00    +0.016 A 
ATOM     24  C   UNL     1      14.870  10.328  15.206  0.00  0.00    +0.124 A 
ATOM     26  C   UNL     1      14.840  12.980  14.565  0.00  0.00    +0.044 A 
ATOM     27  C   UNL     1      15.390  12.016  13.737  0.00  0.00    +0.121 A 
BRANCH  27   8
ATOM      8  N   UNL     1      15.951  12.456  12.513  0.00  0.00    -0.321 N 
ATOM     28  C   UNL     1      15.095  12.957  11.460  0.00  0.00    +0.130 C 
ATOM     29  C   UNL     1      17.382  12.413  12.311  0.00  0.00    +0.130 C 
ENDBRANCH  27   8
ENDBRANCH  18  21
ENDBRANCH   9  14
BRANCH   4  13
ATOM     13  C   UNL     1      13.852   6.610  19.739  0.00  0.00    +0.120 C 
BRANCH  13  15
ATOM     15  C   UNL     1      15.324   6.623  20.053  0.00  0.00    -0.033 A 
ATOM     16  C   UNL     1      16.244   6.191  19.097  0.00  0.00    +0.006 A 
ATOM     17  C   UNL     1      15.769   7.065  21.298  0.00  0.00    +0.006 A 
ATOM     19  C   UNL     1      17.609   6.203  19.387  0.00  0.00    +0.015 A 
ATOM     20  C   UNL     1      17.133   7.077  21.589  0.00  0.00    +0.015 A 
ATOM     22  C   UNL     1      18.053   6.646  20.633  0.00  0.00    +0.059 A 
BRANCH  22  25
ATOM      3  O   UNL     1      20.006   7.297  21.850  0.00  0.00    -0.245 OA
ATOM     25  C   UNL     1      19.475   6.659  20.936  0.00  0.00    +0.337 C 
BRANCH  25   2
ATOM      2  O   UNL     1      20.195   5.874  20.088  0.00  0.00    -0.477 OA
ATOM     30  H   UNL     1      21.160   6.025  20.182  0.00  0.00    +0.295 HD
ENDBRANCH  25   2
ENDBRANCH  22  25
ENDBRANCH  13  15
ENDBRANCH   4  13
TORSDOF 7
ENDMDL
