MODEL 1
REMARK VINA RESULT:      -6.3      0.000      0.000
REMARK  Name = 75368554
REMARK  8 active torsions:
REMARK  status: ('A' for Active; 'I' for Inactive)
REMARK    1  A    between atoms: O_2  and  C_18
REMARK    2  A    between atoms: O_2  and  C_21
REMARK    3  A    between atoms: O_3  and  C_19
REMARK    4  A    between atoms: O_3  and  C_22
REMARK    5  A    between atoms: O_4  and  C_20
REMARK    6  A    between atoms: O_4  and  C_23
REMARK    7  A    between atoms: N_6  and  C_14
REMARK    8  A    between atoms: C_14  and  C_15
REMARK                            x       y       z     vdW  Elec       q    Type
REMARK                         _______ _______ _______ _____ _____    ______ ____
ROOT
ATOM     14  C   UNL     1      15.940   8.073  21.484  0.00  0.00    +0.120 C 
ENDROOT
BRANCH  14   6
ATOM      1  O   UNL     1      22.150   6.580  21.561  0.00  0.00    -0.253 OA
ATOM      5  N   UNL     1      19.948   7.009  20.850  0.00  0.00    -0.279 N 
ATOM      6  N   UNL     1      17.286   7.907  20.934  0.00  0.00    -0.295 NA
ATOM      7  N   UNL     1      20.837   4.984  20.450  0.00  0.00    -0.297 N 
ATOM      8  C   UNL     1      18.951   6.323  20.056  0.00  0.00    +0.109 C 
ATOM      9  C   UNL     1      17.569   6.479  20.689  0.00  0.00    +0.109 C 
ATOM     10  C   UNL     1      19.705   8.372  21.274  0.00  0.00    +0.125 C 
ATOM     11  C   UNL     1      19.470   4.888  19.990  0.00  0.00    +0.129 C 
ATOM     12  C   UNL     1      18.289   8.496  21.844  0.00  0.00    +0.104 C 
ATOM     13  C   UNL     1      21.107   6.243  21.021  0.00  0.00    +0.303 C 
ATOM     24  H   UNL     1      21.498   4.214  20.445  0.00  0.00    +0.150 HD
ENDBRANCH  14   6
BRANCH  14  15
ATOM     15  C   UNL     1      14.878   7.873  20.437  0.00  0.00    -0.026 A 
ATOM     16  C   UNL     1      15.044   8.415  19.163  0.00  0.00    +0.054 A 
ATOM     17  C   UNL     1      13.728   7.145  20.741  0.00  0.00    +0.054 A 
ATOM     18  C   UNL     1      12.742   6.961  19.770  0.00  0.00    +0.165 A 
ATOM     19  C   UNL     1      14.059   8.230  18.193  0.00  0.00    +0.165 A 
ATOM     20  C   UNL     1      12.909   7.503  18.496  0.00  0.00    +0.204 A 
BRANCH  18   2
ATOM      2  O   UNL     1      11.624   6.247  20.080  0.00  0.00    -0.491 OA
ATOM     21  C   UNL     1      11.269   6.163  21.458  0.00  0.00    +0.277 C 
ENDBRANCH  18   2
BRANCH  19   3
ATOM      3  O   UNL     1      14.234   8.766  16.952  0.00  0.00    -0.491 OA
ATOM     22  C   UNL     1      14.335  10.186  16.867  0.00  0.00    +0.277 C 
ENDBRANCH  19   3
BRANCH  20   4
ATOM      4  O   UNL     1      11.947   7.321  17.547  0.00  0.00    -0.488 OA
ATOM     23  C   UNL     1      11.027   8.391  17.347  0.00  0.00    +0.277 C 
ENDBRANCH  20   4
ENDBRANCH  14  15
TORSDOF 5
ENDMDL
MODEL 2
REMARK VINA RESULT:      -6.2      2.418      7.650
REMARK  Name = 75368554
REMARK  8 active torsions:
REMARK  status: ('A' for Active; 'I' for Inactive)
REMARK    1  A    between atoms: O_2  and  C_18
REMARK    2  A    between atoms: O_2  and  C_21
REMARK    3  A    between atoms: O_3  and  C_19
REMARK    4  A    between atoms: O_3  and  C_22
REMARK    5  A    between atoms: O_4  and  C_20
REMARK    6  A    between atoms: O_4  and  C_23
REMARK    7  A    between atoms: N_6  and  C_14
REMARK    8  A    between atoms: C_14  and  C_15
REMARK                            x       y       z     vdW  Elec       q    Type
REMARK                         _______ _______ _______ _____ _____    ______ ____
ROOT
ATOM     14  C   UNL     1      16.330   6.228  19.384  0.00  0.00    +0.120 C 
ENDROOT
BRANCH  14   6
ATOM      1  O   UNL     1      10.451   8.641  18.738  0.00  0.00    -0.253 OA
ATOM      5  N   UNL     1      12.578   8.095  19.584  0.00  0.00    -0.279 N 
ATOM      6  N   UNL     1      15.229   7.161  19.630  0.00  0.00    -0.295 NA
ATOM      7  N   UNL     1      10.763   7.515  20.773  0.00  0.00    -0.297 N 
ATOM      8  C   UNL     1      13.108   7.547  20.815  0.00  0.00    +0.109 C 
ATOM      9  C   UNL     1      14.220   6.543  20.514  0.00  0.00    +0.109 C 
ATOM     10  C   UNL     1      13.492   8.595  18.578  0.00  0.00    +0.125 C 
ATOM     11  C   UNL     1      11.878   6.957  21.503  0.00  0.00    +0.129 C 
ATOM     12  C   UNL     1      14.622   7.587  18.353  0.00  0.00    +0.104 C 
ATOM     13  C   UNL     1      11.180   8.151  19.588  0.00  0.00    +0.303 C 
ATOM     24  H   UNL     1       9.789   7.392  21.034  0.00  0.00    +0.150 HD
ENDBRANCH  14   6
BRANCH  14  15
ATOM     15  C   UNL     1      17.590   6.651  20.090  0.00  0.00    -0.026 A 
ATOM     16  C   UNL     1      18.761   5.908  19.931  0.00  0.00    +0.054 A 
ATOM     17  C   UNL     1      17.589   7.784  20.901  0.00  0.00    +0.054 A 
ATOM     18  C   UNL     1      18.758   8.176  21.555  0.00  0.00    +0.165 A 
ATOM     19  C   UNL     1      19.929   6.299  20.585  0.00  0.00    +0.165 A 
ATOM     20  C   UNL     1      19.928   7.433  21.396  0.00  0.00    +0.204 A 
BRANCH  18   2
ATOM      2  O   UNL     1      18.744   9.286  22.344  0.00  0.00    -0.491 OA
ATOM     21  C   UNL     1      17.989  10.403  21.878  0.00  0.00    +0.277 C 
ENDBRANCH  18   2
BRANCH  19   3
ATOM      3  O   UNL     1      21.064   5.563  20.422  0.00  0.00    -0.491 OA
ATOM     22  C   UNL     1      21.133   4.315  21.108  0.00  0.00    +0.277 C 
ENDBRANCH  19   3
BRANCH  20   4
ATOM      4  O   UNL     1      21.071   7.815  22.034  0.00  0.00    -0.488 OA
ATOM     23  C   UNL     1      21.263   7.331  23.361  0.00  0.00    +0.277 C 
ENDBRANCH  20   4
ENDBRANCH  14  15
TORSDOF 5
ENDMDL
MODEL 3
REMARK VINA RESULT:      -5.3     27.141     28.745
REMARK  Name = 75368554
REMARK  8 active torsions:
REMARK  status: ('A' for Active; 'I' for Inactive)
REMARK    1  A    between atoms: O_2  and  C_18
REMARK    2  A    between atoms: O_2  and  C_21
REMARK    3  A    between atoms: O_3  and  C_19
REMARK    4  A    between atoms: O_3  and  C_22
REMARK    5  A    between atoms: O_4  and  C_20
REMARK    6  A    between atoms: O_4  and  C_23
REMARK    7  A    between atoms: N_6  and  C_14
REMARK    8  A    between atoms: C_14  and  C_15
REMARK                            x       y       z     vdW  Elec       q    Type
REMARK                         _______ _______ _______ _____ _____    ______ ____
ROOT
ATOM     14  C   UNL     1      -2.819 -10.782  15.041  0.00  0.00    +0.120 C 
ENDROOT
BRANCH  14   6
ATOM      1  O   UNL     1      -6.571 -10.507  20.203  0.00  0.00    -0.253 OA
ATOM      5  N   UNL     1      -5.767 -10.887  18.024  0.00  0.00    -0.279 N 
ATOM      6  N   UNL     1      -3.938 -11.157  15.906  0.00  0.00    -0.295 NA
ATOM      7  N   UNL     1      -7.564  -9.567  18.295  0.00  0.00    -0.297 N 
ATOM      8  C   UNL     1      -6.203 -10.583  16.678  0.00  0.00    +0.109 C 
ATOM      9  C   UNL     1      -5.014 -10.150  15.820  0.00  0.00    +0.109 C 
ATOM     10  C   UNL     1      -4.622 -11.751  18.222  0.00  0.00    +0.125 C 
ATOM     11  C   UNL     1      -7.273  -9.513  16.881  0.00  0.00    +0.129 C 
ATOM     12  C   UNL     1      -3.477 -11.320  17.300  0.00  0.00    +0.104 C 
ATOM     13  C   UNL     1      -6.622 -10.348  18.991  0.00  0.00    +0.303 C 
ATOM     24  H   UNL     1      -8.302  -9.038  18.749  0.00  0.00    +0.150 HD
ENDBRANCH  14   6
BRANCH  14  15
ATOM     15  C   UNL     1      -3.036 -11.228  13.620  0.00  0.00    -0.026 A 
ATOM     16  C   UNL     1      -3.003 -10.296  12.583  0.00  0.00    +0.054 A 
ATOM     17  C   UNL     1      -3.267 -12.574  13.339  0.00  0.00    +0.054 A 
ATOM     18  C   UNL     1      -3.468 -12.988  12.021  0.00  0.00    +0.165 A 
ATOM     19  C   UNL     1      -3.204 -10.709  11.266  0.00  0.00    +0.165 A 
ATOM     20  C   UNL     1      -3.436 -12.055  10.986  0.00  0.00    +0.204 A 
BRANCH  18   2
ATOM      2  O   UNL     1      -3.692 -14.306  11.761  0.00  0.00    -0.491 OA
ATOM     21  C   UNL     1      -2.585 -15.193  11.905  0.00  0.00    +0.277 C 
ENDBRANCH  18   2
BRANCH  19   3
ATOM      3  O   UNL     1      -3.171  -9.786  10.264  0.00  0.00    -0.491 OA
ATOM     22  C   UNL     1      -4.204  -8.804  10.252  0.00  0.00    +0.277 C 
ENDBRANCH  19   3
BRANCH  20   4
ATOM      4  O   UNL     1      -3.630 -12.458   9.698  0.00  0.00    -0.488 OA
ATOM     23  C   UNL     1      -4.968 -12.427   9.206  0.00  0.00    +0.277 C 
ENDBRANCH  20   4
ENDBRANCH  14  15
TORSDOF 5
ENDMDL
MODEL 4
REMARK VINA RESULT:      -5.3     27.364     28.890
REMARK  Name = 75368554
REMARK  8 active torsions:
REMARK  status: ('A' for Active; 'I' for Inactive)
REMARK    1  A    between atoms: O_2  and  C_18
REMARK    2  A    between atoms: O_2  and  C_21
REMARK    3  A    between atoms: O_3  and  C_19
REMARK    4  A    between atoms: O_3  and  C_22
REMARK    5  A    between atoms: O_4  and  C_20
REMARK    6  A    between atoms: O_4  and  C_23
REMARK    7  A    between atoms: N_6  and  C_14
REMARK    8  A    between atoms: C_14  and  C_15
REMARK                            x       y       z     vdW  Elec       q    Type
REMARK                         _______ _______ _______ _____ _____    ______ ____
ROOT
ATOM     14  C   UNL     1      -3.072 -10.547  14.926  0.00  0.00    +0.120 C 
ENDROOT
BRANCH  14   6
ATOM      1  O   UNL     1      -6.429 -10.744  20.356  0.00  0.00    -0.253 OA
ATOM      5  N   UNL     1      -5.790 -10.925  18.099  0.00  0.00    -0.279 N 
ATOM      6  N   UNL     1      -4.125 -11.001  15.835  0.00  0.00    -0.295 NA
ATOM      7  N   UNL     1      -7.556  -9.638  18.620  0.00  0.00    -0.297 N 
ATOM      8  C   UNL     1      -6.323 -10.502  16.821  0.00  0.00    +0.109 C 
ATOM      9  C   UNL     1      -5.200  -9.991  15.919  0.00  0.00    +0.109 C 
ATOM     10  C   UNL     1      -4.638 -11.801  18.132  0.00  0.00    +0.125 C 
ATOM     11  C   UNL     1      -7.371  -9.457  17.198  0.00  0.00    +0.129 C 
ATOM     12  C   UNL     1      -3.563 -11.286  17.170  0.00  0.00    +0.104 C 
ATOM     13  C   UNL     1      -6.568 -10.477  19.171  0.00  0.00    +0.303 C 
ATOM     24  H   UNL     1      -8.256  -9.153  19.172  0.00  0.00    +0.150 HD
ENDBRANCH  14   6
BRANCH  14  15
ATOM     15  C   UNL     1      -3.243 -11.113  13.542  0.00  0.00    -0.026 A 
ATOM     16  C   UNL     1      -2.833 -12.417  13.265  0.00  0.00    +0.054 A 
ATOM     17  C   UNL     1      -3.814 -10.334  12.536  0.00  0.00    +0.054 A 
ATOM     18  C   UNL     1      -3.973 -10.858  11.253  0.00  0.00    +0.165 A 
ATOM     19  C   UNL     1      -2.991 -12.941  11.982  0.00  0.00    +0.165 A 
ATOM     20  C   UNL     1      -3.562 -12.162  10.977  0.00  0.00    +0.204 A 
BRANCH  18   2
ATOM      2  O   UNL     1      -4.533 -10.087  10.279  0.00  0.00    -0.491 OA
ATOM     21  C   UNL     1      -3.680  -9.151   9.623  0.00  0.00    +0.277 C 
ENDBRANCH  18   2
BRANCH  19   3
ATOM      3  O   UNL     1      -2.585 -14.216  11.726  0.00  0.00    -0.491 OA
ATOM     22  C   UNL     1      -2.104 -14.978  12.832  0.00  0.00    +0.277 C 
ENDBRANCH  19   3
BRANCH  20   4
ATOM      4  O   UNL     1      -3.719 -12.675   9.723  0.00  0.00    -0.488 OA
ATOM     23  C   UNL     1      -4.959 -13.319   9.439  0.00  0.00    +0.277 C 
ENDBRANCH  20   4
ENDBRANCH  14  15
TORSDOF 5
ENDMDL
MODEL 5
REMARK VINA RESULT:      -5.3     15.883     18.768
REMARK  Name = 75368554
REMARK  8 active torsions:
REMARK  status: ('A' for Active; 'I' for Inactive)
REMARK    1  A    between atoms: O_2  and  C_18
REMARK    2  A    between atoms: O_2  and  C_21
REMARK    3  A    between atoms: O_3  and  C_19
REMARK    4  A    between atoms: O_3  and  C_22
REMARK    5  A    between atoms: O_4  and  C_20
REMARK    6  A    between atoms: O_4  and  C_23
REMARK    7  A    between atoms: N_6  and  C_14
REMARK    8  A    between atoms: C_14  and  C_15
REMARK                            x       y       z     vdW  Elec       q    Type
REMARK                         _______ _______ _______ _____ _____    ______ ____
ROOT
ATOM     14  C   UNL     1      11.024   6.791   2.962  0.00  0.00    +0.120 C 
ENDROOT
BRANCH  14   6
ATOM      1  O   UNL     1       9.615   4.256   8.653  0.00  0.00    -0.253 OA
ATOM      5  N   UNL     1       9.471   5.405   6.604  0.00  0.00    -0.279 N 
ATOM      6  N   UNL     1      10.158   6.263   4.017  0.00  0.00    -0.295 NA
ATOM      7  N   UNL     1       9.077   6.536   8.505  0.00  0.00    -0.297 N 
ATOM      8  C   UNL     1       9.052   6.720   6.167  0.00  0.00    +0.109 C 
ATOM      9  C   UNL     1      10.008   7.255   5.101  0.00  0.00    +0.109 C 
ATOM     10  C   UNL     1       9.789   4.396   5.616  0.00  0.00    +0.125 C 
ATOM     11  C   UNL     1       9.009   7.531   7.459  0.00  0.00    +0.129 C 
ATOM     12  C   UNL     1      10.698   4.991   4.537  0.00  0.00    +0.104 C 
ATOM     13  C   UNL     1       9.411   5.266   7.995  0.00  0.00    +0.303 C 
ATOM     24  H   UNL     1       8.982   6.738   9.495  0.00  0.00    +0.150 HD
ENDBRANCH  14   6
BRANCH  14  15
ATOM     15  C   UNL     1      11.185   5.815   1.828  0.00  0.00    -0.026 A 
ATOM     16  C   UNL     1      10.218   5.745   0.825  0.00  0.00    +0.054 A 
ATOM     17  C   UNL     1      12.301   4.981   1.779  0.00  0.00    +0.054 A 
ATOM     18  C   UNL     1      12.449   4.075   0.727  0.00  0.00    +0.165 A 
ATOM     19  C   UNL     1      10.366   4.840  -0.225  0.00  0.00    +0.165 A 
ATOM     20  C   UNL     1      11.482   4.006  -0.274  0.00  0.00    +0.204 A 
BRANCH  18   2
ATOM      2  O   UNL     1      13.545   3.266   0.691  0.00  0.00    -0.491 OA
ATOM     21  C   UNL     1      14.648   3.631   1.517  0.00  0.00    +0.277 C 
ENDBRANCH  18   2
BRANCH  19   3
ATOM      3  O   UNL     1       9.412   4.782  -1.198  0.00  0.00    -0.491 OA
ATOM     22  C   UNL     1       9.368   5.863  -2.127  0.00  0.00    +0.277 C 
ENDBRANCH  19   3
BRANCH  20   4
ATOM      4  O   UNL     1      11.627   3.122  -1.303  0.00  0.00    -0.488 OA
ATOM     23  C   UNL     1      12.472   3.519  -2.381  0.00  0.00    +0.277 C 
ENDBRANCH  20   4
ENDBRANCH  14  15
TORSDOF 5
ENDMDL
MODEL 6
REMARK VINA RESULT:      -5.3     25.986     28.841
REMARK  Name = 75368554
REMARK  8 active torsions:
REMARK  status: ('A' for Active; 'I' for Inactive)
REMARK    1  A    between atoms: O_2  and  C_18
REMARK    2  A    between atoms: O_2  and  C_21
REMARK    3  A    between atoms: O_3  and  C_19
REMARK    4  A    between atoms: O_3  and  C_22
REMARK    5  A    between atoms: O_4  and  C_20
REMARK    6  A    between atoms: O_4  and  C_23
REMARK    7  A    between atoms: N_6  and  C_14
REMARK    8  A    between atoms: C_14  and  C_15
REMARK                            x       y       z     vdW  Elec       q    Type
REMARK                         _______ _______ _______ _____ _____    ______ ____
ROOT
ATOM     14  C   UNL     1      -6.396 -10.545  14.001  0.00  0.00    +0.120 C 
ENDROOT
BRANCH  14   6
ATOM      1  O   UNL     1      -8.604 -11.012  19.976  0.00  0.00    -0.253 OA
ATOM      5  N   UNL     1      -7.200 -11.042  18.088  0.00  0.00    -0.279 N 
ATOM      6  N   UNL     1      -6.314 -10.573  15.462  0.00  0.00    -0.295 NA
ATOM      7  N   UNL     1      -7.466 -12.937  19.265  0.00  0.00    -0.297 N 
ATOM      8  C   UNL     1      -6.284 -11.983  17.477  0.00  0.00    +0.109 C 
ATOM      9  C   UNL     1      -6.434 -11.959  15.957  0.00  0.00    +0.109 C 
ATOM     10  C   UNL     1      -7.271  -9.689  17.579  0.00  0.00    +0.125 C 
ATOM     11  C   UNL     1      -6.643 -13.312  18.138  0.00  0.00    +0.129 C 
ATOM     12  C   UNL     1      -7.358  -9.710  16.050  0.00  0.00    +0.104 C 
ATOM     13  C   UNL     1      -7.848 -11.583  19.204  0.00  0.00    +0.303 C 
ATOM     24  H   UNL     1      -7.801 -13.586  19.970  0.00  0.00    +0.150 HD
ENDBRANCH  14   6
BRANCH  14  15
ATOM     15  C   UNL     1      -5.034 -10.472  13.364  0.00  0.00    -0.026 A 
ATOM     16  C   UNL     1      -3.889 -10.544  14.157  0.00  0.00    +0.054 A 
ATOM     17  C   UNL     1      -4.917 -10.334  11.982  0.00  0.00    +0.054 A 
ATOM     18  C   UNL     1      -3.654 -10.266  11.392  0.00  0.00    +0.165 A 
ATOM     19  C   UNL     1      -2.626 -10.475  13.568  0.00  0.00    +0.165 A 
ATOM     20  C   UNL     1      -2.509 -10.337  12.186  0.00  0.00    +0.204 A 
BRANCH  18   2
ATOM      2  O   UNL     1      -3.553 -10.132  10.040  0.00  0.00    -0.491 OA
ATOM     21  C   UNL     1      -4.076  -8.936   9.466  0.00  0.00    +0.277 C 
ENDBRANCH  18   2
BRANCH  19   3
ATOM      3  O   UNL     1      -1.516 -10.545  14.355  0.00  0.00    -0.491 OA
ATOM     22  C   UNL     1      -1.721 -10.790  15.745  0.00  0.00    +0.277 C 
ENDBRANCH  19   3
BRANCH  20   4
ATOM      4  O   UNL     1      -1.275 -10.272  11.609  0.00  0.00    -0.488 OA
ATOM     23  C   UNL     1      -0.750  -8.972  11.352  0.00  0.00    +0.277 C 
ENDBRANCH  20   4
ENDBRANCH  14  15
TORSDOF 5
ENDMDL
MODEL 7
REMARK VINA RESULT:      -5.2     27.235     28.840
REMARK  Name = 75368554
REMARK  8 active torsions:
REMARK  status: ('A' for Active; 'I' for Inactive)
REMARK    1  A    between atoms: O_2  and  C_18
REMARK    2  A    between atoms: O_2  and  C_21
REMARK    3  A    between atoms: O_3  and  C_19
REMARK    4  A    between atoms: O_3  and  C_22
REMARK    5  A    between atoms: O_4  and  C_20
REMARK    6  A    between atoms: O_4  and  C_23
REMARK    7  A    between atoms: N_6  and  C_14
REMARK    8  A    between atoms: C_14  and  C_15
REMARK                            x       y       z     vdW  Elec       q    Type
REMARK                         _______ _______ _______ _____ _____    ______ ____
ROOT
ATOM     14  C   UNL     1      -6.632 -10.047  14.041  0.00  0.00    +0.120 C 
ENDROOT
BRANCH  14   6
ATOM      1  O   UNL     1      -4.081 -12.000  19.561  0.00  0.00    -0.253 OA
ATOM      5  N   UNL     1      -4.521 -11.696  17.269  0.00  0.00    -0.279 N 
ATOM      6  N   UNL     1      -5.592 -10.576  14.924  0.00  0.00    -0.295 NA
ATOM      7  N   UNL     1      -4.618 -13.773  18.120  0.00  0.00    -0.297 N 
ATOM      8  C   UNL     1      -4.743 -12.551  16.122  0.00  0.00    +0.109 C 
ATOM      9  C   UNL     1      -5.868 -11.990  15.252  0.00  0.00    +0.109 C 
ATOM     10  C   UNL     1      -4.385 -10.268  17.075  0.00  0.00    +0.125 C 
ATOM     11  C   UNL     1      -5.030 -13.916  16.742  0.00  0.00    +0.129 C 
ATOM     12  C   UNL     1      -5.494  -9.759  16.150  0.00  0.00    +0.104 C 
ATOM     13  C   UNL     1      -4.367 -12.428  18.452  0.00  0.00    +0.303 C 
ATOM     24  H   UNL     1      -4.595 -14.533  18.792  0.00  0.00    +0.150 HD
ENDBRANCH  14   6
BRANCH  14  15
ATOM     15  C   UNL     1      -6.107  -9.774  12.657  0.00  0.00    -0.026 A 
ATOM     16  C   UNL     1      -4.811 -10.158  12.314  0.00  0.00    +0.054 A 
ATOM     17  C   UNL     1      -6.917  -9.139  11.717  0.00  0.00    +0.054 A 
ATOM     18  C   UNL     1      -6.431  -8.886  10.433  0.00  0.00    +0.165 A 
ATOM     19  C   UNL     1      -4.324  -9.905  11.032  0.00  0.00    +0.165 A 
ATOM     20  C   UNL     1      -5.134  -9.269  10.092  0.00  0.00    +0.204 A 
BRANCH  18   2
ATOM      2  O   UNL     1      -7.233  -8.266   9.524  0.00  0.00    -0.491 OA
ATOM     21  C   UNL     1      -8.552  -8.782   9.365  0.00  0.00    +0.277 C 
ENDBRANCH  18   2
BRANCH  19   3
ATOM      3  O   UNL     1      -3.055 -10.284  10.711  0.00  0.00    -0.491 OA
ATOM     22  C   UNL     1      -2.102 -10.322  11.772  0.00  0.00    +0.277 C 
ENDBRANCH  19   3
BRANCH  20   4
ATOM      4  O   UNL     1      -4.659  -9.024   8.837  0.00  0.00    -0.488 OA
ATOM     23  C   UNL     1      -4.977  -9.978   7.827  0.00  0.00    +0.277 C 
ENDBRANCH  20   4
ENDBRANCH  14  15
TORSDOF 5
ENDMDL
MODEL 8
REMARK VINA RESULT:      -5.2     14.794     17.311
REMARK  Name = 75368554
REMARK  8 active torsions:
REMARK  status: ('A' for Active; 'I' for Inactive)
REMARK    1  A    between atoms: O_2  and  C_18
REMARK    2  A    between atoms: O_2  and  C_21
REMARK    3  A    between atoms: O_3  and  C_19
REMARK    4  A    between atoms: O_3  and  C_22
REMARK    5  A    between atoms: O_4  and  C_20
REMARK    6  A    between atoms: O_4  and  C_23
REMARK    7  A    between atoms: N_6  and  C_14
REMARK    8  A    between atoms: C_14  and  C_15
REMARK                            x       y       z     vdW  Elec       q    Type
REMARK                         _______ _______ _______ _____ _____    ______ ____
ROOT
ATOM     14  C   UNL     1      10.442   5.438   2.467  0.00  0.00    +0.120 C 
ENDROOT
BRANCH  14   6
ATOM      1  O   UNL     1      16.105   3.823  -0.008  0.00  0.00    -0.253 OA
ATOM      5  N   UNL     1      14.427   4.642   1.425  0.00  0.00    -0.279 N 
ATOM      6  N   UNL     1      11.862   5.086   2.487  0.00  0.00    -0.295 NA
ATOM      7  N   UNL     1      16.020   6.056   0.711  0.00  0.00    -0.297 N 
ATOM      8  C   UNL     1      14.166   5.876   2.136  0.00  0.00    +0.109 C 
ATOM      9  C   UNL     1      12.682   6.234   2.051  0.00  0.00    +0.109 C 
ATOM     10  C   UNL     1      13.584   3.490   1.668  0.00  0.00    +0.125 C 
ATOM     11  C   UNL     1      15.108   6.878   1.474  0.00  0.00    +0.129 C 
ATOM     12  C   UNL     1      12.110   3.905   1.634  0.00  0.00    +0.104 C 
ATOM     13  C   UNL     1      15.578   4.721   0.635  0.00  0.00    +0.303 C 
ATOM     24  H   UNL     1      16.834   6.409   0.217  0.00  0.00    +0.150 HD
ENDBRANCH  14   6
BRANCH  14  15
ATOM     15  C   UNL     1       9.994   6.035   3.774  0.00  0.00    -0.026 A 
ATOM     16  C   UNL     1       9.087   7.095   3.782  0.00  0.00    +0.054 A 
ATOM     17  C   UNL     1      10.483   5.527   4.976  0.00  0.00    +0.054 A 
ATOM     18  C   UNL     1      10.068   6.080   6.188  0.00  0.00    +0.165 A 
ATOM     19  C   UNL     1       8.673   7.648   4.993  0.00  0.00    +0.165 A 
ATOM     20  C   UNL     1       9.162   7.140   6.196  0.00  0.00    +0.204 A 
BRANCH  18   2
ATOM      2  O   UNL     1      10.553   5.574   7.356  0.00  0.00    -0.491 OA
ATOM     21  C   UNL     1       9.847   4.476   7.929  0.00  0.00    +0.277 C 
ENDBRANCH  18   2
BRANCH  19   3
ATOM      3  O   UNL     1       7.787   8.685   4.986  0.00  0.00    -0.491 OA
ATOM     22  C   UNL     1       8.235   9.916   4.424  0.00  0.00    +0.277 C 
ENDBRANCH  19   3
BRANCH  20   4
ATOM      4  O   UNL     1       8.755   7.681   7.380  0.00  0.00    -0.488 OA
ATOM     23  C   UNL     1       9.496   8.795   7.871  0.00  0.00    +0.277 C 
ENDBRANCH  20   4
ENDBRANCH  14  15
TORSDOF 5
ENDMDL
MODEL 9
REMARK VINA RESULT:      -5.2     15.896     18.804
REMARK  Name = 75368554
REMARK  8 active torsions:
REMARK  status: ('A' for Active; 'I' for Inactive)
REMARK    1  A    between atoms: O_2  and  C_18
REMARK    2  A    between atoms: O_2  and  C_21
REMARK    3  A    between atoms: O_3  and  C_19
REMARK    4  A    between atoms: O_3  and  C_22
REMARK    5  A    between atoms: O_4  and  C_20
REMARK    6  A    between atoms: O_4  and  C_23
REMARK    7  A    between atoms: N_6  and  C_14
REMARK    8  A    between atoms: C_14  and  C_15
REMARK                            x       y       z     vdW  Elec       q    Type
REMARK                         _______ _______ _______ _____ _____    ______ ____
ROOT
ATOM     14  C   UNL     1      11.070   6.987   2.925  0.00  0.00    +0.120 C 
ENDROOT
BRANCH  14   6
ATOM      1  O   UNL     1       9.602   4.410   8.582  0.00  0.00    -0.253 OA
ATOM      5  N   UNL     1       9.474   5.557   6.531  0.00  0.00    -0.279 N 
ATOM      6  N   UNL     1      10.195   6.436   3.960  0.00  0.00    -0.295 NA
ATOM      7  N   UNL     1       9.011   6.675   8.424  0.00  0.00    -0.297 N 
ATOM      8  C   UNL     1       9.031   6.862   6.086  0.00  0.00    +0.109 C 
ATOM      9  C   UNL     1       9.996   7.422   5.042  0.00  0.00    +0.109 C 
ATOM     10  C   UNL     1       9.839   4.558   5.550  0.00  0.00    +0.125 C 
ATOM     11  C   UNL     1       8.940   7.670   7.378  0.00  0.00    +0.129 C 
ATOM     12  C   UNL     1      10.755   5.177   4.490  0.00  0.00    +0.104 C 
ATOM     13  C   UNL     1       9.388   5.415   7.920  0.00  0.00    +0.303 C 
ATOM     24  H   UNL     1       8.889   6.874   9.412  0.00  0.00    +0.150 HD
ENDBRANCH  14   6
BRANCH  14  15
ATOM     15  C   UNL     1      11.258   6.027   1.781  0.00  0.00    -0.026 A 
ATOM     16  C   UNL     1      12.476   5.369   1.616  0.00  0.00    +0.054 A 
ATOM     17  C   UNL     1      10.213   5.795   0.887  0.00  0.00    +0.054 A 
ATOM     18  C   UNL     1      10.388   4.905  -0.174  0.00  0.00    +0.165 A 
ATOM     19  C   UNL     1      12.651   4.480   0.556  0.00  0.00    +0.165 A 
ATOM     20  C   UNL     1      11.607   4.248  -0.339  0.00  0.00    +0.204 A 
BRANCH  18   2
ATOM      2  O   UNL     1       9.359   4.686  -1.040  0.00  0.00    -0.491 OA
ATOM     21  C   UNL     1       9.082   5.712  -1.990  0.00  0.00    +0.277 C 
ENDBRANCH  18   2
BRANCH  19   3
ATOM      3  O   UNL     1      13.847   3.844   0.406  0.00  0.00    -0.491 OA
ATOM     22  C   UNL     1      14.566   3.526   1.596  0.00  0.00    +0.277 C 
ENDBRANCH  19   3
BRANCH  20   4
ATOM      4  O   UNL     1      11.777   3.377  -1.374  0.00  0.00    -0.488 OA
ATOM     23  C   UNL     1      12.315   3.908  -2.583  0.00  0.00    +0.277 C 
ENDBRANCH  20   4
ENDBRANCH  14  15
TORSDOF 5
ENDMDL
MODEL 10
REMARK VINA RESULT:      -5.2     30.825     32.562
REMARK  Name = 75368554
REMARK  8 active torsions:
REMARK  status: ('A' for Active; 'I' for Inactive)
REMARK    1  A    between atoms: O_2  and  C_18
REMARK    2  A    between atoms: O_2  and  C_21
REMARK    3  A    between atoms: O_3  and  C_19
REMARK    4  A    between atoms: O_3  and  C_22
REMARK    5  A    between atoms: O_4  and  C_20
REMARK    6  A    between atoms: O_4  and  C_23
REMARK    7  A    between atoms: N_6  and  C_14
REMARK    8  A    between atoms: C_14  and  C_15
REMARK                            x       y       z     vdW  Elec       q    Type
REMARK                         _______ _______ _______ _____ _____    ______ ____
ROOT
ATOM     14  C   UNL     1     -14.819   5.833  33.005  0.00  0.00    +0.120 C 
ENDROOT
BRANCH  14   6
ATOM      1  O   UNL     1     -14.304  -0.103  30.706  0.00  0.00    -0.253 OA
ATOM      5  N   UNL     1     -14.178   2.234  30.949  0.00  0.00    -0.279 N 
ATOM      6  N   UNL     1     -14.264   4.758  32.183  0.00  0.00    -0.295 NA
ATOM      7  N   UNL     1     -15.277   1.390  29.180  0.00  0.00    -0.297 N 
ATOM      8  C   UNL     1     -14.536   3.391  30.156  0.00  0.00    +0.109 C 
ATOM      9  C   UNL     1     -15.156   4.471  31.042  0.00  0.00    +0.109 C 
ATOM     10  C   UNL     1     -13.426   2.417  32.173  0.00  0.00    +0.125 C 
ATOM     11  C   UNL     1     -15.468   2.820  29.090  0.00  0.00    +0.129 C 
ATOM     12  C   UNL     1     -14.045   3.547  33.001  0.00  0.00    +0.104 C 
ATOM     13  C   UNL     1     -14.548   1.034  30.331  0.00  0.00    +0.303 C 
ATOM     24  H   UNL     1     -15.689   0.716  28.543  0.00  0.00    +0.150 HD
ENDBRANCH  14   6
BRANCH  14  15
ATOM     15  C   UNL     1     -13.802   6.906  33.287  0.00  0.00    -0.026 A 
ATOM     16  C   UNL     1     -13.099   7.494  32.235  0.00  0.00    +0.054 A 
ATOM     17  C   UNL     1     -13.564   7.314  34.599  0.00  0.00    +0.054 A 
ATOM     18  C   UNL     1     -12.621   8.309  34.859  0.00  0.00    +0.165 A 
ATOM     19  C   UNL     1     -12.156   8.488  32.496  0.00  0.00    +0.165 A 
ATOM     20  C   UNL     1     -11.918   8.896  33.808  0.00  0.00    +0.204 A 
BRANCH  18   2
ATOM      2  O   UNL     1     -12.398   8.700  36.146  0.00  0.00    -0.491 OA
ATOM     21  C   UNL     1     -11.619   7.829  36.962  0.00  0.00    +0.277 C 
ENDBRANCH  18   2
BRANCH  19   3
ATOM      3  O   UNL     1     -11.475   9.053  31.459  0.00  0.00    -0.491 OA
ATOM     22  C   UNL     1     -12.216   9.899  30.582  0.00  0.00    +0.277 C 
ENDBRANCH  19   3
BRANCH  20   4
ATOM      4  O   UNL     1     -10.997   9.870  34.062  0.00  0.00    -0.488 OA
ATOM     23  C   UNL     1     -11.463  11.217  34.056  0.00  0.00    +0.277 C 
ENDBRANCH  20   4
ENDBRANCH  14  15
TORSDOF 5
ENDMDL
