MODEL 1
REMARK VINA RESULT:      -7.2      0.000      0.000
REMARK  Name = 71693286
REMARK  9 active torsions:
REMARK  status: ('A' for Active; 'I' for Inactive)
REMARK    1  A    between atoms: S_1  and  N_8
REMARK    2  A    between atoms: S_1  and  C_24
REMARK    3  A    between atoms: O_3  and  C_11
REMARK    4  A    between atoms: N_7  and  C_13
REMARK    5  A    between atoms: N_8  and  C_19
REMARK    6  A    between atoms: C_9  and  C_11
REMARK    7  A    between atoms: C_10  and  C_12
REMARK    8  A    between atoms: C_13  and  C_18
REMARK    9  A    between atoms: C_24  and  C_28
REMARK                            x       y       z     vdW  Elec       q    Type
REMARK                         _______ _______ _______ _____ _____    ______ ____
ROOT
ATOM     12  C   UNL     1      14.456   6.779  19.915  0.00  0.00    -0.017 A 
ATOM     16  C   UNL     1      15.261   6.598  18.789  0.00  0.00    +0.008 A 
ATOM     17  C   UNL     1      15.022   6.751  21.189  0.00  0.00    +0.008 A 
ATOM     19  C   UNL     1      17.198   6.360  20.214  0.00  0.00    +0.048 A 
ATOM     20  C   UNL     1      16.631   6.389  18.939  0.00  0.00    +0.025 A 
ATOM     21  C   UNL     1      16.393   6.542  21.339  0.00  0.00    +0.025 A 
ENDROOT
BRANCH  12  10
ATOM      2  O   UNL     1      12.350   6.680  21.003  0.00  0.00    -0.361 OA
ATOM      4  O   UNL     1      10.741   9.460  22.182  0.00  0.00    -0.273 OA
ATOM      7  N   UNL     1      12.181   9.303  20.353  0.00  0.00    -0.287 N 
ATOM      9  C   UNL     1      12.667   8.449  19.263  0.00  0.00    +0.135 C 
ATOM     10  C   UNL     1      12.965   7.006  19.751  0.00  0.00    +0.171 C 
ATOM     14  C   UNL     1      11.312   8.799  21.317  0.00  0.00    +0.242 C 
ATOM     15  C   UNL     1      11.101   7.308  21.205  0.00  0.00    +0.256 C 
BRANCH   9  11
ATOM     11  C   UNL     1      11.671   8.443  18.095  0.00  0.00    +0.181 C 
BRANCH  11   3
ATOM      3  O   UNL     1      11.716   7.170  17.483  0.00  0.00    -0.393 OA
ATOM     34  H   UNL     1      11.574   7.302  16.531  0.00  0.00    +0.209 HD
ENDBRANCH  11   3
ENDBRANCH   9  11
BRANCH   7  13
ATOM     13  C   UNL     1      12.524  10.717  20.318  0.00  0.00    +0.143 C 
BRANCH  13  18
ATOM     18  C   UNL     1      14.006  10.933  20.217  0.00  0.00    -0.030 A 
ATOM     22  C   UNL     1      14.852  10.444  21.212  0.00  0.00    +0.005 A 
ATOM     23  C   UNL     1      14.538  11.622  19.125  0.00  0.00    +0.005 A 
ATOM     25  C   UNL     1      16.229  10.645  21.118  0.00  0.00    +0.000 A 
ATOM     26  C   UNL     1      15.915  11.822  19.032  0.00  0.00    +0.000 A 
ATOM     27  C   UNL     1      16.761  11.334  20.028  0.00  0.00    +0.000 A 
ENDBRANCH  13  18
ENDBRANCH   7  13
ENDBRANCH  12  10
BRANCH  19   8
ATOM      8  N   UNL     1      18.601   6.146  20.367  0.00  0.00    -0.220 N 
ATOM     35  H   UNL     1      18.870   5.153  20.397  0.00  0.00    +0.173 HD
BRANCH   8   1
ATOM      1  S   UNL     1      19.468   7.169  21.448  0.00  0.00    +0.047 S 
ATOM      5  O   UNL     1      19.117   8.547  21.156  0.00  0.00    -0.155 OA
ATOM      6  O   UNL     1      19.401   6.664  22.805  0.00  0.00    -0.155 OA
BRANCH   1  24
ATOM     24  C   UNL     1      21.125   6.922  20.854  0.00  0.00    +0.223 C 
BRANCH  24  28
ATOM     28  C   UNL     1      21.626   5.632  21.425  0.00  0.00    -0.025 A 
ATOM     29  C   UNL     1      22.412   5.638  22.578  0.00  0.00    +0.005 A 
ATOM     30  C   UNL     1      21.307   4.424  20.805  0.00  0.00    +0.005 A 
ATOM     31  C   UNL     1      22.878   4.435  23.111  0.00  0.00    +0.000 A 
ATOM     32  C   UNL     1      21.773   3.221  21.337  0.00  0.00    +0.000 A 
ATOM     33  C   UNL     1      22.559   3.228  22.490  0.00  0.00    +0.000 A 
ENDBRANCH  24  28
ENDBRANCH   1  24
ENDBRANCH   8   1
ENDBRANCH  19   8
TORSDOF 9
ENDMDL
MODEL 2
REMARK VINA RESULT:      -6.9     14.125     16.028
REMARK  Name = 71693286
REMARK  9 active torsions:
REMARK  status: ('A' for Active; 'I' for Inactive)
REMARK    1  A    between atoms: S_1  and  N_8
REMARK    2  A    between atoms: S_1  and  C_24
REMARK    3  A    between atoms: O_3  and  C_11
REMARK    4  A    between atoms: N_7  and  C_13
REMARK    5  A    between atoms: N_8  and  C_19
REMARK    6  A    between atoms: C_9  and  C_11
REMARK    7  A    between atoms: C_10  and  C_12
REMARK    8  A    between atoms: C_13  and  C_18
REMARK    9  A    between atoms: C_24  and  C_28
REMARK                            x       y       z     vdW  Elec       q    Type
REMARK                         _______ _______ _______ _____ _____    ______ ____
ROOT
ATOM     12  C   UNL     1      12.163   7.802   7.168  0.00  0.00    -0.017 A 
ATOM     16  C   UNL     1      12.432   9.155   6.958  0.00  0.00    +0.008 A 
ATOM     17  C   UNL     1      13.170   6.854   6.990  0.00  0.00    +0.008 A 
ATOM     19  C   UNL     1      14.717   8.610   6.389  0.00  0.00    +0.048 A 
ATOM     20  C   UNL     1      13.709   9.559   6.568  0.00  0.00    +0.025 A 
ATOM     21  C   UNL     1      14.447   7.258   6.601  0.00  0.00    +0.025 A 
ENDROOT
BRANCH  12  10
ATOM      2  O   UNL     1       9.845   8.284   7.006  0.00  0.00    -0.361 OA
ATOM      4  O   UNL     1       7.729   6.542   4.958  0.00  0.00    -0.273 OA
ATOM      7  N   UNL     1       9.654   5.768   6.026  0.00  0.00    -0.287 N 
ATOM      9  C   UNL     1      10.511   5.883   7.211  0.00  0.00    +0.135 C 
ATOM     10  C   UNL     1      10.773   7.364   7.592  0.00  0.00    +0.171 C 
ATOM     14  C   UNL     1       8.584   6.640   5.836  0.00  0.00    +0.242 C 
ATOM     15  C   UNL     1       8.544   7.758   6.849  0.00  0.00    +0.256 C 
BRANCH   9  11
ATOM     11  C   UNL     1       9.911   5.105   8.390  0.00  0.00    +0.181 C 
BRANCH  11   3
ATOM      3  O   UNL     1      10.496   3.820   8.415  0.00  0.00    -0.393 OA
ATOM     34  H   UNL     1       9.814   3.198   8.717  0.00  0.00    +0.209 HD
ENDBRANCH  11   3
ENDBRANCH   9  11
BRANCH   7  13
ATOM     13  C   UNL     1       9.870   4.640   5.131  0.00  0.00    +0.143 C 
BRANCH  13  18
ATOM     18  C   UNL     1      10.818   4.981   4.019  0.00  0.00    -0.030 A 
ATOM     22  C   UNL     1      11.102   4.038   3.031  0.00  0.00    +0.005 A 
ATOM     23  C   UNL     1      11.416   6.241   3.972  0.00  0.00    +0.005 A 
ATOM     25  C   UNL     1      11.984   4.354   1.997  0.00  0.00    +0.000 A 
ATOM     26  C   UNL     1      12.297   6.557   2.937  0.00  0.00    +0.000 A 
ATOM     27  C   UNL     1      12.581   5.613   1.950  0.00  0.00    +0.000 A 
ENDBRANCH  13  18
ENDBRANCH   7  13
ENDBRANCH  12  10
BRANCH  19   8
ATOM      8  N   UNL     1      16.023   9.023   5.990  0.00  0.00    -0.220 N 
ATOM     35  H   UNL     1      16.352   9.877   6.461  0.00  0.00    +0.173 HD
BRANCH   8   1
ATOM      1  S   UNL     1      16.444   8.900   4.324  0.00  0.00    +0.047 S 
ATOM      5  O   UNL     1      16.794   7.521   4.039  0.00  0.00    -0.155 OA
ATOM      6  O   UNL     1      15.484   9.604   3.495  0.00  0.00    -0.155 OA
BRANCH   1  24
ATOM     24  C   UNL     1      17.959   9.830   4.313  0.00  0.00    +0.223 C 
BRANCH  24  28
ATOM     28  C   UNL     1      19.039   8.948   4.858  0.00  0.00    -0.025 A 
ATOM     29  C   UNL     1      19.748   8.103   4.003  0.00  0.00    +0.005 A 
ATOM     30  C   UNL     1      19.338   8.971   6.220  0.00  0.00    +0.005 A 
ATOM     31  C   UNL     1      20.755   7.282   4.511  0.00  0.00    +0.000 A 
ATOM     32  C   UNL     1      20.345   8.150   6.728  0.00  0.00    +0.000 A 
ATOM     33  C   UNL     1      21.052   7.305   5.873  0.00  0.00    +0.000 A 
ENDBRANCH  24  28
ENDBRANCH   1  24
ENDBRANCH   8   1
ENDBRANCH  19   8
TORSDOF 9
ENDMDL
MODEL 3
REMARK VINA RESULT:      -6.8     15.938     18.989
REMARK  Name = 71693286
REMARK  9 active torsions:
REMARK  status: ('A' for Active; 'I' for Inactive)
REMARK    1  A    between atoms: S_1  and  N_8
REMARK    2  A    between atoms: S_1  and  C_24
REMARK    3  A    between atoms: O_3  and  C_11
REMARK    4  A    between atoms: N_7  and  C_13
REMARK    5  A    between atoms: N_8  and  C_19
REMARK    6  A    between atoms: C_9  and  C_11
REMARK    7  A    between atoms: C_10  and  C_12
REMARK    8  A    between atoms: C_13  and  C_18
REMARK    9  A    between atoms: C_24  and  C_28
REMARK                            x       y       z     vdW  Elec       q    Type
REMARK                         _______ _______ _______ _____ _____    ______ ____
ROOT
ATOM     12  C   UNL     1      10.740   5.618   4.201  0.00  0.00    -0.017 A 
ATOM     16  C   UNL     1      10.318   6.688   3.411  0.00  0.00    +0.008 A 
ATOM     17  C   UNL     1      10.855   4.344   3.646  0.00  0.00    +0.008 A 
ATOM     19  C   UNL     1      10.125   5.208   1.511  0.00  0.00    +0.048 A 
ATOM     20  C   UNL     1      10.011   6.483   2.066  0.00  0.00    +0.025 A 
ATOM     21  C   UNL     1      10.548   4.139   2.301  0.00  0.00    +0.025 A 
ENDROOT
BRANCH  12  10
ATOM      2  O   UNL     1      12.301   6.578   5.707  0.00  0.00    -0.361 OA
ATOM      4  O   UNL     1      11.738   9.543   7.321  0.00  0.00    -0.273 OA
ATOM      7  N   UNL     1      10.166   7.960   6.634  0.00  0.00    -0.287 N 
ATOM      9  C   UNL     1       9.901   6.536   6.407  0.00  0.00    +0.135 C 
ATOM     10  C   UNL     1      11.073   5.843   5.664  0.00  0.00    +0.171 C 
ATOM     14  C   UNL     1      11.442   8.400   6.976  0.00  0.00    +0.242 C 
ATOM     15  C   UNL     1      12.484   7.311   6.902  0.00  0.00    +0.256 C 
BRANCH   9  11
ATOM     11  C   UNL     1       9.588   5.825   7.732  0.00  0.00    +0.181 C 
BRANCH  11   3
ATOM      3  O   UNL     1      10.628   4.906   7.995  0.00  0.00    -0.393 OA
ATOM     34  H   UNL     1      10.700   4.822   8.961  0.00  0.00    +0.209 HD
ENDBRANCH  11   3
ENDBRANCH   9  11
BRANCH   7  13
ATOM     13  C   UNL     1       9.035   8.877   6.625  0.00  0.00    +0.143 C 
BRANCH  13  18
ATOM     18  C   UNL     1       8.678   9.315   5.235  0.00  0.00    -0.030 A 
ATOM     22  C   UNL     1       9.481  10.238   4.567  0.00  0.00    +0.005 A 
ATOM     23  C   UNL     1       7.543   8.796   4.610  0.00  0.00    +0.005 A 
ATOM     25  C   UNL     1       9.149  10.646   3.274  0.00  0.00    +0.000 A 
ATOM     26  C   UNL     1       7.211   9.204   3.317  0.00  0.00    +0.000 A 
ATOM     27  C   UNL     1       8.015  10.128   2.650  0.00  0.00    +0.000 A 
ENDBRANCH  13  18
ENDBRANCH   7  13
ENDBRANCH  12  10
BRANCH  19   8
ATOM      8  N   UNL     1       9.811   4.997   0.135  0.00  0.00    -0.220 N 
ATOM     35  H   UNL     1       9.188   4.195  -0.033  0.00  0.00    +0.173 HD
BRANCH   8   1
ATOM      1  S   UNL     1      11.065   5.202  -1.028  0.00  0.00    +0.047 S 
ATOM      5  O   UNL     1      10.457   5.370  -2.335  0.00  0.00    -0.155 OA
ATOM      6  O   UNL     1      12.062   6.142  -0.553  0.00  0.00    -0.155 OA
BRANCH   1  24
ATOM     24  C   UNL     1      11.788   3.578  -1.000  0.00  0.00    +0.223 C 
BRANCH  24  28
ATOM     28  C   UNL     1      13.187   3.710  -0.484  0.00  0.00    -0.025 A 
ATOM     29  C   UNL     1      14.216   4.090  -1.347  0.00  0.00    +0.005 A 
ATOM     30  C   UNL     1      13.462   3.454   0.859  0.00  0.00    +0.005 A 
ATOM     31  C   UNL     1      15.520   4.214  -0.866  0.00  0.00    +0.000 A 
ATOM     32  C   UNL     1      14.766   3.578   1.340  0.00  0.00    +0.000 A 
ATOM     33  C   UNL     1      15.794   3.957   0.477  0.00  0.00    +0.000 A 
ENDBRANCH  24  28
ENDBRANCH   1  24
ENDBRANCH   8   1
ENDBRANCH  19   8
TORSDOF 9
ENDMDL
MODEL 4
REMARK VINA RESULT:      -6.8     27.555     30.113
REMARK  Name = 71693286
REMARK  9 active torsions:
REMARK  status: ('A' for Active; 'I' for Inactive)
REMARK    1  A    between atoms: S_1  and  N_8
REMARK    2  A    between atoms: S_1  and  C_24
REMARK    3  A    between atoms: O_3  and  C_11
REMARK    4  A    between atoms: N_7  and  C_13
REMARK    5  A    between atoms: N_8  and  C_19
REMARK    6  A    between atoms: C_9  and  C_11
REMARK    7  A    between atoms: C_10  and  C_12
REMARK    8  A    between atoms: C_13  and  C_18
REMARK    9  A    between atoms: C_24  and  C_28
REMARK                            x       y       z     vdW  Elec       q    Type
REMARK                         _______ _______ _______ _____ _____    ______ ____
ROOT
ATOM     12  C   UNL     1      -7.628 -10.079  15.178  0.00  0.00    -0.017 A 
ATOM     16  C   UNL     1      -7.341 -10.318  13.833  0.00  0.00    +0.008 A 
ATOM     17  C   UNL     1      -6.589  -9.919  16.095  0.00  0.00    +0.008 A 
ATOM     19  C   UNL     1      -4.977 -10.238  14.324  0.00  0.00    +0.048 A 
ATOM     20  C   UNL     1      -6.016 -10.396  13.406  0.00  0.00    +0.025 A 
ATOM     21  C   UNL     1      -5.264  -9.998  15.668  0.00  0.00    +0.025 A 
ENDROOT
BRANCH  12  10
ATOM      2  O   UNL     1      -9.776 -11.075  15.021  0.00  0.00    -0.361 OA
ATOM      4  O   UNL     1     -11.074 -13.078  17.473  0.00  0.00    -0.273 OA
ATOM      7  N   UNL     1      -9.585 -11.296  17.712  0.00  0.00    -0.287 N 
ATOM      9  C   UNL     1      -9.163  -9.992  17.190  0.00  0.00    +0.135 C 
ATOM     10  C   UNL     1      -9.070  -9.994  15.641  0.00  0.00    +0.171 C 
ATOM     14  C   UNL     1     -10.552 -12.048  17.050  0.00  0.00    +0.242 C 
ATOM     15  C   UNL     1     -10.944 -11.464  15.714  0.00  0.00    +0.256 C 
BRANCH   9  11
ATOM     11  C   UNL     1     -10.098  -8.881  17.688  0.00  0.00    +0.181 C 
BRANCH  11   3
ATOM      3  O   UNL     1      -9.351  -7.687  17.785  0.00  0.00    -0.393 OA
ATOM     34  H   UNL     1      -8.658  -7.833  18.450  0.00  0.00    +0.209 HD
ENDBRANCH  11   3
ENDBRANCH   9  11
BRANCH   7  13
ATOM     13  C   UNL     1      -9.066 -11.716  19.006  0.00  0.00    +0.143 C 
BRANCH  13  18
ATOM     18  C   UNL     1      -7.571 -11.851  18.994  0.00  0.00    -0.030 A 
ATOM     22  C   UNL     1      -6.786 -10.987  19.756  0.00  0.00    +0.005 A 
ATOM     23  C   UNL     1      -6.966 -12.843  18.220  0.00  0.00    +0.005 A 
ATOM     25  C   UNL     1      -5.396 -11.112  19.744  0.00  0.00    +0.000 A 
ATOM     26  C   UNL     1      -5.577 -12.968  18.209  0.00  0.00    +0.000 A 
ATOM     27  C   UNL     1      -4.792 -12.102  18.971  0.00  0.00    +0.000 A 
ENDBRANCH  13  18
ENDBRANCH   7  13
ENDBRANCH  12  10
BRANCH  19   8
ATOM      8  N   UNL     1      -3.620 -10.318  13.887  0.00  0.00    -0.220 N 
ATOM     35  H   UNL     1      -3.459  -9.921  12.952  0.00  0.00    +0.173 HD
BRANCH   8   1
ATOM      1  S   UNL     1      -2.739 -11.758  14.230  0.00  0.00    +0.047 S 
ATOM      5  O   UNL     1      -1.774 -11.467  15.275  0.00  0.00    -0.155 OA
ATOM      6  O   UNL     1      -3.630 -12.896  14.344  0.00  0.00    -0.155 OA
BRANCH   1  24
ATOM     24  C   UNL     1      -1.821 -11.932  12.716  0.00  0.00    +0.223 C 
BRANCH  24  28
ATOM     28  C   UNL     1      -2.589 -11.237  11.635  0.00  0.00    -0.025 A 
ATOM     29  C   UNL     1      -3.626 -11.901  10.978  0.00  0.00    +0.005 A 
ATOM     30  C   UNL     1      -2.268  -9.926  11.285  0.00  0.00    +0.005 A 
ATOM     31  C   UNL     1      -4.341 -11.252   9.971  0.00  0.00    +0.000 A 
ATOM     32  C   UNL     1      -2.983  -9.277  10.278  0.00  0.00    +0.000 A 
ATOM     33  C   UNL     1      -4.019  -9.941   9.622  0.00  0.00    +0.000 A 
ENDBRANCH  24  28
ENDBRANCH   1  24
ENDBRANCH   8   1
ENDBRANCH  19   8
TORSDOF 9
ENDMDL
MODEL 5
REMARK VINA RESULT:      -6.7      1.464      2.303
REMARK  Name = 71693286
REMARK  9 active torsions:
REMARK  status: ('A' for Active; 'I' for Inactive)
REMARK    1  A    between atoms: S_1  and  N_8
REMARK    2  A    between atoms: S_1  and  C_24
REMARK    3  A    between atoms: O_3  and  C_11
REMARK    4  A    between atoms: N_7  and  C_13
REMARK    5  A    between atoms: N_8  and  C_19
REMARK    6  A    between atoms: C_9  and  C_11
REMARK    7  A    between atoms: C_10  and  C_12
REMARK    8  A    between atoms: C_13  and  C_18
REMARK    9  A    between atoms: C_24  and  C_28
REMARK                            x       y       z     vdW  Elec       q    Type
REMARK                         _______ _______ _______ _____ _____    ______ ____
ROOT
ATOM     12  C   UNL     1      14.831   6.683  19.904  0.00  0.00    -0.017 A 
ATOM     16  C   UNL     1      15.586   6.481  18.748  0.00  0.00    +0.008 A 
ATOM     17  C   UNL     1      15.449   6.651  21.155  0.00  0.00    +0.008 A 
ATOM     19  C   UNL     1      17.575   6.214  20.093  0.00  0.00    +0.048 A 
ATOM     20  C   UNL     1      16.957   6.248  18.842  0.00  0.00    +0.025 A 
ATOM     21  C   UNL     1      16.821   6.418  21.249  0.00  0.00    +0.025 A 
ENDROOT
BRANCH  12  10
ATOM      2  O   UNL     1      12.781   6.698  21.097  0.00  0.00    -0.361 OA
ATOM      4  O   UNL     1      11.293   9.579  22.190  0.00  0.00    -0.273 OA
ATOM      7  N   UNL     1      12.636   9.283  20.305  0.00  0.00    -0.287 N 
ATOM      9  C   UNL     1      13.048   8.356  19.245  0.00  0.00    +0.135 C 
ATOM     10  C   UNL     1      13.339   6.937  19.800  0.00  0.00    +0.171 C 
ATOM     14  C   UNL     1      11.806   8.856  21.338  0.00  0.00    +0.242 C 
ATOM     15  C   UNL     1      11.557   7.367  21.323  0.00  0.00    +0.256 C 
BRANCH   9  11
ATOM     11  C   UNL     1      11.996   8.309  18.128  0.00  0.00    +0.181 C 
BRANCH  11   3
ATOM      3  O   UNL     1      11.956   6.993  17.616  0.00  0.00    -0.393 OA
ATOM     34  H   UNL     1      12.847   6.618  17.712  0.00  0.00    +0.209 HD
ENDBRANCH  11   3
ENDBRANCH   9  11
BRANCH   7  13
ATOM     13  C   UNL     1      13.008  10.684  20.172  0.00  0.00    +0.143 C 
BRANCH  13  18
ATOM     18  C   UNL     1      14.494  10.880  20.245  0.00  0.00    -0.030 A 
ATOM     22  C   UNL     1      15.227  10.280  21.268  0.00  0.00    +0.005 A 
ATOM     23  C   UNL     1      15.143  11.662  19.288  0.00  0.00    +0.005 A 
ATOM     25  C   UNL     1      16.609  10.462  21.337  0.00  0.00    +0.000 A 
ATOM     26  C   UNL     1      16.524  11.844  19.357  0.00  0.00    +0.000 A 
ATOM     27  C   UNL     1      17.257  11.244  20.381  0.00  0.00    +0.000 A 
ENDBRANCH  13  18
ENDBRANCH   7  13
ENDBRANCH  12  10
BRANCH  19   8
ATOM      8  N   UNL     1      18.979   5.975  20.191  0.00  0.00    -0.220 N 
ATOM     35  H   UNL     1      19.232   4.978  20.190  0.00  0.00    +0.173 HD
BRANCH   8   1
ATOM      1  S   UNL     1      19.901   6.962  21.259  0.00  0.00    +0.047 S 
ATOM      5  O   UNL     1      19.498   8.344  21.071  0.00  0.00    -0.155 OA
ATOM      6  O   UNL     1      19.950   6.383  22.587  0.00  0.00    -0.155 OA
BRANCH   1  24
ATOM     24  C   UNL     1      21.514   6.792  20.530  0.00  0.00    +0.223 C 
BRANCH  24  28
ATOM     28  C   UNL     1      22.279   8.047  20.815  0.00  0.00    -0.025 A 
ATOM     29  C   UNL     1      22.741   8.304  22.107  0.00  0.00    +0.005 A 
ATOM     30  C   UNL     1      22.529   8.959  19.790  0.00  0.00    +0.005 A 
ATOM     31  C   UNL     1      23.454   9.474  22.371  0.00  0.00    +0.000 A 
ATOM     32  C   UNL     1      23.242  10.128  20.055  0.00  0.00    +0.000 A 
ATOM     33  C   UNL     1      23.704  10.385  21.346  0.00  0.00    +0.000 A 
ENDBRANCH  24  28
ENDBRANCH   1  24
ENDBRANCH   8   1
ENDBRANCH  19   8
TORSDOF 9
ENDMDL
MODEL 6
REMARK VINA RESULT:      -6.7     26.868     30.632
REMARK  Name = 71693286
REMARK  9 active torsions:
REMARK  status: ('A' for Active; 'I' for Inactive)
REMARK    1  A    between atoms: S_1  and  N_8
REMARK    2  A    between atoms: S_1  and  C_24
REMARK    3  A    between atoms: O_3  and  C_11
REMARK    4  A    between atoms: N_7  and  C_13
REMARK    5  A    between atoms: N_8  and  C_19
REMARK    6  A    between atoms: C_9  and  C_11
REMARK    7  A    between atoms: C_10  and  C_12
REMARK    8  A    between atoms: C_13  and  C_18
REMARK    9  A    between atoms: C_24  and  C_28
REMARK                            x       y       z     vdW  Elec       q    Type
REMARK                         _______ _______ _______ _____ _____    ______ ____
ROOT
ATOM     12  C   UNL     1      -5.818 -11.239  13.546  0.00  0.00    -0.017 A 
ATOM     16  C   UNL     1      -6.631 -12.065  14.322  0.00  0.00    +0.008 A 
ATOM     17  C   UNL     1      -6.321 -10.040  13.042  0.00  0.00    +0.008 A 
ATOM     19  C   UNL     1      -8.450 -10.493  14.090  0.00  0.00    +0.048 A 
ATOM     20  C   UNL     1      -7.947 -11.692  14.595  0.00  0.00    +0.025 A 
ATOM     21  C   UNL     1      -7.637  -9.666  13.314  0.00  0.00    +0.025 A 
ENDROOT
BRANCH  12  10
ATOM      2  O   UNL     1      -3.757 -10.532  12.608  0.00  0.00    -0.361 OA
ATOM      4  O   UNL     1      -1.096  -9.537  14.517  0.00  0.00    -0.273 OA
ATOM      7  N   UNL     1      -2.746 -11.098  15.055  0.00  0.00    -0.287 N 
ATOM      9  C   UNL     1      -3.661 -12.121  14.537  0.00  0.00    +0.135 C 
ATOM     10  C   UNL     1      -4.387 -11.647  13.250  0.00  0.00    +0.171 C 
ATOM     14  C   UNL     1      -1.987 -10.317  14.186  0.00  0.00    +0.242 C 
ATOM     15  C   UNL     1      -2.349 -10.523  12.735  0.00  0.00    +0.256 C 
BRANCH   9  11
ATOM     11  C   UNL     1      -2.916 -13.442  14.297  0.00  0.00    +0.181 C 
BRANCH  11   3
ATOM      3  O   UNL     1      -3.266 -14.339  15.331  0.00  0.00    -0.393 OA
ATOM     34  H   UNL     1      -2.504 -14.925  15.475  0.00  0.00    +0.209 HD
ENDBRANCH  11   3
ENDBRANCH   9  11
BRANCH   7  13
ATOM     13  C   UNL     1      -2.554 -11.018  16.496  0.00  0.00    +0.143 C 
BRANCH  13  18
ATOM     18  C   UNL     1      -3.860 -10.977  17.234  0.00  0.00    -0.030 A 
ATOM     22  C   UNL     1      -4.079 -11.834  18.312  0.00  0.00    +0.005 A 
ATOM     23  C   UNL     1      -4.856 -10.081  16.842  0.00  0.00    +0.005 A 
ATOM     25  C   UNL     1      -5.294 -11.796  18.998  0.00  0.00    +0.000 A 
ATOM     26  C   UNL     1      -6.069 -10.043  17.528  0.00  0.00    +0.000 A 
ATOM     27  C   UNL     1      -6.288 -10.901  18.606  0.00  0.00    +0.000 A 
ENDBRANCH  13  18
ENDBRANCH   7  13
ENDBRANCH  12  10
BRANCH  19   8
ATOM      8  N   UNL     1      -9.797 -10.110  14.368  0.00  0.00    -0.220 N 
ATOM     35  H   UNL     1     -10.383 -10.009  13.528  0.00  0.00    +0.173 HD
BRANCH   8   1
ATOM      1  S   UNL     1     -10.073  -8.935  15.596  0.00  0.00    +0.047 S 
ATOM      5  O   UNL     1      -8.916  -8.906  16.473  0.00  0.00    -0.155 OA
ATOM      6  O   UNL     1     -10.599  -7.708  15.030  0.00  0.00    -0.155 OA
BRANCH   1  24
ATOM     24  C   UNL     1     -11.385  -9.725  16.499  0.00  0.00    +0.223 C 
BRANCH  24  28
ATOM     28  C   UNL     1     -10.769 -10.464  17.646  0.00  0.00    -0.025 A 
ATOM     29  C   UNL     1     -10.730  -9.879  18.913  0.00  0.00    +0.005 A 
ATOM     30  C   UNL     1     -10.234 -11.737  17.450  0.00  0.00    +0.005 A 
ATOM     31  C   UNL     1     -10.156 -10.568  19.982  0.00  0.00    +0.000 A 
ATOM     32  C   UNL     1      -9.660 -12.426  18.519  0.00  0.00    +0.000 A 
ATOM     33  C   UNL     1      -9.621 -11.840  19.784  0.00  0.00    +0.000 A 
ENDBRANCH  24  28
ENDBRANCH   1  24
ENDBRANCH   8   1
ENDBRANCH  19   8
TORSDOF 9
ENDMDL
MODEL 7
REMARK VINA RESULT:      -6.6     26.593     30.465
REMARK  Name = 71693286
REMARK  9 active torsions:
REMARK  status: ('A' for Active; 'I' for Inactive)
REMARK    1  A    between atoms: S_1  and  N_8
REMARK    2  A    between atoms: S_1  and  C_24
REMARK    3  A    between atoms: O_3  and  C_11
REMARK    4  A    between atoms: N_7  and  C_13
REMARK    5  A    between atoms: N_8  and  C_19
REMARK    6  A    between atoms: C_9  and  C_11
REMARK    7  A    between atoms: C_10  and  C_12
REMARK    8  A    between atoms: C_13  and  C_18
REMARK    9  A    between atoms: C_24  and  C_28
REMARK                            x       y       z     vdW  Elec       q    Type
REMARK                         _______ _______ _______ _____ _____    ______ ____
ROOT
ATOM     12  C   UNL     1      -4.313 -10.860  16.142  0.00  0.00    -0.017 A 
ATOM     16  C   UNL     1      -4.421 -11.139  17.505  0.00  0.00    +0.008 A 
ATOM     17  C   UNL     1      -5.339 -10.179  15.486  0.00  0.00    +0.008 A 
ATOM     19  C   UNL     1      -6.580 -10.056  17.555  0.00  0.00    +0.048 A 
ATOM     20  C   UNL     1      -5.554 -10.737  18.212  0.00  0.00    +0.025 A 
ATOM     21  C   UNL     1      -6.472  -9.776  16.193  0.00  0.00    +0.025 A 
ENDROOT
BRANCH  12  10
ATOM      2  O   UNL     1      -3.142 -12.725  15.259  0.00  0.00    -0.361 OA
ATOM      4  O   UNL     1      -3.202 -13.548  11.938  0.00  0.00    -0.273 OA
ATOM      7  N   UNL     1      -3.379 -11.427  12.895  0.00  0.00    -0.287 N 
ATOM      9  C   UNL     1      -2.977 -10.564  14.011  0.00  0.00    +0.135 C 
ATOM     10  C   UNL     1      -3.081 -11.299  15.374  0.00  0.00    +0.171 C 
ATOM     14  C   UNL     1      -3.037 -12.777  12.881  0.00  0.00    +0.242 C 
ATOM     15  C   UNL     1      -2.404 -13.241  14.171  0.00  0.00    +0.256 C 
BRANCH   9  11
ATOM     11  C   UNL     1      -1.562 -10.012  13.787  0.00  0.00    +0.181 C 
BRANCH  11   3
ATOM      3  O   UNL     1      -1.152  -9.357  14.969  0.00  0.00    -0.393 OA
ATOM     34  H   UNL     1      -0.428  -8.754  14.729  0.00  0.00    +0.209 HD
ENDBRANCH  11   3
ENDBRANCH   9  11
BRANCH   7  13
ATOM     13  C   UNL     1      -4.023 -10.805  11.747  0.00  0.00    +0.143 C 
BRANCH  13  18
ATOM     18  C   UNL     1      -5.485 -10.564  11.986  0.00  0.00    -0.030 A 
ATOM     22  C   UNL     1      -5.998  -9.269  11.922  0.00  0.00    +0.005 A 
ATOM     23  C   UNL     1      -6.331 -11.637  12.271  0.00  0.00    +0.005 A 
ATOM     25  C   UNL     1      -7.358  -9.045  12.145  0.00  0.00    +0.000 A 
ATOM     26  C   UNL     1      -7.690 -11.412  12.493  0.00  0.00    +0.000 A 
ATOM     27  C   UNL     1      -8.203 -10.117  12.430  0.00  0.00    +0.000 A 
ENDBRANCH  13  18
ENDBRANCH   7  13
ENDBRANCH  12  10
BRANCH  19   8
ATOM      8  N   UNL     1      -7.740  -9.644  18.278  0.00  0.00    -0.220 N 
ATOM     35  H   UNL     1      -7.559  -8.901  18.967  0.00  0.00    +0.173 HD
BRANCH   8   1
ATOM      1  S   UNL     1      -8.856 -10.854  18.785  0.00  0.00    +0.047 S 
ATOM      5  O   UNL     1      -8.900 -11.892  17.772  0.00  0.00    -0.155 OA
ATOM      6  O   UNL     1      -8.653 -11.194  20.180  0.00  0.00    -0.155 OA
BRANCH   1  24
ATOM     24  C   UNL     1     -10.381  -9.947  18.661  0.00  0.00    +0.223 C 
BRANCH  24  28
ATOM     28  C   UNL     1     -10.399  -9.266  17.328  0.00  0.00    -0.025 A 
ATOM     29  C   UNL     1     -10.204  -7.886  17.246  0.00  0.00    +0.005 A 
ATOM     30  C   UNL     1     -10.610 -10.010  16.167  0.00  0.00    +0.005 A 
ATOM     31  C   UNL     1     -10.220  -7.253  16.003  0.00  0.00    +0.000 A 
ATOM     32  C   UNL     1     -10.626  -9.377  14.925  0.00  0.00    +0.000 A 
ATOM     33  C   UNL     1     -10.432  -7.998  14.843  0.00  0.00    +0.000 A 
ENDBRANCH  24  28
ENDBRANCH   1  24
ENDBRANCH   8   1
ENDBRANCH  19   8
TORSDOF 9
ENDMDL
MODEL 8
REMARK VINA RESULT:      -6.6     14.970     17.855
REMARK  Name = 71693286
REMARK  9 active torsions:
REMARK  status: ('A' for Active; 'I' for Inactive)
REMARK    1  A    between atoms: S_1  and  N_8
REMARK    2  A    between atoms: S_1  and  C_24
REMARK    3  A    between atoms: O_3  and  C_11
REMARK    4  A    between atoms: N_7  and  C_13
REMARK    5  A    between atoms: N_8  and  C_19
REMARK    6  A    between atoms: C_9  and  C_11
REMARK    7  A    between atoms: C_10  and  C_12
REMARK    8  A    between atoms: C_13  and  C_18
REMARK    9  A    between atoms: C_24  and  C_28
REMARK                            x       y       z     vdW  Elec       q    Type
REMARK                         _______ _______ _______ _____ _____    ______ ____
ROOT
ATOM     12  C   UNL     1      12.949   7.351   6.190  0.00  0.00    -0.017 A 
ATOM     16  C   UNL     1      12.550   7.258   4.856  0.00  0.00    +0.008 A 
ATOM     17  C   UNL     1      14.306   7.408   6.509  0.00  0.00    +0.008 A 
ATOM     19  C   UNL     1      14.864   7.277   4.162  0.00  0.00    +0.048 A 
ATOM     20  C   UNL     1      13.507   7.222   3.843  0.00  0.00    +0.025 A 
ATOM     21  C   UNL     1      15.263   7.372   5.496  0.00  0.00    +0.025 A 
ENDROOT
BRANCH  12  10
ATOM      2  O   UNL     1      11.345   8.707   7.292  0.00  0.00    -0.361 OA
ATOM      4  O   UNL     1       7.984   8.459   6.698  0.00  0.00    -0.273 OA
ATOM      7  N   UNL     1       9.594   6.773   6.570  0.00  0.00    -0.287 N 
ATOM      9  C   UNL     1      10.857   6.261   7.112  0.00  0.00    +0.135 C 
ATOM     10  C   UNL     1      11.907   7.390   7.291  0.00  0.00    +0.171 C 
ATOM     14  C   UNL     1       9.092   8.006   6.981  0.00  0.00    +0.242 C 
ATOM     15  C   UNL     1      10.051   8.775   7.857  0.00  0.00    +0.256 C 
BRANCH   9  11
ATOM     11  C   UNL     1      10.617   5.513   8.431  0.00  0.00    +0.181 C 
BRANCH  11   3
ATOM      3  O   UNL     1      10.593   4.128   8.154  0.00  0.00    -0.393 OA
ATOM     34  H   UNL     1      10.945   4.007   7.257  0.00  0.00    +0.209 HD
ENDBRANCH  11   3
ENDBRANCH   9  11
BRANCH   7  13
ATOM     13  C   UNL     1       8.818   5.901   5.700  0.00  0.00    +0.143 C 
BRANCH  13  18
ATOM     18  C   UNL     1       9.428   5.786   4.333  0.00  0.00    -0.030 A 
ATOM     22  C   UNL     1      10.172   4.657   3.994  0.00  0.00    +0.005 A 
ATOM     23  C   UNL     1       9.248   6.810   3.401  0.00  0.00    +0.005 A 
ATOM     25  C   UNL     1      10.739   4.551   2.723  0.00  0.00    +0.000 A 
ATOM     26  C   UNL     1       9.815   6.703   2.131  0.00  0.00    +0.000 A 
ATOM     27  C   UNL     1      10.560   5.574   1.792  0.00  0.00    +0.000 A 
ENDBRANCH  13  18
ENDBRANCH   7  13
ENDBRANCH  12  10
BRANCH  19   8
ATOM      8  N   UNL     1      15.844   7.240   3.126  0.00  0.00    -0.220 N 
ATOM     35  H   UNL     1      16.777   7.558   3.422  0.00  0.00    +0.173 HD
BRANCH   8   1
ATOM      1  S   UNL     1      15.375   7.733   1.543  0.00  0.00    +0.047 S 
ATOM      5  O   UNL     1      13.933   7.616   1.435  0.00  0.00    -0.155 OA
ATOM      6  O   UNL     1      16.046   8.960   1.163  0.00  0.00    -0.155 OA
BRANCH   1  24
ATOM     24  C   UNL     1      16.073   6.409   0.582  0.00  0.00    +0.223 C 
BRANCH  24  28
ATOM     28  C   UNL     1      15.054   5.315   0.505  0.00  0.00    -0.025 A 
ATOM     29  C   UNL     1      14.276   5.166  -0.644  0.00  0.00    +0.005 A 
ATOM     30  C   UNL     1      14.883   4.444   1.581  0.00  0.00    +0.005 A 
ATOM     31  C   UNL     1      13.327   4.146  -0.716  0.00  0.00    +0.000 A 
ATOM     32  C   UNL     1      13.934   3.424   1.509  0.00  0.00    +0.000 A 
ATOM     33  C   UNL     1      13.156   3.276   0.361  0.00  0.00    +0.000 A 
ENDBRANCH  24  28
ENDBRANCH   1  24
ENDBRANCH   8   1
ENDBRANCH  19   8
TORSDOF 9
ENDMDL
MODEL 9
REMARK VINA RESULT:      -6.5      1.744      2.120
REMARK  Name = 71693286
REMARK  9 active torsions:
REMARK  status: ('A' for Active; 'I' for Inactive)
REMARK    1  A    between atoms: S_1  and  N_8
REMARK    2  A    between atoms: S_1  and  C_24
REMARK    3  A    between atoms: O_3  and  C_11
REMARK    4  A    between atoms: N_7  and  C_13
REMARK    5  A    between atoms: N_8  and  C_19
REMARK    6  A    between atoms: C_9  and  C_11
REMARK    7  A    between atoms: C_10  and  C_12
REMARK    8  A    between atoms: C_13  and  C_18
REMARK    9  A    between atoms: C_24  and  C_28
REMARK                            x       y       z     vdW  Elec       q    Type
REMARK                         _______ _______ _______ _____ _____    ______ ____
ROOT
ATOM     12  C   UNL     1      15.953   7.525  19.799  0.00  0.00    -0.017 A 
ATOM     16  C   UNL     1      16.945   6.553  19.671  0.00  0.00    +0.008 A 
ATOM     17  C   UNL     1      16.064   8.512  20.778  0.00  0.00    +0.008 A 
ATOM     19  C   UNL     1      18.160   7.554  21.505  0.00  0.00    +0.048 A 
ATOM     20  C   UNL     1      18.049   6.568  20.524  0.00  0.00    +0.025 A 
ATOM     21  C   UNL     1      17.168   8.527  21.631  0.00  0.00    +0.025 A 
ENDROOT
BRANCH  12  10
ATOM      2  O   UNL     1      13.731   6.741  19.520  0.00  0.00    -0.361 OA
ATOM      4  O   UNL     1      10.990   8.740  19.970  0.00  0.00    -0.273 OA
ATOM      7  N   UNL     1      13.117   9.363  19.237  0.00  0.00    -0.287 N 
ATOM      9  C   UNL     1      14.312   8.947  18.495  0.00  0.00    +0.135 C 
ATOM     10  C   UNL     1      14.752   7.508  18.871  0.00  0.00    +0.171 C 
ATOM     14  C   UNL     1      12.085   8.461  19.485  0.00  0.00    +0.242 C 
ATOM     15  C   UNL     1      12.423   7.047  19.079  0.00  0.00    +0.256 C 
BRANCH   9  11
ATOM     11  C   UNL     1      14.084   9.080  16.983  0.00  0.00    +0.181 C 
BRANCH  11   3
ATOM      3  O   UNL     1      14.099   7.784  16.420  0.00  0.00    -0.393 OA
ATOM     34  H   UNL     1      14.695   7.240  16.962  0.00  0.00    +0.209 HD
ENDBRANCH  11   3
ENDBRANCH   9  11
BRANCH   7  13
ATOM     13  C   UNL     1      12.982  10.770  19.584  0.00  0.00    +0.143 C 
BRANCH  13  18
ATOM     18  C   UNL     1      13.836  11.142  20.761  0.00  0.00    -0.030 A 
ATOM     22  C   UNL     1      13.510  10.677  22.035  0.00  0.00    +0.005 A 
ATOM     23  C   UNL     1      14.958  11.953  20.580  0.00  0.00    +0.005 A 
ATOM     25  C   UNL     1      14.304  11.024  23.129  0.00  0.00    +0.000 A 
ATOM     26  C   UNL     1      15.752  12.298  21.674  0.00  0.00    +0.000 A 
ATOM     27  C   UNL     1      15.425  11.834  22.948  0.00  0.00    +0.000 A 
ENDBRANCH  13  18
ENDBRANCH   7  13
ENDBRANCH  12  10
BRANCH  19   8
ATOM      8  N   UNL     1      19.289   7.570  22.377  0.00  0.00    -0.220 N 
ATOM     35  H   UNL     1      19.097   7.190  23.314  0.00  0.00    +0.173 HD
BRANCH   8   1
ATOM      1  S   UNL     1      20.323   8.948  22.347  0.00  0.00    +0.047 S 
ATOM      5  O   UNL     1      20.391   9.441  20.984  0.00  0.00    -0.155 OA
ATOM      6  O   UNL     1      20.018   9.847  23.442  0.00  0.00    -0.155 OA
BRANCH   1  24
ATOM     24  C   UNL     1      21.886   8.175  22.695  0.00  0.00    +0.223 C 
BRANCH  24  28
ATOM     28  C   UNL     1      21.843   6.786  22.136  0.00  0.00    -0.025 A 
ATOM     29  C   UNL     1      21.840   5.687  22.997  0.00  0.00    +0.005 A 
ATOM     30  C   UNL     1      21.805   6.590  20.756  0.00  0.00    +0.005 A 
ATOM     31  C   UNL     1      21.798   4.394  22.476  0.00  0.00    +0.000 A 
ATOM     32  C   UNL     1      21.764   5.297  20.235  0.00  0.00    +0.000 A 
ATOM     33  C   UNL     1      21.761   4.199  21.096  0.00  0.00    +0.000 A 
ENDBRANCH  24  28
ENDBRANCH   1  24
ENDBRANCH   8   1
ENDBRANCH  19   8
TORSDOF 9
ENDMDL
MODEL 10
REMARK VINA RESULT:      -6.5     16.352     19.291
REMARK  Name = 71693286
REMARK  9 active torsions:
REMARK  status: ('A' for Active; 'I' for Inactive)
REMARK    1  A    between atoms: S_1  and  N_8
REMARK    2  A    between atoms: S_1  and  C_24
REMARK    3  A    between atoms: O_3  and  C_11
REMARK    4  A    between atoms: N_7  and  C_13
REMARK    5  A    between atoms: N_8  and  C_19
REMARK    6  A    between atoms: C_9  and  C_11
REMARK    7  A    between atoms: C_10  and  C_12
REMARK    8  A    between atoms: C_13  and  C_18
REMARK    9  A    between atoms: C_24  and  C_28
REMARK                            x       y       z     vdW  Elec       q    Type
REMARK                         _______ _______ _______ _____ _____    ______ ____
ROOT
ATOM     12  C   UNL     1      11.000   5.331   3.794  0.00  0.00    -0.017 A 
ATOM     16  C   UNL     1      11.096   4.151   3.054  0.00  0.00    +0.008 A 
ATOM     17  C   UNL     1      11.879   6.384   3.544  0.00  0.00    +0.008 A 
ATOM     19  C   UNL     1      12.951   5.080   1.816  0.00  0.00    +0.048 A 
ATOM     20  C   UNL     1      12.071   4.026   2.065  0.00  0.00    +0.025 A 
ATOM     21  C   UNL     1      12.854   6.259   2.554  0.00  0.00    +0.025 A 
ENDROOT
BRANCH  12  10
ATOM      2  O   UNL     1      10.130   4.383   5.788  0.00  0.00    -0.361 OA
ATOM      4  O   UNL     1      10.766   5.684   8.888  0.00  0.00    -0.273 OA
ATOM      7  N   UNL     1      10.625   6.822   6.855  0.00  0.00    -0.287 N 
ATOM      9  C   UNL     1       9.988   6.867   5.534  0.00  0.00    +0.135 C 
ATOM     10  C   UNL     1       9.939   5.466   4.870  0.00  0.00    +0.171 C 
ATOM     14  C   UNL     1      10.397   5.751   7.717  0.00  0.00    +0.242 C 
ATOM     15  C   UNL     1       9.611   4.632   7.078  0.00  0.00    +0.256 C 
BRANCH   9  11
ATOM     11  C   UNL     1       8.586   7.485   5.630  0.00  0.00    +0.181 C 
BRANCH  11   3
ATOM      3  O   UNL     1       7.641   6.485   5.309  0.00  0.00    -0.393 OA
ATOM     34  H   UNL     1       7.519   6.501   4.346  0.00  0.00    +0.209 HD
ENDBRANCH  11   3
ENDBRANCH   9  11
BRANCH   7  13
ATOM     13  C   UNL     1      11.387   7.984   7.289  0.00  0.00    +0.143 C 
BRANCH  13  18
ATOM     18  C   UNL     1      12.686   8.111   6.549  0.00  0.00    -0.030 A 
ATOM     22  C   UNL     1      12.892   9.180   5.677  0.00  0.00    +0.005 A 
ATOM     23  C   UNL     1      13.690   7.159   6.734  0.00  0.00    +0.005 A 
ATOM     25  C   UNL     1      14.100   9.297   4.989  0.00  0.00    +0.000 A 
ATOM     26  C   UNL     1      14.898   7.277   6.046  0.00  0.00    +0.000 A 
ATOM     27  C   UNL     1      15.103   8.346   5.174  0.00  0.00    +0.000 A 
ENDBRANCH  13  18
ENDBRANCH   7  13
ENDBRANCH  12  10
BRANCH  19   8
ATOM      8  N   UNL     1      13.949   4.952   0.804  0.00  0.00    -0.220 N 
ATOM     35  H   UNL     1      14.906   5.134   1.137  0.00  0.00    +0.173 HD
BRANCH   8   1
ATOM      1  S   UNL     1      13.597   5.558  -0.769  0.00  0.00    +0.047 S 
ATOM      5  O   UNL     1      12.157   5.670  -0.906  0.00  0.00    -0.155 OA
ATOM      6  O   UNL     1      14.458   6.677  -1.097  0.00  0.00    -0.155 OA
BRANCH   1  24
ATOM     24  C   UNL     1      14.103   4.171  -1.761  0.00  0.00    +0.223 C 
BRANCH  24  28
ATOM     28  C   UNL     1      12.897   3.668  -2.491  0.00  0.00    -0.025 A 
ATOM     29  C   UNL     1      12.132   2.635  -1.946  0.00  0.00    +0.005 A 
ATOM     30  C   UNL     1      12.537   4.230  -3.715  0.00  0.00    +0.005 A 
ATOM     31  C   UNL     1      11.007   2.168  -2.626  0.00  0.00    +0.000 A 
ATOM     32  C   UNL     1      11.413   3.762  -4.395  0.00  0.00    +0.000 A 
ATOM     33  C   UNL     1      10.649   2.731  -3.850  0.00  0.00    +0.000 A 
ENDBRANCH  24  28
ENDBRANCH   1  24
ENDBRANCH   8   1
ENDBRANCH  19   8
TORSDOF 9
ENDMDL
