MODEL 1
REMARK VINA RESULT:      -6.5      0.000      0.000
REMARK  Name = 71694024
REMARK  8 active torsions:
REMARK  status: ('A' for Active; 'I' for Inactive)
REMARK    1  A    between atoms: S_1  and  N_9
REMARK    2  A    between atoms: S_1  and  C_19
REMARK    3  A    between atoms: O_5  and  C_13
REMARK    4  A    between atoms: O_6  and  C_15
REMARK    5  A    between atoms: N_9  and  C_12
REMARK    6  A    between atoms: C_11  and  C_16
REMARK    7  A    between atoms: C_22  and  C_25
REMARK    8  A    between atoms: C_26  and  C_29
REMARK                            x       y       z     vdW  Elec       q    Type
REMARK                         _______ _______ _______ _____ _____    ______ ____
ROOT
ATOM     11  C   UNL     1     -14.260   1.921  30.277  0.00  0.00    +0.043 C 
ATOM     12  C   UNL     1     -15.656   1.530  29.718  0.00  0.00    +0.115 C 
ATOM     13  C   UNL     1     -15.571   0.034  29.388  0.00  0.00    +0.162 C 
ATOM     14  C   UNL     1     -13.470   0.604  30.365  0.00  0.00    +0.043 C 
ATOM     15  C   UNL     1     -14.074  -0.235  29.250  0.00  0.00    +0.145 C 
ENDROOT
BRANCH  11  16
ATOM     16  C   UNL     1     -14.311   2.671  31.589  0.00  0.00    -0.043 A 
ATOM     17  C   UNL     1     -13.721   3.931  31.696  0.00  0.00    +0.004 A 
ATOM     18  C   UNL     1     -14.947   2.104  32.693  0.00  0.00    +0.004 A 
ATOM     20  C   UNL     1     -13.769   4.624  32.905  0.00  0.00    +0.012 A 
ATOM     21  C   UNL     1     -14.994   2.796  33.904  0.00  0.00    +0.012 A 
ATOM     22  C   UNL     1     -14.405   4.056  34.009  0.00  0.00    +0.055 A 
BRANCH  22  25
ATOM      2  F   UNL     1     -15.707   5.249  35.601  0.00  0.00    -0.166 F 
ATOM      3  F   UNL     1     -14.071   4.046  36.379  0.00  0.00    -0.166 F 
ATOM      4  F   UNL     1     -13.650   5.900  35.334  0.00  0.00    -0.166 F 
ATOM     25  C   UNL     1     -14.455   4.796  35.304  0.00  0.00    +0.417 C 
ENDBRANCH  22  25
ENDBRANCH  11  16
BRANCH  13   5
ATOM      5  O   UNL     1     -16.113  -0.693  30.489  0.00  0.00    -0.388 OA
ATOM     31  H   UNL     1     -15.644  -1.544  30.536  0.00  0.00    +0.210 HD
ENDBRANCH  13   5
BRANCH  15   6
ATOM      6  O   UNL     1     -13.750  -1.603  29.396  0.00  0.00    -0.389 OA
ATOM     32  H   UNL     1     -12.850  -1.652  29.761  0.00  0.00    +0.210 HD
ENDBRANCH  15   6
BRANCH  12   9
ATOM      9  N   UNL     1     -15.918   2.296  28.472  0.00  0.00    -0.184 NA
ATOM     30  H   UNL     1     -15.145   2.404  27.803  0.00  0.00    +0.148 HD
BRANCH   9   1
ATOM      1  S   UNL     1     -17.320   3.247  28.341  0.00  0.00    +0.059 S 
ATOM      7  O   UNL     1     -18.489   2.412  28.543  0.00  0.00    -0.153 OA
ATOM      8  O   UNL     1     -17.211   4.078  27.157  0.00  0.00    -0.153 OA
BRANCH   1  19
ATOM     19  C   UNL     1     -17.166   4.317  29.740  0.00  0.00    +0.106 A 
ATOM     23  C   UNL     1     -17.764   3.972  30.951  0.00  0.00    +0.047 A 
ATOM     24  C   UNL     1     -16.446   5.507  29.630  0.00  0.00    +0.028 A 
ATOM     26  C   UNL     1     -17.643   4.818  32.054  0.00  0.00    +0.054 A 
ATOM     27  C   UNL     1     -16.325   6.352  30.733  0.00  0.00    +0.003 A 
ATOM     28  C   UNL     1     -16.923   6.008  31.945  0.00  0.00    +0.019 A 
BRANCH  26  29
ATOM     10  N   UNL     1     -18.754   4.179  34.305  0.00  0.00    -0.191 NA
ATOM     29  C   UNL     1     -18.255   4.465  33.296  0.00  0.00    +0.099 C 
ENDBRANCH  26  29
ENDBRANCH   1  19
ENDBRANCH   9   1
ENDBRANCH  12   9
TORSDOF 8
ENDMDL
MODEL 2
REMARK VINA RESULT:      -5.8     10.246     12.307
REMARK  Name = 71694024
REMARK  8 active torsions:
REMARK  status: ('A' for Active; 'I' for Inactive)
REMARK    1  A    between atoms: S_1  and  N_9
REMARK    2  A    between atoms: S_1  and  C_19
REMARK    3  A    between atoms: O_5  and  C_13
REMARK    4  A    between atoms: O_6  and  C_15
REMARK    5  A    between atoms: N_9  and  C_12
REMARK    6  A    between atoms: C_11  and  C_16
REMARK    7  A    between atoms: C_22  and  C_25
REMARK    8  A    between atoms: C_26  and  C_29
REMARK                            x       y       z     vdW  Elec       q    Type
REMARK                         _______ _______ _______ _____ _____    ______ ____
ROOT
ATOM     11  C   UNL     1     -14.314   5.372  22.017  0.00  0.00    +0.043 C 
ATOM     12  C   UNL     1     -15.856   5.561  22.023  0.00  0.00    +0.115 C 
ATOM     13  C   UNL     1     -16.328   5.121  23.416  0.00  0.00    +0.162 C 
ATOM     14  C   UNL     1     -13.948   4.954  23.452  0.00  0.00    +0.043 C 
ATOM     15  C   UNL     1     -15.198   4.232  23.930  0.00  0.00    +0.145 C 
ENDROOT
BRANCH  11  16
ATOM     16  C   UNL     1     -13.548   6.586  21.539  0.00  0.00    -0.043 A 
ATOM     17  C   UNL     1     -13.976   7.865  21.894  0.00  0.00    +0.004 A 
ATOM     18  C   UNL     1     -12.415   6.425  20.742  0.00  0.00    +0.004 A 
ATOM     20  C   UNL     1     -13.269   8.984  21.454  0.00  0.00    +0.012 A 
ATOM     21  C   UNL     1     -11.708   7.545  20.301  0.00  0.00    +0.012 A 
ATOM     22  C   UNL     1     -12.136   8.824  20.657  0.00  0.00    +0.055 A 
BRANCH  22  25
ATOM      2  F   UNL     1     -11.392  11.040  21.093  0.00  0.00    -0.166 F 
ATOM      3  F   UNL     1     -10.062   9.772  19.932  0.00  0.00    -0.166 F 
ATOM      4  F   UNL     1     -11.871  10.556  19.028  0.00  0.00    -0.166 F 
ATOM     25  C   UNL     1     -11.380  10.021  20.185  0.00  0.00    +0.417 C 
ENDBRANCH  22  25
ENDBRANCH  11  16
BRANCH  13   5
ATOM      5  O   UNL     1     -16.459   6.288  24.226  0.00  0.00    -0.388 OA
ATOM     31  H   UNL     1     -17.139   6.102  24.896  0.00  0.00    +0.210 HD
ENDBRANCH  13   5
BRANCH  15   6
ATOM      6  O   UNL     1     -15.210   4.093  25.336  0.00  0.00    -0.389 OA
ATOM     32  H   UNL     1     -14.368   4.444  25.672  0.00  0.00    +0.210 HD
ENDBRANCH  15   6
BRANCH  12   9
ATOM      9  N   UNL     1     -16.462   4.675  20.995  0.00  0.00    -0.184 NA
ATOM     30  H   UNL     1     -16.039   3.750  20.848  0.00  0.00    +0.148 HD
BRANCH   9   1
ATOM      1  S   UNL     1     -17.571   5.311  19.876  0.00  0.00    +0.059 S 
ATOM      7  O   UNL     1     -18.845   5.535  20.532  0.00  0.00    -0.153 OA
ATOM      8  O   UNL     1     -17.506   4.528  18.657  0.00  0.00    -0.153 OA
BRANCH   1  19
ATOM     19  C   UNL     1     -16.859   6.889  19.515  0.00  0.00    +0.106 A 
ATOM     23  C   UNL     1     -15.757   6.979  18.665  0.00  0.00    +0.047 A 
ATOM     24  C   UNL     1     -17.399   8.043  20.082  0.00  0.00    +0.028 A 
ATOM     26  C   UNL     1     -15.195   8.223  18.382  0.00  0.00    +0.054 A 
ATOM     27  C   UNL     1     -16.837   9.287  19.799  0.00  0.00    +0.003 A 
ATOM     28  C   UNL     1     -15.735   9.378  18.949  0.00  0.00    +0.019 A 
BRANCH  26  29
ATOM     10  N   UNL     1     -13.149   8.392  16.803  0.00  0.00    -0.191 NA
ATOM     29  C   UNL     1     -14.066   8.317  17.511  0.00  0.00    +0.099 C 
ENDBRANCH  26  29
ENDBRANCH   1  19
ENDBRANCH   9   1
ENDBRANCH  12   9
TORSDOF 8
ENDMDL
MODEL 3
REMARK VINA RESULT:      -5.7     11.639     13.532
REMARK  Name = 71694024
REMARK  8 active torsions:
REMARK  status: ('A' for Active; 'I' for Inactive)
REMARK    1  A    between atoms: S_1  and  N_9
REMARK    2  A    between atoms: S_1  and  C_19
REMARK    3  A    between atoms: O_5  and  C_13
REMARK    4  A    between atoms: O_6  and  C_15
REMARK    5  A    between atoms: N_9  and  C_12
REMARK    6  A    between atoms: C_11  and  C_16
REMARK    7  A    between atoms: C_22  and  C_25
REMARK    8  A    between atoms: C_26  and  C_29
REMARK                            x       y       z     vdW  Elec       q    Type
REMARK                         _______ _______ _______ _____ _____    ______ ____
ROOT
ATOM     11  C   UNL     1     -11.348   8.290  18.580  0.00  0.00    +0.043 C 
ATOM     12  C   UNL     1     -12.141   9.284  17.687  0.00  0.00    +0.115 C 
ATOM     13  C   UNL     1     -11.777   8.929  16.239  0.00  0.00    +0.162 C 
ATOM     14  C   UNL     1     -10.661   7.320  17.602  0.00  0.00    +0.043 C 
ATOM     15  C   UNL     1     -10.457   8.171  16.359  0.00  0.00    +0.145 C 
ENDROOT
BRANCH  11  16
ATOM     16  C   UNL     1     -12.193   7.587  19.618  0.00  0.00    -0.043 A 
ATOM     17  C   UNL     1     -11.582   6.919  20.680  0.00  0.00    +0.004 A 
ATOM     18  C   UNL     1     -13.584   7.604  19.513  0.00  0.00    +0.004 A 
ATOM     20  C   UNL     1     -12.362   6.272  21.638  0.00  0.00    +0.012 A 
ATOM     21  C   UNL     1     -14.364   6.955  20.471  0.00  0.00    +0.012 A 
ATOM     22  C   UNL     1     -13.752   6.289  21.533  0.00  0.00    +0.055 A 
BRANCH  22  25
ATOM      2  F   UNL     1     -15.335   6.462  23.299  0.00  0.00    -0.166 F 
ATOM      3  F   UNL     1     -15.475   4.703  22.028  0.00  0.00    -0.166 F 
ATOM      4  F   UNL     1     -13.856   4.877  23.461  0.00  0.00    -0.166 F 
ATOM     25  C   UNL     1     -14.586   5.595  22.558  0.00  0.00    +0.417 C 
ENDBRANCH  22  25
ENDBRANCH  11  16
BRANCH  13   5
ATOM      5  O   UNL     1     -12.801   8.078  15.723  0.00  0.00    -0.388 OA
ATOM     31  H   UNL     1     -12.537   7.161  15.908  0.00  0.00    +0.210 HD
ENDBRANCH  13   5
BRANCH  15   6
ATOM      6  O   UNL     1     -10.181   7.375  15.225  0.00  0.00    -0.389 OA
ATOM     32  H   UNL     1     -11.031   7.051  14.881  0.00  0.00    +0.210 HD
ENDBRANCH  15   6
BRANCH  12   9
ATOM      9  N   UNL     1     -11.694  10.671  17.981  0.00  0.00    -0.184 NA
ATOM     30  H   UNL     1     -10.684  10.859  17.986  0.00  0.00    +0.148 HD
BRANCH   9   1
ATOM      1  S   UNL     1     -12.791  11.794  18.631  0.00  0.00    +0.059 S 
ATOM      7  O   UNL     1     -14.023  11.763  17.866  0.00  0.00    -0.153 OA
ATOM      8  O   UNL     1     -12.099  13.049  18.851  0.00  0.00    -0.153 OA
BRANCH   1  19
ATOM     19  C   UNL     1     -13.121  11.100  20.224  0.00  0.00    +0.106 A 
ATOM     23  C   UNL     1     -14.428  10.781  20.588  0.00  0.00    +0.047 A 
ATOM     24  C   UNL     1     -12.072  10.873  21.116  0.00  0.00    +0.028 A 
ATOM     26  C   UNL     1     -14.688  10.235  21.845  0.00  0.00    +0.054 A 
ATOM     27  C   UNL     1     -12.332  10.328  22.372  0.00  0.00    +0.003 A 
ATOM     28  C   UNL     1     -13.640  10.008  22.737  0.00  0.00    +0.019 A 
BRANCH  26  29
ATOM     10  N   UNL     1     -17.116   9.640  22.523  0.00  0.00    -0.191 NA
ATOM     29  C   UNL     1     -16.028   9.907  22.220  0.00  0.00    +0.099 C 
ENDBRANCH  26  29
ENDBRANCH   1  19
ENDBRANCH   9   1
ENDBRANCH  12   9
TORSDOF 8
ENDMDL
MODEL 4
REMARK VINA RESULT:      -5.6     36.347     38.089
REMARK  Name = 71694024
REMARK  8 active torsions:
REMARK  status: ('A' for Active; 'I' for Inactive)
REMARK    1  A    between atoms: S_1  and  N_9
REMARK    2  A    between atoms: S_1  and  C_19
REMARK    3  A    between atoms: O_5  and  C_13
REMARK    4  A    between atoms: O_6  and  C_15
REMARK    5  A    between atoms: N_9  and  C_12
REMARK    6  A    between atoms: C_11  and  C_16
REMARK    7  A    between atoms: C_22  and  C_25
REMARK    8  A    between atoms: C_26  and  C_29
REMARK                            x       y       z     vdW  Elec       q    Type
REMARK                         _______ _______ _______ _____ _____    ______ ____
ROOT
ATOM     11  C   UNL     1      11.751   5.892   2.663  0.00  0.00    +0.043 C 
ATOM     12  C   UNL     1      10.677   6.316   1.624  0.00  0.00    +0.115 C 
ATOM     13  C   UNL     1      10.764   5.289   0.487  0.00  0.00    +0.162 C 
ATOM     14  C   UNL     1      12.324   4.563   2.140  0.00  0.00    +0.043 C 
ATOM     15  C   UNL     1      12.159   4.685   0.634  0.00  0.00    +0.145 C 
ENDROOT
BRANCH  11  16
ATOM     16  C   UNL     1      11.233   5.798   4.081  0.00  0.00    -0.043 A 
ATOM     17  C   UNL     1      11.855   6.520   5.100  0.00  0.00    +0.004 A 
ATOM     18  C   UNL     1      10.135   4.989   4.370  0.00  0.00    +0.004 A 
ATOM     20  C   UNL     1      11.376   6.435   6.407  0.00  0.00    +0.012 A 
ATOM     21  C   UNL     1       9.657   4.903   5.678  0.00  0.00    +0.012 A 
ATOM     22  C   UNL     1      10.278   5.626   6.696  0.00  0.00    +0.055 A 
BRANCH  22  25
ATOM      2  F   UNL     1       8.753   6.413   8.342  0.00  0.00    -0.166 F 
ATOM      3  F   UNL     1       9.271   4.303   8.417  0.00  0.00    -0.166 F 
ATOM      4  F   UNL     1      10.716   5.795   9.042  0.00  0.00    -0.166 F 
ATOM     25  C   UNL     1       9.767   5.534   8.095  0.00  0.00    +0.417 C 
ENDBRANCH  22  25
ENDBRANCH  11  16
BRANCH  13   5
ATOM      5  O   UNL     1       9.761   4.298   0.710  0.00  0.00    -0.388 OA
ATOM     31  H   UNL     1       9.391   4.453   1.596  0.00  0.00    +0.210 HD
ENDBRANCH  13   5
BRANCH  15   6
ATOM      6  O   UNL     1      12.281   3.431  -0.005  0.00  0.00    -0.389 OA
ATOM     32  H   UNL     1      13.096   3.014   0.323  0.00  0.00    +0.210 HD
ENDBRANCH  15   6
BRANCH  12   9
ATOM      9  N   UNL     1      11.010   7.665   1.096  0.00  0.00    -0.184 NA
ATOM     30  H   UNL     1      11.994   7.867   0.884  0.00  0.00    +0.148 HD
BRANCH   9   1
ATOM      1  S   UNL     1       9.865   8.916   1.187  0.00  0.00    +0.059 S 
ATOM      7  O   UNL     1       8.703   8.567   0.392  0.00  0.00    -0.153 OA
ATOM      8  O   UNL     1      10.540  10.183   0.977  0.00  0.00    -0.153 OA
BRANCH   1  19
ATOM     19  C   UNL     1       9.397   8.858   2.891  0.00  0.00    +0.106 A 
ATOM     23  C   UNL     1      10.128   9.569   3.841  0.00  0.00    +0.047 A 
ATOM     24  C   UNL     1       8.294   8.098   3.285  0.00  0.00    +0.028 A 
ATOM     26  C   UNL     1       9.759   9.521   5.185  0.00  0.00    +0.054 A 
ATOM     27  C   UNL     1       7.925   8.051   4.628  0.00  0.00    +0.003 A 
ATOM     28  C   UNL     1       8.657   8.762   5.579  0.00  0.00    +0.019 A 
BRANCH  26  29
ATOM     10  N   UNL     1      11.117  10.844   6.950  0.00  0.00    -0.191 NA
ATOM     29  C   UNL     1      10.508  10.251   6.159  0.00  0.00    +0.099 C 
ENDBRANCH  26  29
ENDBRANCH   1  19
ENDBRANCH   9   1
ENDBRANCH  12   9
TORSDOF 8
ENDMDL
MODEL 5
REMARK VINA RESULT:      -5.6     22.858     26.471
REMARK  Name = 71694024
REMARK  8 active torsions:
REMARK  status: ('A' for Active; 'I' for Inactive)
REMARK    1  A    between atoms: S_1  and  N_9
REMARK    2  A    between atoms: S_1  and  C_19
REMARK    3  A    between atoms: O_5  and  C_13
REMARK    4  A    between atoms: O_6  and  C_15
REMARK    5  A    between atoms: N_9  and  C_12
REMARK    6  A    between atoms: C_11  and  C_16
REMARK    7  A    between atoms: C_22  and  C_25
REMARK    8  A    between atoms: C_26  and  C_29
REMARK                            x       y       z     vdW  Elec       q    Type
REMARK                         _______ _______ _______ _____ _____    ______ ____
ROOT
ATOM     11  C   UNL     1      -4.208 -11.665  16.981  0.00  0.00    +0.043 C 
ATOM     12  C   UNL     1      -5.344 -12.722  17.068  0.00  0.00    +0.115 C 
ATOM     13  C   UNL     1      -6.386 -12.139  18.032  0.00  0.00    +0.162 C 
ATOM     14  C   UNL     1      -4.705 -10.462  17.800  0.00  0.00    +0.043 C 
ATOM     15  C   UNL     1      -5.609 -11.102  18.841  0.00  0.00    +0.145 C 
ENDROOT
BRANCH  11  16
ATOM     16  C   UNL     1      -3.814 -11.300  15.568  0.00  0.00    -0.043 A 
ATOM     17  C   UNL     1      -2.478 -11.380  15.173  0.00  0.00    +0.004 A 
ATOM     18  C   UNL     1      -4.786 -10.882  14.659  0.00  0.00    +0.004 A 
ATOM     20  C   UNL     1      -2.115 -11.044  13.869  0.00  0.00    +0.012 A 
ATOM     21  C   UNL     1      -4.423 -10.545  13.354  0.00  0.00    +0.012 A 
ATOM     22  C   UNL     1      -3.087 -10.626  12.960  0.00  0.00    +0.055 A 
BRANCH  22  25
ATOM      2  F   UNL     1      -2.780 -11.324  10.708  0.00  0.00    -0.166 F 
ATOM      3  F   UNL     1      -3.477  -9.287  11.015  0.00  0.00    -0.166 F 
ATOM      4  F   UNL     1      -1.417  -9.804  11.457  0.00  0.00    -0.166 F 
ATOM     25  C   UNL     1      -2.698 -10.265  11.565  0.00  0.00    +0.417 C 
ENDBRANCH  22  25
ENDBRANCH  11  16
BRANCH  13   5
ATOM      5  O   UNL     1      -7.404 -11.510  17.255  0.00  0.00    -0.388 OA
ATOM     31  H   UNL     1      -8.259 -11.730  17.663  0.00  0.00    +0.210 HD
ENDBRANCH  13   5
BRANCH  15   6
ATOM      6  O   UNL     1      -6.450 -10.148  19.455  0.00  0.00    -0.389 OA
ATOM     32  H   UNL     1      -7.157  -9.932  18.824  0.00  0.00    +0.210 HD
ENDBRANCH  15   6
BRANCH  12   9
ATOM      9  N   UNL     1      -4.799 -13.983  17.634  0.00  0.00    -0.184 NA
ATOM     30  H   UNL     1      -4.136 -13.911  18.416  0.00  0.00    +0.148 HD
BRANCH   9   1
ATOM      1  S   UNL     1      -4.991 -15.444  16.788  0.00  0.00    +0.059 S 
ATOM      7  O   UNL     1      -6.404 -15.724  16.622  0.00  0.00    -0.153 OA
ATOM      8  O   UNL     1      -4.112 -16.440  17.371  0.00  0.00    -0.153 OA
BRANCH   1  19
ATOM     19  C   UNL     1      -4.326 -15.034  15.201  0.00  0.00    +0.106 A 
ATOM     23  C   UNL     1      -2.963 -15.187  14.955  0.00  0.00    +0.047 A 
ATOM     24  C   UNL     1      -5.168 -14.557  14.196  0.00  0.00    +0.028 A 
ATOM     26  C   UNL     1      -2.439 -14.863  13.703  0.00  0.00    +0.054 A 
ATOM     27  C   UNL     1      -4.645 -14.233  12.945  0.00  0.00    +0.003 A 
ATOM     28  C   UNL     1      -3.281 -14.386  12.698  0.00  0.00    +0.019 A 
BRANCH  26  29
ATOM     10  N   UNL     1       0.094 -15.149  13.244  0.00  0.00    -0.191 NA
ATOM     29  C   UNL     1      -1.042 -15.020  13.450  0.00  0.00    +0.099 C 
ENDBRANCH  26  29
ENDBRANCH   1  19
ENDBRANCH   9   1
ENDBRANCH  12   9
TORSDOF 8
ENDMDL
MODEL 6
REMARK VINA RESULT:      -5.6     37.319     39.312
REMARK  Name = 71694024
REMARK  8 active torsions:
REMARK  status: ('A' for Active; 'I' for Inactive)
REMARK    1  A    between atoms: S_1  and  N_9
REMARK    2  A    between atoms: S_1  and  C_19
REMARK    3  A    between atoms: O_5  and  C_13
REMARK    4  A    between atoms: O_6  and  C_15
REMARK    5  A    between atoms: N_9  and  C_12
REMARK    6  A    between atoms: C_11  and  C_16
REMARK    7  A    between atoms: C_22  and  C_25
REMARK    8  A    between atoms: C_26  and  C_29
REMARK                            x       y       z     vdW  Elec       q    Type
REMARK                         _______ _______ _______ _____ _____    ______ ____
ROOT
ATOM     11  C   UNL     1      10.146   7.071   5.857  0.00  0.00    +0.043 C 
ATOM     12  C   UNL     1      11.407   6.806   6.725  0.00  0.00    +0.115 C 
ATOM     13  C   UNL     1      10.891   6.211   8.043  0.00  0.00    +0.162 C 
ATOM     14  C   UNL     1       8.967   6.497   6.661  0.00  0.00    +0.043 C 
ATOM     15  C   UNL     1       9.429   6.645   8.103  0.00  0.00    +0.145 C 
ENDROOT
BRANCH  11  16
ATOM     16  C   UNL     1      10.236   6.511   4.455  0.00  0.00    -0.043 A 
ATOM     17  C   UNL     1       9.692   7.220   3.384  0.00  0.00    +0.004 A 
ATOM     18  C   UNL     1      10.862   5.285   4.232  0.00  0.00    +0.004 A 
ATOM     20  C   UNL     1       9.776   6.705   2.091  0.00  0.00    +0.012 A 
ATOM     21  C   UNL     1      10.945   4.768   2.939  0.00  0.00    +0.012 A 
ATOM     22  C   UNL     1      10.402   5.479   1.868  0.00  0.00    +0.055 A 
BRANCH  22  25
ATOM      2  F   UNL     1       9.346   5.121  -0.232  0.00  0.00    -0.166 F 
ATOM      3  F   UNL     1      11.490   5.480  -0.263  0.00  0.00    -0.166 F 
ATOM      4  F   UNL     1      10.721   3.581   0.448  0.00  0.00    -0.166 F 
ATOM     25  C   UNL     1      10.490   4.926   0.485  0.00  0.00    +0.417 C 
ENDBRANCH  22  25
ENDBRANCH  11  16
BRANCH  13   5
ATOM      5  O   UNL     1      10.991   4.790   7.955  0.00  0.00    -0.388 OA
ATOM     31  H   UNL     1      11.314   4.576   7.063  0.00  0.00    +0.210 HD
ENDBRANCH  13   5
BRANCH  15   6
ATOM      6  O   UNL     1       8.659   5.848   8.979  0.00  0.00    -0.389 OA
ATOM     32  H   UNL     1       9.147   5.020   9.125  0.00  0.00    +0.210 HD
ENDBRANCH  15   6
BRANCH  12   9
ATOM      9  N   UNL     1      12.092   8.096   7.001  0.00  0.00    -0.184 NA
ATOM     30  H   UNL     1      11.522   8.879   7.343  0.00  0.00    +0.148 HD
BRANCH   9   1
ATOM      1  S   UNL     1      13.671   8.354   6.432  0.00  0.00    +0.059 S 
ATOM      7  O   UNL     1      14.509   7.230   6.804  0.00  0.00    -0.153 OA
ATOM      8  O   UNL     1      14.074   9.706   6.768  0.00  0.00    -0.153 OA
BRANCH   1  19
ATOM     19  C   UNL     1      13.439   8.305   4.680  0.00  0.00    +0.106 A 
ATOM     23  C   UNL     1      13.919   7.223   3.943  0.00  0.00    +0.047 A 
ATOM     24  C   UNL     1      12.776   9.349   4.035  0.00  0.00    +0.028 A 
ATOM     26  C   UNL     1      13.737   7.185   2.560  0.00  0.00    +0.054 A 
ATOM     27  C   UNL     1      12.594   9.311   2.654  0.00  0.00    +0.003 A 
ATOM     28  C   UNL     1      13.074   8.230   1.916  0.00  0.00    +0.019 A 
BRANCH  26  29
ATOM     10  N   UNL     1      14.627   5.176   1.190  0.00  0.00    -0.191 NA
ATOM     29  C   UNL     1      14.229   6.077   1.804  0.00  0.00    +0.099 C 
ENDBRANCH  26  29
ENDBRANCH   1  19
ENDBRANCH   9   1
ENDBRANCH  12   9
TORSDOF 8
ENDMDL
MODEL 7
REMARK VINA RESULT:      -5.6     20.870     22.955
REMARK  Name = 71694024
REMARK  8 active torsions:
REMARK  status: ('A' for Active; 'I' for Inactive)
REMARK    1  A    between atoms: S_1  and  N_9
REMARK    2  A    between atoms: S_1  and  C_19
REMARK    3  A    between atoms: O_5  and  C_13
REMARK    4  A    between atoms: O_6  and  C_15
REMARK    5  A    between atoms: N_9  and  C_12
REMARK    6  A    between atoms: C_11  and  C_16
REMARK    7  A    between atoms: C_22  and  C_25
REMARK    8  A    between atoms: C_26  and  C_29
REMARK                            x       y       z     vdW  Elec       q    Type
REMARK                         _______ _______ _______ _____ _____    ______ ____
ROOT
ATOM     11  C   UNL     1      -4.676 -10.535  16.593  0.00  0.00    +0.043 C 
ATOM     12  C   UNL     1      -4.594 -11.092  15.144  0.00  0.00    +0.115 C 
ATOM     13  C   UNL     1      -3.121 -11.461  14.920  0.00  0.00    +0.162 C 
ATOM     14  C   UNL     1      -3.270 -10.728  17.186  0.00  0.00    +0.043 C 
ATOM     15  C   UNL     1      -2.367 -10.643  15.965  0.00  0.00    +0.145 C 
ENDROOT
BRANCH  11  16
ATOM     16  C   UNL     1      -5.766 -11.164  17.432  0.00  0.00    -0.043 A 
ATOM     17  C   UNL     1      -6.080 -12.514  17.270  0.00  0.00    +0.004 A 
ATOM     18  C   UNL     1      -6.458 -10.395  18.367  0.00  0.00    +0.004 A 
ATOM     20  C   UNL     1      -7.083 -13.094  18.045  0.00  0.00    +0.012 A 
ATOM     21  C   UNL     1      -7.463 -10.975  19.142  0.00  0.00    +0.012 A 
ATOM     22  C   UNL     1      -7.775 -12.325  18.980  0.00  0.00    +0.055 A 
BRANCH  22  25
ATOM      2  F   UNL     1      -8.355 -13.740  20.801  0.00  0.00    -0.166 F 
ATOM      3  F   UNL     1      -9.654 -12.036  20.434  0.00  0.00    -0.166 F 
ATOM      4  F   UNL     1      -9.701 -13.740  19.093  0.00  0.00    -0.166 F 
ATOM     25  C   UNL     1      -8.850 -12.946  19.808  0.00  0.00    +0.417 C 
ENDBRANCH  22  25
ENDBRANCH  11  16
BRANCH  13   5
ATOM      5  O   UNL     1      -2.973 -12.858  15.171  0.00  0.00    -0.388 OA
ATOM     31  H   UNL     1      -2.493 -12.953  16.011  0.00  0.00    +0.210 HD
ENDBRANCH  13   5
BRANCH  15   6
ATOM      6  O   UNL     1      -1.079 -11.159  16.236  0.00  0.00    -0.389 OA
ATOM     32  H   UNL     1      -0.887 -11.833  15.562  0.00  0.00    +0.210 HD
ENDBRANCH  15   6
BRANCH  12   9
ATOM      9  N   UNL     1      -4.986 -10.025  14.186  0.00  0.00    -0.184 NA
ATOM     30  H   UNL     1      -4.601  -9.085  14.330  0.00  0.00    +0.148 HD
BRANCH   9   1
ATOM      1  S   UNL     1      -6.290 -10.277  13.127  0.00  0.00    +0.059 S 
ATOM      7  O   UNL     1      -6.059 -11.484  12.355  0.00  0.00    -0.153 OA
ATOM      8  O   UNL     1      -6.594  -9.028  12.455  0.00  0.00    -0.153 OA
BRANCH   1  19
ATOM     19  C   UNL     1      -7.617 -10.595  14.251  0.00  0.00    +0.106 A 
ATOM     23  C   UNL     1      -8.095  -9.576  15.073  0.00  0.00    +0.047 A 
ATOM     24  C   UNL     1      -8.185 -11.868  14.316  0.00  0.00    +0.028 A 
ATOM     26  C   UNL     1      -9.140  -9.827  15.961  0.00  0.00    +0.054 A 
ATOM     27  C   UNL     1      -9.230 -12.120  15.204  0.00  0.00    +0.003 A 
ATOM     28  C   UNL     1      -9.709 -11.100  16.026  0.00  0.00    +0.019 A 
BRANCH  26  29
ATOM     10  N   UNL     1     -10.029  -7.934  17.488  0.00  0.00    -0.191 NA
ATOM     29  C   UNL     1      -9.631  -8.783  16.803  0.00  0.00    +0.099 C 
ENDBRANCH  26  29
ENDBRANCH   1  19
ENDBRANCH   9   1
ENDBRANCH  12   9
TORSDOF 8
ENDMDL
MODEL 8
REMARK VINA RESULT:      -5.6     23.291     26.683
REMARK  Name = 71694024
REMARK  8 active torsions:
REMARK  status: ('A' for Active; 'I' for Inactive)
REMARK    1  A    between atoms: S_1  and  N_9
REMARK    2  A    between atoms: S_1  and  C_19
REMARK    3  A    between atoms: O_5  and  C_13
REMARK    4  A    between atoms: O_6  and  C_15
REMARK    5  A    between atoms: N_9  and  C_12
REMARK    6  A    between atoms: C_11  and  C_16
REMARK    7  A    between atoms: C_22  and  C_25
REMARK    8  A    between atoms: C_26  and  C_29
REMARK                            x       y       z     vdW  Elec       q    Type
REMARK                         _______ _______ _______ _____ _____    ______ ____
ROOT
ATOM     11  C   UNL     1      -3.988 -11.556  16.323  0.00  0.00    +0.043 C 
ATOM     12  C   UNL     1      -5.057 -12.674  16.460  0.00  0.00    +0.115 C 
ATOM     13  C   UNL     1      -6.020 -12.201  17.559  0.00  0.00    +0.162 C 
ATOM     14  C   UNL     1      -4.453 -10.427  17.258  0.00  0.00    +0.043 C 
ATOM     15  C   UNL     1      -5.213 -11.171  18.345  0.00  0.00    +0.145 C 
ENDROOT
BRANCH  11  16
ATOM     16  C   UNL     1      -3.761 -11.094  14.901  0.00  0.00    -0.043 A 
ATOM     17  C   UNL     1      -4.850 -10.847  14.065  0.00  0.00    +0.004 A 
ATOM     18  C   UNL     1      -2.462 -10.915  14.425  0.00  0.00    +0.004 A 
ATOM     20  C   UNL     1      -4.641 -10.420  12.754  0.00  0.00    +0.012 A 
ATOM     21  C   UNL     1      -2.253 -10.488  13.113  0.00  0.00    +0.012 A 
ATOM     22  C   UNL     1      -3.343 -10.241  12.278  0.00  0.00    +0.055 A 
BRANCH  22  25
ATOM      2  F   UNL     1      -3.358 -10.768   9.960  0.00  0.00    -0.166 F 
ATOM      3  F   UNL     1      -3.917  -8.739  10.505  0.00  0.00    -0.166 F 
ATOM      4  F   UNL     1      -1.843  -9.361  10.635  0.00  0.00    -0.166 F 
ATOM     25  C   UNL     1      -3.120  -9.785  10.875  0.00  0.00    +0.417 C 
ENDBRANCH  22  25
ENDBRANCH  11  16
BRANCH  13   5
ATOM      5  O   UNL     1      -7.142 -11.586  16.927  0.00  0.00    -0.388 OA
ATOM     31  H   UNL     1      -7.465 -10.888  17.523  0.00  0.00    +0.210 HD
ENDBRANCH  13   5
BRANCH  15   6
ATOM      6  O   UNL     1      -6.030 -10.297  19.097  0.00  0.00    -0.389 OA
ATOM     32  H   UNL     1      -5.477  -9.547  19.375  0.00  0.00    +0.210 HD
ENDBRANCH  15   6
BRANCH  12   9
ATOM      9  N   UNL     1      -4.398 -13.934  16.893  0.00  0.00    -0.184 NA
ATOM     30  H   UNL     1      -3.700 -13.877  17.644  0.00  0.00    +0.148 HD
BRANCH   9   1
ATOM      1  S   UNL     1      -4.535 -15.332  15.938  0.00  0.00    +0.059 S 
ATOM      7  O   UNL     1      -5.937 -15.644  15.737  0.00  0.00    -0.153 OA
ATOM      8  O   UNL     1      -3.629 -16.341  16.453  0.00  0.00    -0.153 OA
BRANCH   1  19
ATOM     19  C   UNL     1      -3.872 -14.784  14.393  0.00  0.00    +0.106 A 
ATOM     23  C   UNL     1      -4.728 -14.455  13.343  0.00  0.00    +0.047 A 
ATOM     24  C   UNL     1      -2.490 -14.682  14.225  0.00  0.00    +0.028 A 
ATOM     26  C   UNL     1      -4.205 -14.024  12.124  0.00  0.00    +0.054 A 
ATOM     27  C   UNL     1      -1.967 -14.251  13.006  0.00  0.00    +0.003 A 
ATOM     28  C   UNL     1      -2.823 -13.922  11.956  0.00  0.00    +0.019 A 
BRANCH  26  29
ATOM     10  N   UNL     1      -5.794 -13.410  10.174  0.00  0.00    -0.191 NA
ATOM     29  C   UNL     1      -5.082 -13.685  11.048  0.00  0.00    +0.099 C 
ENDBRANCH  26  29
ENDBRANCH   1  19
ENDBRANCH   9   1
ENDBRANCH  12   9
TORSDOF 8
ENDMDL
MODEL 9
REMARK VINA RESULT:      -5.6      4.159      5.594
REMARK  Name = 71694024
REMARK  8 active torsions:
REMARK  status: ('A' for Active; 'I' for Inactive)
REMARK    1  A    between atoms: S_1  and  N_9
REMARK    2  A    between atoms: S_1  and  C_19
REMARK    3  A    between atoms: O_5  and  C_13
REMARK    4  A    between atoms: O_6  and  C_15
REMARK    5  A    between atoms: N_9  and  C_12
REMARK    6  A    between atoms: C_11  and  C_16
REMARK    7  A    between atoms: C_22  and  C_25
REMARK    8  A    between atoms: C_26  and  C_29
REMARK                            x       y       z     vdW  Elec       q    Type
REMARK                         _______ _______ _______ _____ _____    ______ ____
ROOT
ATOM     11  C   UNL     1     -16.094   1.796  30.459  0.00  0.00    +0.043 C 
ATOM     12  C   UNL     1     -14.687   2.203  30.980  0.00  0.00    +0.115 C 
ATOM     13  C   UNL     1     -13.783   0.986  30.741  0.00  0.00    +0.162 C 
ATOM     14  C   UNL     1     -15.909   0.407  29.824  0.00  0.00    +0.043 C 
ATOM     15  C   UNL     1     -14.756  -0.185  30.620  0.00  0.00    +0.145 C 
ENDROOT
BRANCH  11  16
ATOM     16  C   UNL     1     -16.715   2.802  29.516  0.00  0.00    -0.043 A 
ATOM     17  C   UNL     1     -18.094   3.015  29.534  0.00  0.00    +0.004 A 
ATOM     18  C   UNL     1     -15.911   3.515  28.628  0.00  0.00    +0.004 A 
ATOM     20  C   UNL     1     -18.667   3.943  28.665  0.00  0.00    +0.012 A 
ATOM     21  C   UNL     1     -16.484   4.443  27.758  0.00  0.00    +0.012 A 
ATOM     22  C   UNL     1     -17.863   4.657  27.777  0.00  0.00    +0.055 A 
BRANCH  22  25
ATOM      2  F   UNL     1     -19.195   6.606  27.501  0.00  0.00    -0.166 F 
ATOM      3  F   UNL     1     -17.564   6.329  26.091  0.00  0.00    -0.166 F 
ATOM      4  F   UNL     1     -19.340   5.093  25.947  0.00  0.00    -0.166 F 
ATOM     25  C   UNL     1     -18.476   5.649  26.847  0.00  0.00    +0.417 C 
ENDBRANCH  22  25
ENDBRANCH  11  16
BRANCH  13   5
ATOM      5  O   UNL     1     -13.085   1.189  29.513  0.00  0.00    -0.388 OA
ATOM     31  H   UNL     1     -12.824   2.126  29.479  0.00  0.00    +0.210 HD
ENDBRANCH  13   5
BRANCH  15   6
ATOM      6  O   UNL     1     -14.189  -1.299  29.960  0.00  0.00    -0.389 OA
ATOM     32  H   UNL     1     -14.638  -2.094  30.293  0.00  0.00    +0.210 HD
ENDBRANCH  15   6
BRANCH  12   9
ATOM      9  N   UNL     1     -14.765   2.480  32.438  0.00  0.00    -0.184 NA
ATOM     30  H   UNL     1     -15.182   1.761  33.042  0.00  0.00    +0.148 HD
BRANCH   9   1
ATOM      1  S   UNL     1     -14.507   4.057  33.015  0.00  0.00    +0.059 S 
ATOM      7  O   UNL     1     -13.338   4.623  32.368  0.00  0.00    -0.153 OA
ATOM      8  O   UNL     1     -14.608   4.048  34.462  0.00  0.00    -0.153 OA
BRANCH   1  19
ATOM     19  C   UNL     1     -15.933   4.906  32.403  0.00  0.00    +0.106 A 
ATOM     23  C   UNL     1     -15.798   5.858  31.393  0.00  0.00    +0.047 A 
ATOM     24  C   UNL     1     -17.192   4.624  32.933  0.00  0.00    +0.028 A 
ATOM     26  C   UNL     1     -16.923   6.528  30.912  0.00  0.00    +0.054 A 
ATOM     27  C   UNL     1     -18.316   5.294  32.452  0.00  0.00    +0.003 A 
ATOM     28  C   UNL     1     -18.182   6.246  31.442  0.00  0.00    +0.019 A 
BRANCH  26  29
ATOM     10  N   UNL     1     -16.675   8.296  29.035  0.00  0.00    -0.191 NA
ATOM     29  C   UNL     1     -16.786   7.503  29.876  0.00  0.00    +0.099 C 
ENDBRANCH  26  29
ENDBRANCH   1  19
ENDBRANCH   9   1
ENDBRANCH  12   9
TORSDOF 8
ENDMDL
MODEL 10
REMARK VINA RESULT:      -5.6     11.058     13.177
REMARK  Name = 71694024
REMARK  8 active torsions:
REMARK  status: ('A' for Active; 'I' for Inactive)
REMARK    1  A    between atoms: S_1  and  N_9
REMARK    2  A    between atoms: S_1  and  C_19
REMARK    3  A    between atoms: O_5  and  C_13
REMARK    4  A    between atoms: O_6  and  C_15
REMARK    5  A    between atoms: N_9  and  C_12
REMARK    6  A    between atoms: C_11  and  C_16
REMARK    7  A    between atoms: C_22  and  C_25
REMARK    8  A    between atoms: C_26  and  C_29
REMARK                            x       y       z     vdW  Elec       q    Type
REMARK                         _______ _______ _______ _____ _____    ______ ____
ROOT
ATOM     11  C   UNL     1     -15.071   6.965  21.211  0.00  0.00    +0.043 C 
ATOM     12  C   UNL     1     -14.822   7.304  22.707  0.00  0.00    +0.115 C 
ATOM     13  C   UNL     1     -15.137   6.020  23.486  0.00  0.00    +0.162 C 
ATOM     14  C   UNL     1     -15.394   5.461  21.181  0.00  0.00    +0.043 C 
ATOM     15  C   UNL     1     -16.028   5.217  22.542  0.00  0.00    +0.145 C 
ENDROOT
BRANCH  11  16
ATOM     16  C   UNL     1     -13.928   7.345  20.296  0.00  0.00    -0.043 A 
ATOM     17  C   UNL     1     -14.193   7.854  19.024  0.00  0.00    +0.004 A 
ATOM     18  C   UNL     1     -12.610   7.186  20.723  0.00  0.00    +0.004 A 
ATOM     20  C   UNL     1     -13.140   8.205  18.181  0.00  0.00    +0.012 A 
ATOM     21  C   UNL     1     -11.556   7.537  19.879  0.00  0.00    +0.012 A 
ATOM     22  C   UNL     1     -11.822   8.046  18.608  0.00  0.00    +0.055 A 
BRANCH  22  25
ATOM      2  F   UNL     1     -10.148   7.343  17.072  0.00  0.00    -0.166 F 
ATOM      3  F   UNL     1     -11.054   9.286  16.710  0.00  0.00    -0.166 F 
ATOM      4  F   UNL     1      -9.657   9.032  18.350  0.00  0.00    -0.166 F 
ATOM     25  C   UNL     1     -10.694   8.421  17.705  0.00  0.00    +0.417 C 
ENDBRANCH  22  25
ENDBRANCH  11  16
BRANCH  13   5
ATOM      5  O   UNL     1     -13.908   5.334  23.722  0.00  0.00    -0.388 OA
ATOM     31  H   UNL     1     -13.608   4.972  22.870  0.00  0.00    +0.210 HD
ENDBRANCH  13   5
BRANCH  15   6
ATOM      6  O   UNL     1     -16.061   3.841  22.859  0.00  0.00    -0.389 OA
ATOM     32  H   UNL     1     -15.260   3.436  22.485  0.00  0.00    +0.210 HD
ENDBRANCH  15   6
BRANCH  12   9
ATOM      9  N   UNL     1     -15.759   8.378  23.129  0.00  0.00    -0.184 NA
ATOM     30  H   UNL     1     -16.746   8.287  22.860  0.00  0.00    +0.148 HD
BRANCH   9   1
ATOM      1  S   UNL     1     -15.149   9.853  23.711  0.00  0.00    +0.059 S 
ATOM      7  O   UNL     1     -14.241   9.599  24.813  0.00  0.00    -0.153 OA
ATOM      8  O   UNL     1     -16.250  10.784  23.871  0.00  0.00    -0.153 OA
BRANCH   1  19
ATOM     19  C   UNL     1     -14.191  10.419  22.336  0.00  0.00    +0.106 A 
ATOM     23  C   UNL     1     -14.827  10.850  21.173  0.00  0.00    +0.047 A 
ATOM     24  C   UNL     1     -12.798  10.432  22.416  0.00  0.00    +0.028 A 
ATOM     26  C   UNL     1     -14.071  11.294  20.088  0.00  0.00    +0.054 A 
ATOM     27  C   UNL     1     -12.042  10.876  21.332  0.00  0.00    +0.003 A 
ATOM     28  C   UNL     1     -12.677  11.308  20.168  0.00  0.00    +0.019 A 
BRANCH  26  29
ATOM     10  N   UNL     1     -15.249  12.098  17.927  0.00  0.00    -0.191 NA
ATOM     29  C   UNL     1     -14.721  11.737  18.896  0.00  0.00    +0.099 C 
ENDBRANCH  26  29
ENDBRANCH   1  19
ENDBRANCH   9   1
ENDBRANCH  12   9
TORSDOF 8
ENDMDL
