MODEL 1
REMARK VINA RESULT:      -6.5      0.000      0.000
REMARK  Name = 26742460
REMARK  10 active torsions:
REMARK  status: ('A' for Active; 'I' for Inactive)
REMARK    1  A    between atoms: O_3  and  C_31
REMARK    2  A    between atoms: O_3  and  C_34
REMARK    3  A    between atoms: O_4  and  C_32
REMARK    4  A    between atoms: O_4  and  C_35
REMARK    5  A    between atoms: N_6  and  C_17
REMARK    6  A    between atoms: N_9  and  C_26
REMARK    7  A    between atoms: C_11  and  C_18
REMARK    8  A    between atoms: C_12  and  C_17
REMARK    9  A    between atoms: C_20  and  C_23
REMARK   10  A    between atoms: C_21  and  C_24
REMARK                            x       y       z     vdW  Elec       q    Type
REMARK                         _______ _______ _______ _____ _____    ______ ____
ROOT
ATOM      5  N   UNL     1      -5.838 -10.483   9.621  0.00  0.00    -0.297 NA
ATOM     10  C   UNL     1      -3.845  -9.263  10.771  0.00  0.00    +0.002 C 
ATOM     11  C   UNL     1      -3.863 -10.766  11.166  0.00  0.00    +0.055 C 
ATOM     12  C   UNL     1      -6.317  -9.244  10.290  0.00  0.00    +0.074 C 
ATOM     13  C   UNL     1      -5.196  -8.619  11.148  0.00  0.00    +0.024 C 
ATOM     14  C   UNL     1      -3.729  -9.209   9.232  0.00  0.00    +0.019 C 
ATOM     15  C   UNL     1      -5.183 -11.375  10.610  0.00  0.00    +0.094 C 
ATOM     16  C   UNL     1      -4.826 -10.091   8.611  0.00  0.00    +0.085 C 
ENDROOT
BRANCH  11  18
ATOM      7  N   UNL     1      -2.622 -10.490  13.255  0.00  0.00    -0.237 NA
ATOM      8  N   UNL     1      -3.164 -11.738  15.244  0.00  0.00    -0.229 NA
ATOM     18  C   UNL     1      -3.630 -11.129  12.625  0.00  0.00    +0.050 A 
ATOM     19  C   UNL     1      -4.436 -12.071  13.230  0.00  0.00    +0.055 A 
ATOM     20  C   UNL     1      -4.154 -12.338  14.553  0.00  0.00    +0.110 A 
ATOM     21  C   UNL     1      -2.447 -10.838  14.545  0.00  0.00    +0.127 A 
ATOM     24  C   UNL     1      -1.343 -10.152  15.276  0.00  0.00    +0.088 C 
BRANCH  20  23
ATOM      2  O   UNL     1      -4.191 -14.284  15.898  0.00  0.00    -0.461 OA
ATOM     23  C   UNL     1      -4.917 -13.300  15.304  0.00  0.00    +0.153 A 
ATOM     25  C   UNL     1      -6.257 -13.462  15.569  0.00  0.00    +0.051 A 
ATOM     27  C   UNL     1      -6.361 -14.620  16.377  0.00  0.00    +0.042 A 
ATOM     28  C   UNL     1      -5.078 -15.082  16.549  0.00  0.00    +0.196 A 
ENDBRANCH  20  23
ENDBRANCH  11  18
BRANCH  12  17
ATOM     17  C   UNL     1      -7.594  -9.477  11.101  0.00  0.00    +0.124 C 
BRANCH  17   6
ATOM      1  O   UNL     1      -7.726 -11.206  13.381  0.00  0.00    -0.253 OA
ATOM      6  N   UNL     1      -7.404  -9.105  12.469  0.00  0.00    -0.298 N 
ATOM      9  N   UNL     1      -7.256  -9.364  14.757  0.00  0.00    -0.269 N 
ATOM     22  C   UNL     1      -7.485 -10.012  13.541  0.00  0.00    +0.304 C 
ATOM     36  H   UNL     1      -7.206  -8.131  12.679  0.00  0.00    +0.150 HD
ATOM     37  H   UNL     1      -7.070  -8.365  14.715  0.00  0.00    +0.156 HD
BRANCH   9  26
ATOM     26  C   UNL     1      -7.252  -9.928  16.054  0.00  0.00    +0.042 A 
ATOM     29  C   UNL     1      -6.050 -10.084  16.744  0.00  0.00    +0.069 A 
ATOM     30  C   UNL     1      -8.451 -10.330  16.643  0.00  0.00    +0.069 A 
ATOM     31  C   UNL     1      -8.448 -10.887  17.923  0.00  0.00    +0.125 A 
ATOM     32  C   UNL     1      -6.046 -10.641  18.023  0.00  0.00    +0.125 A 
ATOM     33  C   UNL     1      -7.246 -11.042  18.612  0.00  0.00    +0.091 A 
BRANCH  31   3
ATOM      3  O   UNL     1      -9.618 -11.279  18.498  0.00  0.00    -0.495 OA
ATOM     34  C   UNL     1      -9.858 -10.848  19.836  0.00  0.00    +0.277 C 
ENDBRANCH  31   3
BRANCH  32   4
ATOM      4  O   UNL     1      -4.874 -10.793  18.696  0.00  0.00    -0.495 OA
ATOM     35  C   UNL     1      -4.458 -12.128  18.984  0.00  0.00    +0.277 C 
ENDBRANCH  32   4
ENDBRANCH   9  26
ENDBRANCH  17   6
ENDBRANCH  12  17
TORSDOF 7
ENDMDL
MODEL 2
REMARK VINA RESULT:      -6.4      0.652      1.978
REMARK  Name = 26742460
REMARK  10 active torsions:
REMARK  status: ('A' for Active; 'I' for Inactive)
REMARK    1  A    between atoms: O_3  and  C_31
REMARK    2  A    between atoms: O_3  and  C_34
REMARK    3  A    between atoms: O_4  and  C_32
REMARK    4  A    between atoms: O_4  and  C_35
REMARK    5  A    between atoms: N_6  and  C_17
REMARK    6  A    between atoms: N_9  and  C_26
REMARK    7  A    between atoms: C_11  and  C_18
REMARK    8  A    between atoms: C_12  and  C_17
REMARK    9  A    between atoms: C_20  and  C_23
REMARK   10  A    between atoms: C_21  and  C_24
REMARK                            x       y       z     vdW  Elec       q    Type
REMARK                         _______ _______ _______ _____ _____    ______ ____
ROOT
ATOM      5  N   UNL     1      -5.758 -10.594   9.627  0.00  0.00    -0.297 NA
ATOM     10  C   UNL     1      -3.931  -9.119  10.753  0.00  0.00    +0.002 C 
ATOM     11  C   UNL     1      -3.791 -10.598  11.207  0.00  0.00    +0.055 C 
ATOM     12  C   UNL     1      -6.382  -9.391  10.240  0.00  0.00    +0.074 C 
ATOM     13  C   UNL     1      -5.350  -8.614  11.086  0.00  0.00    +0.024 C 
ATOM     14  C   UNL     1      -3.796  -9.110   9.215  0.00  0.00    +0.019 C 
ATOM     15  C   UNL     1      -5.026 -11.370  10.659  0.00  0.00    +0.094 C 
ATOM     16  C   UNL     1      -4.779 -10.131   8.615  0.00  0.00    +0.085 C 
ENDROOT
BRANCH  11  18
ATOM      7  N   UNL     1      -2.458 -10.297  13.236  0.00  0.00    -0.237 NA
ATOM      8  N   UNL     1      -3.049 -11.340  15.325  0.00  0.00    -0.229 NA
ATOM     18  C   UNL     1      -3.544 -10.877  12.682  0.00  0.00    +0.050 A 
ATOM     19  C   UNL     1      -4.416 -11.690  13.376  0.00  0.00    +0.055 A 
ATOM     20  C   UNL     1      -4.116 -11.888  14.708  0.00  0.00    +0.110 A 
ATOM     21  C   UNL     1      -2.273 -10.567  14.542  0.00  0.00    +0.127 A 
ATOM     24  C   UNL     1      -1.084  -9.942  15.190  0.00  0.00    +0.088 C 
BRANCH  20  23
ATOM      2  O   UNL     1      -4.457 -12.942  16.798  0.00  0.00    -0.461 OA
ATOM     23  C   UNL     1      -4.941 -12.715  15.549  0.00  0.00    +0.153 A 
ATOM     25  C   UNL     1      -6.148 -13.352  15.375  0.00  0.00    +0.051 A 
ATOM     27  C   UNL     1      -6.423 -14.013  16.596  0.00  0.00    +0.042 A 
ATOM     28  C   UNL     1      -5.365 -13.732  17.429  0.00  0.00    +0.196 A 
ENDBRANCH  20  23
ENDBRANCH  11  18
BRANCH  12  17
ATOM     17  C   UNL     1      -7.638  -9.733  11.044  0.00  0.00    +0.124 C 
BRANCH  17   6
ATOM      1  O   UNL     1      -7.993 -11.261  13.439  0.00  0.00    -0.253 OA
ATOM      6  N   UNL     1      -7.531  -9.254  12.387  0.00  0.00    -0.298 N 
ATOM      9  N   UNL     1      -7.552  -9.328  14.694  0.00  0.00    -0.269 N 
ATOM     22  C   UNL     1      -7.720 -10.066  13.520  0.00  0.00    +0.304 C 
ATOM     36  H   UNL     1      -7.311  -8.273  12.532  0.00  0.00    +0.150 HD
ATOM     37  H   UNL     1      -7.326  -8.342  14.584  0.00  0.00    +0.156 HD
BRANCH   9  26
ATOM     26  C   UNL     1      -7.660  -9.782  16.029  0.00  0.00    +0.042 A 
ATOM     29  C   UNL     1      -8.911 -10.095  16.561  0.00  0.00    +0.069 A 
ATOM     30  C   UNL     1      -6.515  -9.916  16.814  0.00  0.00    +0.069 A 
ATOM     31  C   UNL     1      -6.621 -10.364  18.132  0.00  0.00    +0.125 A 
ATOM     32  C   UNL     1      -9.017 -10.543  17.877  0.00  0.00    +0.125 A 
ATOM     33  C   UNL     1      -7.872 -10.678  18.662  0.00  0.00    +0.091 A 
BRANCH  31   3
ATOM      3  O   UNL     1      -5.504 -10.496  18.898  0.00  0.00    -0.495 OA
ATOM     34  C   UNL     1      -5.637 -11.219  20.120  0.00  0.00    +0.277 C 
ENDBRANCH  31   3
BRANCH  32   4
ATOM      4  O   UNL     1     -10.237 -10.849  18.396  0.00  0.00    -0.495 OA
ATOM     35  C   UNL     1     -10.459 -10.524  19.768  0.00  0.00    +0.277 C 
ENDBRANCH  32   4
ENDBRANCH   9  26
ENDBRANCH  17   6
ENDBRANCH  12  17
TORSDOF 7
ENDMDL
MODEL 3
REMARK VINA RESULT:      -6.4      1.813      2.755
REMARK  Name = 26742460
REMARK  10 active torsions:
REMARK  status: ('A' for Active; 'I' for Inactive)
REMARK    1  A    between atoms: O_3  and  C_31
REMARK    2  A    between atoms: O_3  and  C_34
REMARK    3  A    between atoms: O_4  and  C_32
REMARK    4  A    between atoms: O_4  and  C_35
REMARK    5  A    between atoms: N_6  and  C_17
REMARK    6  A    between atoms: N_9  and  C_26
REMARK    7  A    between atoms: C_11  and  C_18
REMARK    8  A    between atoms: C_12  and  C_17
REMARK    9  A    between atoms: C_20  and  C_23
REMARK   10  A    between atoms: C_21  and  C_24
REMARK                            x       y       z     vdW  Elec       q    Type
REMARK                         _______ _______ _______ _____ _____    ______ ____
ROOT
ATOM      5  N   UNL     1      -5.641 -10.562   9.550  0.00  0.00    -0.297 NA
ATOM     10  C   UNL     1      -3.641  -9.259  10.590  0.00  0.00    +0.002 C 
ATOM     11  C   UNL     1      -3.388 -10.790  10.662  0.00  0.00    +0.055 C 
ATOM     12  C   UNL     1      -6.140  -9.562  10.530  0.00  0.00    +0.074 C 
ATOM     13  C   UNL     1      -4.966  -8.926  11.306  0.00  0.00    +0.024 C 
ATOM     14  C   UNL     1      -3.830  -8.908   9.099  0.00  0.00    +0.019 C 
ATOM     15  C   UNL     1      -4.699 -11.498  10.213  0.00  0.00    +0.094 C 
ATOM     16  C   UNL     1      -4.901  -9.832   8.493  0.00  0.00    +0.085 C 
ENDROOT
BRANCH  11  18
ATOM      7  N   UNL     1      -2.415 -10.483  12.885  0.00  0.00    -0.237 NA
ATOM      8  N   UNL     1      -1.832 -12.345  14.299  0.00  0.00    -0.229 NA
ATOM     18  C   UNL     1      -2.835 -11.368  11.956  0.00  0.00    +0.050 A 
ATOM     19  C   UNL     1      -2.786 -12.736  12.125  0.00  0.00    +0.055 A 
ATOM     20  C   UNL     1      -2.270 -13.172  13.328  0.00  0.00    +0.110 A 
ATOM     21  C   UNL     1      -1.932 -11.032  14.016  0.00  0.00    +0.127 A 
ATOM     24  C   UNL     1      -1.459 -10.085  15.067  0.00  0.00    +0.088 C 
BRANCH  20  23
ATOM      2  O   UNL     1      -1.403 -15.301  12.772  0.00  0.00    -0.461 OA
ATOM     23  C   UNL     1      -2.160 -14.574  13.634  0.00  0.00    +0.153 A 
ATOM     25  C   UNL     1      -2.663 -15.377  14.632  0.00  0.00    +0.051 A 
ATOM     27  C   UNL     1      -2.184 -16.682  14.365  0.00  0.00    +0.042 A 
ATOM     28  C   UNL     1      -1.421 -16.583  13.225  0.00  0.00    +0.196 A 
ENDBRANCH  20  23
ENDBRANCH  11  18
BRANCH  12  17
ATOM     17  C   UNL     1      -7.197 -10.145  11.471  0.00  0.00    +0.124 C 
BRANCH  17   6
ATOM      1  O   UNL     1      -6.634 -11.674  13.826  0.00  0.00    -0.253 OA
ATOM      6  N   UNL     1      -7.032  -9.640  12.799  0.00  0.00    -0.298 N 
ATOM      9  N   UNL     1      -6.649  -9.687  15.074  0.00  0.00    -0.269 N 
ATOM     22  C   UNL     1      -6.756 -10.455  13.912  0.00  0.00    +0.304 C 
ATOM     36  H   UNL     1      -7.125  -8.640  12.948  0.00  0.00    +0.150 HD
ATOM     37  H   UNL     1      -6.779  -8.684  14.972  0.00  0.00    +0.156 HD
BRANCH   9  26
ATOM     26  C   UNL     1      -6.381 -10.135  16.389  0.00  0.00    +0.042 A 
ATOM     29  C   UNL     1      -7.399 -10.146  17.343  0.00  0.00    +0.069 A 
ATOM     30  C   UNL     1      -5.098 -10.562  16.732  0.00  0.00    +0.069 A 
ATOM     31  C   UNL     1      -4.834 -11.004  18.029  0.00  0.00    +0.125 A 
ATOM     32  C   UNL     1      -7.134 -10.587  18.639  0.00  0.00    +0.125 A 
ATOM     33  C   UNL     1      -5.852 -11.016  18.982  0.00  0.00    +0.091 A 
BRANCH  31   3
ATOM      3  O   UNL     1      -3.582 -11.422  18.364  0.00  0.00    -0.495 OA
ATOM     34  C   UNL     1      -3.474 -12.330  19.459  0.00  0.00    +0.277 C 
ENDBRANCH  31   3
BRANCH  32   4
ATOM      4  O   UNL     1      -8.126 -10.599  19.570  0.00  0.00    -0.495 OA
ATOM     35  C   UNL     1      -9.109 -11.628  19.459  0.00  0.00    +0.277 C 
ENDBRANCH  32   4
ENDBRANCH   9  26
ENDBRANCH  17   6
ENDBRANCH  12  17
TORSDOF 7
ENDMDL
MODEL 4
REMARK VINA RESULT:      -6.2      1.954      3.304
REMARK  Name = 26742460
REMARK  10 active torsions:
REMARK  status: ('A' for Active; 'I' for Inactive)
REMARK    1  A    between atoms: O_3  and  C_31
REMARK    2  A    between atoms: O_3  and  C_34
REMARK    3  A    between atoms: O_4  and  C_32
REMARK    4  A    between atoms: O_4  and  C_35
REMARK    5  A    between atoms: N_6  and  C_17
REMARK    6  A    between atoms: N_9  and  C_26
REMARK    7  A    between atoms: C_11  and  C_18
REMARK    8  A    between atoms: C_12  and  C_17
REMARK    9  A    between atoms: C_20  and  C_23
REMARK   10  A    between atoms: C_21  and  C_24
REMARK                            x       y       z     vdW  Elec       q    Type
REMARK                         _______ _______ _______ _____ _____    ______ ____
ROOT
ATOM      5  N   UNL     1      -7.092 -11.148   8.503  0.00  0.00    -0.297 NA
ATOM     10  C   UNL     1      -4.983  -9.621   8.440  0.00  0.00    +0.002 C 
ATOM     11  C   UNL     1      -4.615 -11.033   8.972  0.00  0.00    +0.055 C 
ATOM     12  C   UNL     1      -7.383  -9.849   9.167  0.00  0.00    +0.074 C 
ATOM     13  C   UNL     1      -6.094  -9.015   9.323  0.00  0.00    +0.024 C 
ATOM     14  C   UNL     1      -5.581  -9.818   7.030  0.00  0.00    +0.019 C 
ATOM     15  C   UNL     1      -5.946 -11.814   9.171  0.00  0.00    +0.094 C 
ATOM     16  C   UNL     1      -6.707 -10.864   7.100  0.00  0.00    +0.085 C 
ENDROOT
BRANCH  11  18
ATOM      7  N   UNL     1      -2.841 -10.109  10.379  0.00  0.00    -0.237 NA
ATOM      8  N   UNL     1      -2.041 -11.246  12.347  0.00  0.00    -0.229 NA
ATOM     18  C   UNL     1      -3.703 -11.129  10.186  0.00  0.00    +0.050 A 
ATOM     19  C   UNL     1      -3.791 -12.226  11.018  0.00  0.00    +0.055 A 
ATOM     20  C   UNL     1      -2.927 -12.231  12.094  0.00  0.00    +0.110 A 
ATOM     21  C   UNL     1      -2.051 -10.230  11.464  0.00  0.00    +0.127 A 
ATOM     24  C   UNL     1      -1.085  -9.121  11.712  0.00  0.00    +0.088 C 
BRANCH  20  23
ATOM      2  O   UNL     1      -4.126 -13.677  13.530  0.00  0.00    -0.461 OA
ATOM     23  C   UNL     1      -2.912 -13.314  13.041  0.00  0.00    +0.153 A 
ATOM     25  C   UNL     1      -1.918 -14.095  13.586  0.00  0.00    +0.051 A 
ATOM     27  C   UNL     1      -2.565 -14.995  14.466  0.00  0.00    +0.042 A 
ATOM     28  C   UNL     1      -3.906 -14.701  14.396  0.00  0.00    +0.196 A 
ENDBRANCH  20  23
ENDBRANCH  11  18
BRANCH  12  17
ATOM     17  C   UNL     1      -8.113 -10.028  10.500  0.00  0.00    +0.124 C 
BRANCH  17   6
ATOM      1  O   UNL     1      -7.288 -11.479  12.827  0.00  0.00    -0.253 OA
ATOM      6  N   UNL     1      -7.324  -9.529  11.584  0.00  0.00    -0.298 N 
ATOM      9  N   UNL     1      -6.190  -9.552  13.593  0.00  0.00    -0.269 N 
ATOM     22  C   UNL     1      -6.957 -10.303  12.699  0.00  0.00    +0.304 C 
ATOM     36  H   UNL     1      -7.018  -8.562  11.549  0.00  0.00    +0.150 HD
ATOM     37  H   UNL     1      -6.005  -8.586  13.336  0.00  0.00    +0.156 HD
BRANCH   9  26
ATOM     26  C   UNL     1      -5.634  -9.971  14.825  0.00  0.00    +0.042 A 
ATOM     29  C   UNL     1      -6.396  -9.909  15.991  0.00  0.00    +0.069 A 
ATOM     30  C   UNL     1      -4.322 -10.444  14.873  0.00  0.00    +0.069 A 
ATOM     31  C   UNL     1      -3.774 -10.856  16.088  0.00  0.00    +0.125 A 
ATOM     32  C   UNL     1      -5.848 -10.321  17.206  0.00  0.00    +0.125 A 
ATOM     33  C   UNL     1      -4.537 -10.795  17.254  0.00  0.00    +0.091 A 
BRANCH  31   3
ATOM      3  O   UNL     1      -2.494 -11.319  16.135  0.00  0.00    -0.495 OA
ATOM     34  C   UNL     1      -1.458 -10.394  15.808  0.00  0.00    +0.277 C 
ENDBRANCH  31   3
BRANCH  32   4
ATOM      4  O   UNL     1      -6.591 -10.261  18.344  0.00  0.00    -0.495 OA
ATOM     35  C   UNL     1      -5.957 -10.667  19.556  0.00  0.00    +0.277 C 
ENDBRANCH  32   4
ENDBRANCH   9  26
ENDBRANCH  17   6
ENDBRANCH  12  17
TORSDOF 7
ENDMDL
MODEL 5
REMARK VINA RESULT:      -6.2      3.803      7.426
REMARK  Name = 26742460
REMARK  10 active torsions:
REMARK  status: ('A' for Active; 'I' for Inactive)
REMARK    1  A    between atoms: O_3  and  C_31
REMARK    2  A    between atoms: O_3  and  C_34
REMARK    3  A    between atoms: O_4  and  C_32
REMARK    4  A    between atoms: O_4  and  C_35
REMARK    5  A    between atoms: N_6  and  C_17
REMARK    6  A    between atoms: N_9  and  C_26
REMARK    7  A    between atoms: C_11  and  C_18
REMARK    8  A    between atoms: C_12  and  C_17
REMARK    9  A    between atoms: C_20  and  C_23
REMARK   10  A    between atoms: C_21  and  C_24
REMARK                            x       y       z     vdW  Elec       q    Type
REMARK                         _______ _______ _______ _____ _____    ______ ____
ROOT
ATOM      5  N   UNL     1      -5.433 -11.044  10.630  0.00  0.00    -0.297 NA
ATOM     10  C   UNL     1      -3.168 -11.939  11.554  0.00  0.00    +0.002 C 
ATOM     11  C   UNL     1      -4.248 -11.938  12.671  0.00  0.00    +0.055 C 
ATOM     12  C   UNL     1      -4.332 -10.111  10.272  0.00  0.00    +0.074 C 
ATOM     13  C   UNL     1      -3.023 -10.513  10.982  0.00  0.00    +0.024 C 
ATOM     14  C   UNL     1      -3.707 -12.832  10.415  0.00  0.00    +0.019 C 
ATOM     15  C   UNL     1      -5.500 -11.208  12.104  0.00  0.00    +0.094 C 
ATOM     16  C   UNL     1      -5.122 -12.364  10.032  0.00  0.00    +0.085 C 
ENDROOT
BRANCH  11  18
ATOM      7  N   UNL     1      -2.558 -11.105  14.231  0.00  0.00    -0.237 NA
ATOM      8  N   UNL     1      -3.094 -10.499  16.500  0.00  0.00    -0.229 NA
ATOM     18  C   UNL     1      -3.856 -11.424  14.049  0.00  0.00    +0.050 A 
ATOM     19  C   UNL     1      -4.818 -11.309  15.031  0.00  0.00    +0.055 A 
ATOM     20  C   UNL     1      -4.375 -10.837  16.249  0.00  0.00    +0.110 A 
ATOM     21  C   UNL     1      -2.250 -10.655  15.463  0.00  0.00    +0.127 A 
ATOM     24  C   UNL     1      -0.824 -10.290  15.702  0.00  0.00    +0.088 C 
BRANCH  20  23
ATOM      2  O   UNL     1      -6.494 -10.161  17.053  0.00  0.00    -0.461 OA
ATOM     23  C   UNL     1      -5.273 -10.669  17.362  0.00  0.00    +0.153 A 
ATOM     25  C   UNL     1      -5.177 -10.910  18.713  0.00  0.00    +0.051 A 
ATOM     27  C   UNL     1      -6.421 -10.526  19.269  0.00  0.00    +0.042 A 
ATOM     28  C   UNL     1      -7.187 -10.078  18.219  0.00  0.00    +0.196 A 
ENDBRANCH  20  23
ENDBRANCH  11  18
BRANCH  12  17
ATOM     17  C   UNL     1      -4.700  -8.649  10.536  0.00  0.00    +0.124 C 
BRANCH  17   6
ATOM      1  O   UNL     1      -7.515  -8.482  10.037  0.00  0.00    -0.253 OA
ATOM      6  N   UNL     1      -5.333  -8.067   9.392  0.00  0.00    -0.298 N 
ATOM      9  N   UNL     1      -7.053  -7.396   8.008  0.00  0.00    -0.269 N 
ATOM     22  C   UNL     1      -6.727  -8.022   9.214  0.00  0.00    +0.304 C 
ATOM     36  H   UNL     1      -4.743  -7.670   8.667  0.00  0.00    +0.150 HD
ATOM     37  H   UNL     1      -6.276  -7.070   7.439  0.00  0.00    +0.156 HD
BRANCH   9  26
ATOM     26  C   UNL     1      -8.341  -7.159   7.473  0.00  0.00    +0.042 A 
ATOM     29  C   UNL     1      -9.246  -6.354   8.165  0.00  0.00    +0.069 A 
ATOM     30  C   UNL     1      -8.705  -7.731   6.254  0.00  0.00    +0.069 A 
ATOM     31  C   UNL     1      -9.976  -7.497   5.726  0.00  0.00    +0.125 A 
ATOM     32  C   UNL     1     -10.516  -6.121   7.637  0.00  0.00    +0.125 A 
ATOM     33  C   UNL     1     -10.880  -6.692   6.417  0.00  0.00    +0.091 A 
BRANCH  31   3
ATOM      3  O   UNL     1     -10.331  -8.055   4.536  0.00  0.00    -0.495 OA
ATOM     34  C   UNL     1      -9.316  -8.757   3.820  0.00  0.00    +0.277 C 
ENDBRANCH  31   3
BRANCH  32   4
ATOM      4  O   UNL     1     -11.400  -5.336   8.311  0.00  0.00    -0.495 OA
ATOM     35  C   UNL     1     -10.866  -4.221   9.023  0.00  0.00    +0.277 C 
ENDBRANCH  32   4
ENDBRANCH   9  26
ENDBRANCH  17   6
ENDBRANCH  12  17
TORSDOF 7
ENDMDL
MODEL 6
REMARK VINA RESULT:      -6.2      3.893      7.392
REMARK  Name = 26742460
REMARK  10 active torsions:
REMARK  status: ('A' for Active; 'I' for Inactive)
REMARK    1  A    between atoms: O_3  and  C_31
REMARK    2  A    between atoms: O_3  and  C_34
REMARK    3  A    between atoms: O_4  and  C_32
REMARK    4  A    between atoms: O_4  and  C_35
REMARK    5  A    between atoms: N_6  and  C_17
REMARK    6  A    between atoms: N_9  and  C_26
REMARK    7  A    between atoms: C_11  and  C_18
REMARK    8  A    between atoms: C_12  and  C_17
REMARK    9  A    between atoms: C_20  and  C_23
REMARK   10  A    between atoms: C_21  and  C_24
REMARK                            x       y       z     vdW  Elec       q    Type
REMARK                         _______ _______ _______ _____ _____    ______ ____
ROOT
ATOM      5  N   UNL     1      -5.462 -11.017  10.658  0.00  0.00    -0.297 NA
ATOM     10  C   UNL     1      -3.162 -11.865  11.536  0.00  0.00    +0.002 C 
ATOM     11  C   UNL     1      -4.224 -11.904  12.670  0.00  0.00    +0.055 C 
ATOM     12  C   UNL     1      -4.391 -10.052  10.294  0.00  0.00    +0.074 C 
ATOM     13  C   UNL     1      -3.061 -10.430  10.980  0.00  0.00    +0.024 C 
ATOM     14  C   UNL     1      -3.696 -12.758  10.396  0.00  0.00    +0.019 C 
ATOM     15  C   UNL     1      -5.503 -11.200  12.131  0.00  0.00    +0.094 C 
ATOM     16  C   UNL     1      -5.128 -12.322  10.040  0.00  0.00    +0.085 C 
ENDROOT
BRANCH  11  18
ATOM      7  N   UNL     1      -2.534 -11.035  14.209  0.00  0.00    -0.237 NA
ATOM      8  N   UNL     1      -3.046 -10.480  16.498  0.00  0.00    -0.229 NA
ATOM     18  C   UNL     1      -3.824 -11.397  14.048  0.00  0.00    +0.050 A 
ATOM     19  C   UNL     1      -4.770 -11.330  15.050  0.00  0.00    +0.055 A 
ATOM     20  C   UNL     1      -4.320 -10.860  16.266  0.00  0.00    +0.110 A 
ATOM     21  C   UNL     1      -2.218 -10.592  15.442  0.00  0.00    +0.127 A 
ATOM     24  C   UNL     1      -0.801 -10.181  15.659  0.00  0.00    +0.088 C 
BRANCH  20  23
ATOM      2  O   UNL     1      -6.411 -10.180  17.136  0.00  0.00    -0.461 OA
ATOM     23  C   UNL     1      -5.201 -10.739  17.397  0.00  0.00    +0.153 A 
ATOM     25  C   UNL     1      -5.098 -11.070  18.729  0.00  0.00    +0.051 A 
ATOM     27  C   UNL     1      -6.325 -10.688  19.324  0.00  0.00    +0.042 A 
ATOM     28  C   UNL     1      -7.089 -10.153  18.314  0.00  0.00    +0.196 A 
ENDBRANCH  20  23
ENDBRANCH  11  18
BRANCH  12  17
ATOM     17  C   UNL     1      -4.790  -8.603  10.581  0.00  0.00    +0.124 C 
BRANCH  17   6
ATOM      1  O   UNL     1      -7.587  -8.501   9.974  0.00  0.00    -0.253 OA
ATOM      6  N   UNL     1      -5.395  -8.003   9.431  0.00  0.00    -0.298 N 
ATOM      9  N   UNL     1      -7.078  -7.337   8.001  0.00  0.00    -0.269 N 
ATOM     22  C   UNL     1      -6.781  -7.992   9.198  0.00  0.00    +0.304 C 
ATOM     36  H   UNL     1      -4.789  -7.566   8.743  0.00  0.00    +0.150 HD
ATOM     37  H   UNL     1      -6.289  -6.970   7.474  0.00  0.00    +0.156 HD
BRANCH   9  26
ATOM     26  C   UNL     1      -8.350  -7.120   7.421  0.00  0.00    +0.042 A 
ATOM     29  C   UNL     1      -8.616  -7.576   6.130  0.00  0.00    +0.069 A 
ATOM     30  C   UNL     1      -9.338  -6.448   8.141  0.00  0.00    +0.069 A 
ATOM     31  C   UNL     1     -10.593  -6.233   7.569  0.00  0.00    +0.125 A 
ATOM     32  C   UNL     1      -9.870  -7.361   5.559  0.00  0.00    +0.125 A 
ATOM     33  C   UNL     1     -10.859  -6.690   6.279  0.00  0.00    +0.091 A 
BRANCH  31   3
ATOM      3  O   UNL     1     -11.558  -5.578   8.272  0.00  0.00    -0.495 OA
ATOM     34  C   UNL     1     -11.386  -5.493   9.685  0.00  0.00    +0.277 C 
ENDBRANCH  31   3
BRANCH  32   4
ATOM      4  O   UNL     1     -10.130  -7.806   4.300  0.00  0.00    -0.495 OA
ATOM     35  C   UNL     1     -10.572  -6.840   3.347  0.00  0.00    +0.277 C 
ENDBRANCH  32   4
ENDBRANCH   9  26
ENDBRANCH  17   6
ENDBRANCH  12  17
TORSDOF 7
ENDMDL
MODEL 7
REMARK VINA RESULT:      -6.1      2.012      2.972
REMARK  Name = 26742460
REMARK  10 active torsions:
REMARK  status: ('A' for Active; 'I' for Inactive)
REMARK    1  A    between atoms: O_3  and  C_31
REMARK    2  A    between atoms: O_3  and  C_34
REMARK    3  A    between atoms: O_4  and  C_32
REMARK    4  A    between atoms: O_4  and  C_35
REMARK    5  A    between atoms: N_6  and  C_17
REMARK    6  A    between atoms: N_9  and  C_26
REMARK    7  A    between atoms: C_11  and  C_18
REMARK    8  A    between atoms: C_12  and  C_17
REMARK    9  A    between atoms: C_20  and  C_23
REMARK   10  A    between atoms: C_21  and  C_24
REMARK                            x       y       z     vdW  Elec       q    Type
REMARK                         _______ _______ _______ _____ _____    ______ ____
ROOT
ATOM      5  N   UNL     1      -5.397 -11.065   9.982  0.00  0.00    -0.297 NA
ATOM     10  C   UNL     1      -3.934  -9.220  11.095  0.00  0.00    +0.002 C 
ATOM     11  C   UNL     1      -3.586 -10.616  11.681  0.00  0.00    +0.055 C 
ATOM     12  C   UNL     1      -6.257  -9.945  10.449  0.00  0.00    +0.074 C 
ATOM     13  C   UNL     1      -5.439  -8.943  11.291  0.00  0.00    +0.024 C 
ATOM     14  C   UNL     1      -3.681  -9.301   9.574  0.00  0.00    +0.019 C 
ATOM     15  C   UNL     1      -4.629 -11.626  11.122  0.00  0.00    +0.094 C 
ATOM     16  C   UNL     1      -4.431 -10.516   9.000  0.00  0.00    +0.085 C 
ENDROOT
BRANCH  11  18
ATOM      7  N   UNL     1      -2.219 -10.369  13.694  0.00  0.00    -0.237 NA
ATOM      8  N   UNL     1      -3.044 -10.941  15.884  0.00  0.00    -0.229 NA
ATOM     18  C   UNL     1      -3.413 -10.740  13.188  0.00  0.00    +0.050 A 
ATOM     19  C   UNL     1      -4.456 -11.216  13.956  0.00  0.00    +0.055 A 
ATOM     20  C   UNL     1      -4.212 -11.296  15.311  0.00  0.00    +0.110 A 
ATOM     21  C   UNL     1      -2.104 -10.493  15.030  0.00  0.00    +0.127 A 
ATOM     24  C   UNL     1      -0.798 -10.091  15.628  0.00  0.00    +0.088 C 
BRANCH  20  23
ATOM      2  O   UNL     1      -6.193 -12.536  15.674  0.00  0.00    -0.461 OA
ATOM     23  C   UNL     1      -5.213 -11.775  16.227  0.00  0.00    +0.153 A 
ATOM     25  C   UNL     1      -5.417 -11.635  17.581  0.00  0.00    +0.051 A 
ATOM     27  C   UNL     1      -6.597 -12.357  17.878  0.00  0.00    +0.042 A 
ATOM     28  C   UNL     1      -7.031 -12.887  16.685  0.00  0.00    +0.196 A 
ENDBRANCH  20  23
ENDBRANCH  11  18
BRANCH  12  17
ATOM     17  C   UNL     1      -7.499 -10.438  11.194  0.00  0.00    +0.124 C 
BRANCH  17   6
ATOM      1  O   UNL     1      -9.737  -9.859  12.885  0.00  0.00    -0.253 OA
ATOM      6  N   UNL     1      -7.454 -10.052  12.571  0.00  0.00    -0.298 N 
ATOM      9  N   UNL     1      -8.247  -9.432  14.647  0.00  0.00    -0.269 N 
ATOM     22  C   UNL     1      -8.599  -9.783  13.342  0.00  0.00    +0.304 C 
ATOM     36  H   UNL     1      -6.545  -9.964  13.016  0.00  0.00    +0.150 HD
ATOM     37  H   UNL     1      -7.254  -9.416  14.864  0.00  0.00    +0.156 HD
BRANCH   9  26
ATOM     26  C   UNL     1      -9.108  -9.090  15.716  0.00  0.00    +0.042 A 
ATOM     29  C   UNL     1      -9.824  -7.893  15.681  0.00  0.00    +0.069 A 
ATOM     30  C   UNL     1      -9.240  -9.949  16.807  0.00  0.00    +0.069 A 
ATOM     31  C   UNL     1     -10.089  -9.613  17.862  0.00  0.00    +0.125 A 
ATOM     32  C   UNL     1     -10.673  -7.557  16.736  0.00  0.00    +0.125 A 
ATOM     33  C   UNL     1     -10.805  -8.417  17.826  0.00  0.00    +0.091 A 
BRANCH  31   3
ATOM      3  O   UNL     1     -10.219 -10.452  18.926  0.00  0.00    -0.495 OA
ATOM     34  C   UNL     1     -11.256 -10.158  19.861  0.00  0.00    +0.277 C 
ENDBRANCH  31   3
BRANCH  32   4
ATOM      4  O   UNL     1     -11.371  -6.390  16.701  0.00  0.00    -0.495 OA
ATOM     35  C   UNL     1     -11.619  -5.818  15.417  0.00  0.00    +0.277 C 
ENDBRANCH  32   4
ENDBRANCH   9  26
ENDBRANCH  17   6
ENDBRANCH  12  17
TORSDOF 7
ENDMDL
MODEL 8
REMARK VINA RESULT:      -6.0      2.159      3.054
REMARK  Name = 26742460
REMARK  10 active torsions:
REMARK  status: ('A' for Active; 'I' for Inactive)
REMARK    1  A    between atoms: O_3  and  C_31
REMARK    2  A    between atoms: O_3  and  C_34
REMARK    3  A    between atoms: O_4  and  C_32
REMARK    4  A    between atoms: O_4  and  C_35
REMARK    5  A    between atoms: N_6  and  C_17
REMARK    6  A    between atoms: N_9  and  C_26
REMARK    7  A    between atoms: C_11  and  C_18
REMARK    8  A    between atoms: C_12  and  C_17
REMARK    9  A    between atoms: C_20  and  C_23
REMARK   10  A    between atoms: C_21  and  C_24
REMARK                            x       y       z     vdW  Elec       q    Type
REMARK                         _______ _______ _______ _____ _____    ______ ____
ROOT
ATOM      5  N   UNL     1      -5.363 -11.105  10.014  0.00  0.00    -0.297 NA
ATOM     10  C   UNL     1      -3.957  -9.183  11.067  0.00  0.00    +0.002 C 
ATOM     11  C   UNL     1      -3.562 -10.551  11.691  0.00  0.00    +0.055 C 
ATOM     12  C   UNL     1      -6.258 -10.002  10.453  0.00  0.00    +0.074 C 
ATOM     13  C   UNL     1      -5.469  -8.950  11.263  0.00  0.00    +0.024 C 
ATOM     14  C   UNL     1      -3.708  -9.299   9.547  0.00  0.00    +0.019 C 
ATOM     15  C   UNL     1      -4.574 -11.609  11.165  0.00  0.00    +0.094 C 
ATOM     16  C   UNL     1      -4.420 -10.554   9.013  0.00  0.00    +0.085 C 
ENDROOT
BRANCH  11  18
ATOM      7  N   UNL     1      -2.162 -10.296  13.680  0.00  0.00    -0.237 NA
ATOM      8  N   UNL     1      -2.990 -10.743  15.898  0.00  0.00    -0.229 NA
ATOM     18  C   UNL     1      -3.378 -10.626  13.199  0.00  0.00    +0.050 A 
ATOM     19  C   UNL     1      -4.436 -11.019  13.994  0.00  0.00    +0.055 A 
ATOM     20  C   UNL     1      -4.181 -11.060  15.350  0.00  0.00    +0.110 A 
ATOM     21  C   UNL     1      -2.039 -10.376  15.019  0.00  0.00    +0.127 A 
ATOM     24  C   UNL     1      -0.707 -10.017  15.589  0.00  0.00    +0.088 C 
BRANCH  20  23
ATOM      2  O   UNL     1      -5.364 -10.614  17.348  0.00  0.00    -0.461 OA
ATOM     23  C   UNL     1      -5.195 -11.452  16.293  0.00  0.00    +0.153 A 
ATOM     25  C   UNL     1      -6.061 -12.518  16.377  0.00  0.00    +0.051 A 
ATOM     27  C   UNL     1      -6.812 -12.321  17.561  0.00  0.00    +0.042 A 
ATOM     28  C   UNL     1      -6.351 -11.150  18.115  0.00  0.00    +0.196 A 
ENDBRANCH  20  23
ENDBRANCH  11  18
BRANCH  12  17
ATOM     17  C   UNL     1      -7.480 -10.513  11.219  0.00  0.00    +0.124 C 
BRANCH  17   6
ATOM      1  O   UNL     1      -9.833 -10.059  12.787  0.00  0.00    -0.253 OA
ATOM      6  N   UNL     1      -7.538  -9.941  12.529  0.00  0.00    -0.298 N 
ATOM      9  N   UNL     1      -8.482  -9.172  14.489  0.00  0.00    -0.269 N 
ATOM     22  C   UNL     1      -8.734  -9.747  13.241  0.00  0.00    +0.304 C 
ATOM     36  H   UNL     1      -6.667  -9.655  12.967  0.00  0.00    +0.150 HD
ATOM     37  H   UNL     1      -7.509  -8.975  14.712  0.00  0.00    +0.156 HD
BRANCH   9  26
ATOM     26  C   UNL     1      -9.418  -8.824  15.490  0.00  0.00    +0.042 A 
ATOM     29  C   UNL     1      -9.441  -9.523  16.697  0.00  0.00    +0.069 A 
ATOM     30  C   UNL     1     -10.319  -7.782  15.270  0.00  0.00    +0.069 A 
ATOM     31  C   UNL     1     -11.243  -7.438  16.258  0.00  0.00    +0.125 A 
ATOM     32  C   UNL     1     -10.365  -9.180  17.684  0.00  0.00    +0.125 A 
ATOM     33  C   UNL     1     -11.265  -8.137  17.465  0.00  0.00    +0.091 A 
BRANCH  31   3
ATOM      3  O   UNL     1     -12.122  -6.421  16.044  0.00  0.00    -0.495 OA
ATOM     34  C   UNL     1     -12.077  -5.783  14.769  0.00  0.00    +0.277 C 
ENDBRANCH  31   3
BRANCH  32   4
ATOM      4  O   UNL     1     -10.388  -9.861  18.862  0.00  0.00    -0.495 OA
ATOM     35  C   UNL     1     -10.047 -11.246  18.818  0.00  0.00    +0.277 C 
ENDBRANCH  32   4
ENDBRANCH   9  26
ENDBRANCH  17   6
ENDBRANCH  12  17
TORSDOF 7
ENDMDL
MODEL 9
REMARK VINA RESULT:      -5.9      2.458      7.070
REMARK  Name = 26742460
REMARK  10 active torsions:
REMARK  status: ('A' for Active; 'I' for Inactive)
REMARK    1  A    between atoms: O_3  and  C_31
REMARK    2  A    between atoms: O_3  and  C_34
REMARK    3  A    between atoms: O_4  and  C_32
REMARK    4  A    between atoms: O_4  and  C_35
REMARK    5  A    between atoms: N_6  and  C_17
REMARK    6  A    between atoms: N_9  and  C_26
REMARK    7  A    between atoms: C_11  and  C_18
REMARK    8  A    between atoms: C_12  and  C_17
REMARK    9  A    between atoms: C_20  and  C_23
REMARK   10  A    between atoms: C_21  and  C_24
REMARK                            x       y       z     vdW  Elec       q    Type
REMARK                         _______ _______ _______ _____ _____    ______ ____
ROOT
ATOM      5  N   UNL     1      -6.235 -10.292  17.444  0.00  0.00    -0.297 NA
ATOM     10  C   UNL     1      -4.589 -12.299  17.236  0.00  0.00    +0.002 C 
ATOM     11  C   UNL     1      -4.071 -11.085  16.416  0.00  0.00    +0.055 C 
ATOM     12  C   UNL     1      -6.981 -11.527  17.082  0.00  0.00    +0.074 C 
ATOM     13  C   UNL     1      -6.004 -12.677  16.753  0.00  0.00    +0.024 C 
ATOM     14  C   UNL     1      -4.719 -11.825  18.699  0.00  0.00    +0.019 C 
ATOM     15  C   UNL     1      -5.195 -10.009  16.423  0.00  0.00    +0.094 C 
ATOM     16  C   UNL     1      -5.557 -10.534  18.739  0.00  0.00    +0.085 C 
ENDROOT
BRANCH  11  18
ATOM      7  N   UNL     1      -2.696 -12.395  14.874  0.00  0.00    -0.237 NA
ATOM      8  N   UNL     1      -2.518 -11.851  12.534  0.00  0.00    -0.229 NA
ATOM     18  C   UNL     1      -3.527 -11.341  15.018  0.00  0.00    +0.050 A 
ATOM     19  C   UNL     1      -3.895 -10.509  13.981  0.00  0.00    +0.055 A 
ATOM     20  C   UNL     1      -3.354 -10.814  12.749  0.00  0.00    +0.110 A 
ATOM     21  C   UNL     1      -2.235 -12.589  13.624  0.00  0.00    +0.127 A 
ATOM     24  C   UNL     1      -1.314 -13.745  13.425  0.00  0.00    +0.088 C 
BRANCH  20  23
ATOM      2  O   UNL     1      -4.800  -9.302  11.647  0.00  0.00    -0.461 OA
ATOM     23  C   UNL     1      -3.654 -10.027  11.582  0.00  0.00    +0.153 A 
ATOM     25  C   UNL     1      -3.027  -9.834  10.372  0.00  0.00    +0.051 A 
ATOM     27  C   UNL     1      -3.842  -8.931   9.648  0.00  0.00    +0.042 A 
ATOM     28  C   UNL     1      -4.907  -8.637  10.467  0.00  0.00    +0.196 A 
ENDBRANCH  20  23
ENDBRANCH  11  18
BRANCH  12  17
ATOM     17  C   UNL     1      -7.986 -11.290  15.953  0.00  0.00    +0.124 C 
BRANCH  17   6
ATOM      1  O   UNL     1      -7.392 -10.224  13.363  0.00  0.00    -0.253 OA
ATOM      6  N   UNL     1      -7.625 -12.033  14.785  0.00  0.00    -0.298 N 
ATOM      9  N   UNL     1      -7.025 -12.409  12.589  0.00  0.00    -0.269 N 
ATOM     22  C   UNL     1      -7.347 -11.439  13.541  0.00  0.00    +0.304 C 
ATOM     36  H   UNL     1      -7.572 -13.045  14.856  0.00  0.00    +0.150 HD
ATOM     37  H   UNL     1      -7.034 -13.376  12.902  0.00  0.00    +0.156 HD
BRANCH   9  26
ATOM     26  C   UNL     1      -6.687 -12.213  11.229  0.00  0.00    +0.042 A 
ATOM     29  C   UNL     1      -5.558 -12.835  10.694  0.00  0.00    +0.069 A 
ATOM     30  C   UNL     1      -7.480 -11.396  10.424  0.00  0.00    +0.069 A 
ATOM     31  C   UNL     1      -7.147 -11.202   9.083  0.00  0.00    +0.125 A 
ATOM     32  C   UNL     1      -5.225 -12.642   9.354  0.00  0.00    +0.125 A 
ATOM     33  C   UNL     1      -6.020 -11.826   8.549  0.00  0.00    +0.091 A 
BRANCH  31   3
ATOM      3  O   UNL     1      -7.922 -10.406   8.297  0.00  0.00    -0.495 OA
ATOM     34  C   UNL     1      -7.278  -9.307   7.654  0.00  0.00    +0.277 C 
ENDBRANCH  31   3
BRANCH  32   4
ATOM      4  O   UNL     1      -4.125 -13.249   8.831  0.00  0.00    -0.495 OA
ATOM     35  C   UNL     1      -4.047 -13.339   7.409  0.00  0.00    +0.277 C 
ENDBRANCH  32   4
ENDBRANCH   9  26
ENDBRANCH  17   6
ENDBRANCH  12  17
TORSDOF 7
ENDMDL
MODEL 10
REMARK VINA RESULT:      -5.9      4.387      7.217
REMARK  Name = 26742460
REMARK  10 active torsions:
REMARK  status: ('A' for Active; 'I' for Inactive)
REMARK    1  A    between atoms: O_3  and  C_31
REMARK    2  A    between atoms: O_3  and  C_34
REMARK    3  A    between atoms: O_4  and  C_32
REMARK    4  A    between atoms: O_4  and  C_35
REMARK    5  A    between atoms: N_6  and  C_17
REMARK    6  A    between atoms: N_9  and  C_26
REMARK    7  A    between atoms: C_11  and  C_18
REMARK    8  A    between atoms: C_12  and  C_17
REMARK    9  A    between atoms: C_20  and  C_23
REMARK   10  A    between atoms: C_21  and  C_24
REMARK                            x       y       z     vdW  Elec       q    Type
REMARK                         _______ _______ _______ _____ _____    ______ ____
ROOT
ATOM      5  N   UNL     1      -6.917  -9.692  16.994  0.00  0.00    -0.297 NA
ATOM     10  C   UNL     1      -5.694 -11.984  16.810  0.00  0.00    +0.002 C 
ATOM     11  C   UNL     1      -4.800 -10.844  16.248  0.00  0.00    +0.055 C 
ATOM     12  C   UNL     1      -7.811 -10.697  16.359  0.00  0.00    +0.074 C 
ATOM     13  C   UNL     1      -7.039 -11.998  16.054  0.00  0.00    +0.024 C 
ATOM     14  C   UNL     1      -6.003 -11.624  18.279  0.00  0.00    +0.019 C 
ATOM     15  C   UNL     1      -5.668  -9.553  16.205  0.00  0.00    +0.094 C 
ATOM     16  C   UNL     1      -6.559 -10.191  18.343  0.00  0.00    +0.085 C 
ENDROOT
BRANCH  11  18
ATOM      7  N   UNL     1      -3.121 -12.054  14.944  0.00  0.00    -0.237 NA
ATOM      8  N   UNL     1      -2.706 -11.569  12.621  0.00  0.00    -0.229 NA
ATOM     18  C   UNL     1      -4.062 -11.087  14.940  0.00  0.00    +0.050 A 
ATOM     19  C   UNL     1      -4.377 -10.330  13.830  0.00  0.00    +0.055 A 
ATOM     20  C   UNL     1      -3.660 -10.617  12.687  0.00  0.00    +0.110 A 
ATOM     21  C   UNL     1      -2.490 -12.239  13.769  0.00  0.00    +0.127 A 
ATOM     24  C   UNL     1      -1.443 -13.301  13.734  0.00  0.00    +0.088 C 
BRANCH  20  23
ATOM      2  O   UNL     1      -4.944  -9.051  11.467  0.00  0.00    -0.461 OA
ATOM     23  C   UNL     1      -3.886  -9.903  11.459  0.00  0.00    +0.153 A 
ATOM     25  C   UNL     1      -3.259  -9.883  10.234  0.00  0.00    +0.051 A 
ATOM     27  C   UNL     1      -3.978  -8.958   9.439  0.00  0.00    +0.042 A 
ATOM     28  C   UNL     1      -4.993  -8.480  10.235  0.00  0.00    +0.196 A 
ENDBRANCH  20  23
ENDBRANCH  11  18
BRANCH  12  17
ATOM     17  C   UNL     1      -8.517 -10.146  15.118  0.00  0.00    +0.124 C 
BRANCH  17   6
ATOM      1  O   UNL     1     -10.744  -9.092  13.659  0.00  0.00    -0.253 OA
ATOM      6  N   UNL     1      -9.271  -8.973  15.438  0.00  0.00    -0.298 N 
ATOM      9  N   UNL     1     -10.896  -7.350  15.224  0.00  0.00    -0.269 N 
ATOM     22  C   UNL     1     -10.356  -8.514  14.671  0.00  0.00    +0.304 C 
ATOM     36  H   UNL     1      -9.004  -8.440  16.260  0.00  0.00    +0.150 HD
ATOM     37  H   UNL     1     -10.455  -6.999  16.070  0.00  0.00    +0.156 HD
BRANCH   9  26
ATOM     26  C   UNL     1     -11.990  -6.589  14.748  0.00  0.00    +0.042 A 
ATOM     29  C   UNL     1     -13.294  -7.042  14.948  0.00  0.00    +0.069 A 
ATOM     30  C   UNL     1     -11.764  -5.387  14.078  0.00  0.00    +0.069 A 
ATOM     31  C   UNL     1     -12.842  -4.636  13.608  0.00  0.00    +0.125 A 
ATOM     32  C   UNL     1     -14.372  -6.291  14.478  0.00  0.00    +0.125 A 
ATOM     33  C   UNL     1     -14.146  -5.088  13.809  0.00  0.00    +0.091 A 
BRANCH  31   3
ATOM      3  O   UNL     1     -12.622  -3.462  12.955  0.00  0.00    -0.495 OA
ATOM     34  C   UNL     1     -12.272  -3.545  11.575  0.00  0.00    +0.277 C 
ENDBRANCH  31   3
BRANCH  32   4
ATOM      4  O   UNL     1     -15.645  -6.732  14.673  0.00  0.00    -0.495 OA
ATOM     35  C   UNL     1     -16.121  -6.769  16.018  0.00  0.00    +0.277 C 
ENDBRANCH  32   4
ENDBRANCH   9  26
ENDBRANCH  17   6
ENDBRANCH  12  17
TORSDOF 7
ENDMDL
