MODEL 1
REMARK VINA RESULT:      -7.6      0.000      0.000
REMARK  Name = 11866028
REMARK  7 active torsions:
REMARK  status: ('A' for Active; 'I' for Inactive)
REMARK    1  A    between atoms: O_5  and  C_23
REMARK    2  A    between atoms: O_5  and  C_28
REMARK    3  A    between atoms: O_6  and  C_32
REMARK    4  A    between atoms: N_9  and  C_11
REMARK    5  A    between atoms: C_19  and  C_23
REMARK    6  A    between atoms: C_22  and  C_25
REMARK    7  A    between atoms: C_28  and  C_32
REMARK                            x       y       z     vdW  Elec       q    Type
REMARK                         _______ _______ _______ _____ _____    ______ ____
ROOT
ATOM      2  O   UNL     1      16.689   5.615  17.916  0.00  0.00    -0.273 OA
ATOM      3  O   UNL     1      17.879   9.635  21.106  0.00  0.00    -0.270 OA
ATOM      8  N   UNL     1      16.546   8.010  20.174  0.00  0.00    -0.284 N 
ATOM     10  N   UNL     1      18.379   5.834  19.428  0.00  0.00    -0.283 N 
ATOM     11  C   UNL     1      14.671   6.708  19.552  0.00  0.00    +0.104 C 
ATOM     12  C   UNL     1      16.128   6.627  20.031  0.00  0.00    +0.183 C 
ATOM     13  C   UNL     1      14.607   8.058  18.834  0.00  0.00    +0.043 C 
ATOM     14  C   UNL     1      15.552   8.932  19.643  0.00  0.00    +0.111 C 
ATOM     15  C   UNL     1      17.076   6.019  19.015  0.00  0.00    +0.240 C 
ATOM     16  C   UNL     1      17.651   8.448  20.871  0.00  0.00    +0.249 C 
ATOM     17  C   UNL     1      18.630   7.433  21.341  0.00  0.00    +0.059 A 
ATOM     18  C   UNL     1      19.000   6.293  20.610  0.00  0.00    +0.046 A 
ATOM     20  C   UNL     1      19.328   7.757  22.518  0.00  0.00    +0.023 A 
ATOM     21  C   UNL     1      20.108   5.541  21.041  0.00  0.00    +0.024 A 
ATOM     22  C   UNL     1      20.394   6.972  22.956  0.00  0.00    -0.014 A 
ATOM     24  C   UNL     1      20.792   5.871  22.211  0.00  0.00    +0.010 A 
ATOM     34  H   UNL     1      18.938   5.218  18.843  0.00  0.00    +0.155 HD
ENDROOT
BRANCH  22  25
ATOM      1  F   UNL     1      22.922   8.199  22.924  0.00  0.00    -0.205 F 
ATOM     25  C   UNL     1      21.098   7.318  24.172  0.00  0.00    +0.017 A 
ATOM     26  C   UNL     1      22.353   7.923  24.108  0.00  0.00    +0.131 A 
ATOM     27  C   UNL     1      20.521   7.039  25.411  0.00  0.00    +0.011 A 
ATOM     29  C   UNL     1      23.031   8.252  25.282  0.00  0.00    +0.039 A 
ATOM     30  C   UNL     1      21.198   7.367  26.585  0.00  0.00    +0.001 A 
ATOM     31  C   UNL     1      22.453   7.974  26.522  0.00  0.00    +0.003 A 
ENDBRANCH  22  25
BRANCH  11   9
ATOM      4  O   UNL     1      11.776   6.758  19.455  0.00  0.00    -0.273 OA
ATOM      9  N   UNL     1      13.758   6.666  20.670  0.00  0.00    -0.308 N 
ATOM     19  C   UNL     1      12.380   6.695  20.524  0.00  0.00    +0.239 C 
ATOM     33  H   UNL     1      14.147   6.560  21.603  0.00  0.00    +0.149 HD
BRANCH  19  23
ATOM     23  C   UNL     1      11.673   6.638  21.861  0.00  0.00    +0.256 C 
BRANCH  23   5
ATOM      5  O   UNL     1      10.656   7.615  21.929  0.00  0.00    -0.359 OA
BRANCH   5  28
ATOM     28  C   UNL     1      11.017   8.700  22.780  0.00  0.00    +0.280 C 
BRANCH  28  32
ATOM      7  O   UNL     1      11.583  10.085  20.864  0.00  0.00    -0.248 OA
ATOM     32  C   UNL     1      11.094   9.970  21.979  0.00  0.00    +0.331 C 
BRANCH  32   6
ATOM      6  O   UNL     1      10.539  10.995  22.672  0.00  0.00    -0.479 OA
ATOM     35  H   UNL     1       9.562  11.013  22.582  0.00  0.00    +0.295 HD
ENDBRANCH  32   6
ENDBRANCH  28  32
ENDBRANCH   5  28
ENDBRANCH  23   5
ENDBRANCH  19  23
ENDBRANCH  11   9
TORSDOF 7
ENDMDL
MODEL 2
REMARK VINA RESULT:      -7.1      3.133      5.416
REMARK  Name = 11866028
REMARK  7 active torsions:
REMARK  status: ('A' for Active; 'I' for Inactive)
REMARK    1  A    between atoms: O_5  and  C_23
REMARK    2  A    between atoms: O_5  and  C_28
REMARK    3  A    between atoms: O_6  and  C_32
REMARK    4  A    between atoms: N_9  and  C_11
REMARK    5  A    between atoms: C_19  and  C_23
REMARK    6  A    between atoms: C_22  and  C_25
REMARK    7  A    between atoms: C_28  and  C_32
REMARK                            x       y       z     vdW  Elec       q    Type
REMARK                         _______ _______ _______ _____ _____    ______ ____
ROOT
ATOM      2  O   UNL     1      10.870   8.986  20.675  0.00  0.00    -0.273 OA
ATOM      3  O   UNL     1      15.648  11.041  19.841  0.00  0.00    -0.270 OA
ATOM      8  N   UNL     1      13.616  10.794  20.889  0.00  0.00    -0.284 N 
ATOM     10  N   UNL     1      12.900   7.962  20.535  0.00  0.00    -0.283 N 
ATOM     11  C   UNL     1      11.727  11.148  22.267  0.00  0.00    +0.104 C 
ATOM     12  C   UNL     1      12.715  10.081  21.775  0.00  0.00    +0.183 C 
ATOM     13  C   UNL     1      11.727  12.180  21.138  0.00  0.00    +0.043 C 
ATOM     14  C   UNL     1      13.161  12.153  20.636  0.00  0.00    +0.111 C 
ATOM     15  C   UNL     1      12.077   8.999  20.924  0.00  0.00    +0.240 C 
ATOM     16  C   UNL     1      14.845  10.341  20.458  0.00  0.00    +0.249 C 
ATOM     17  C   UNL     1      15.205   8.925  20.732  0.00  0.00    +0.059 A 
ATOM     18  C   UNL     1      14.300   7.853  20.672  0.00  0.00    +0.046 A 
ATOM     20  C   UNL     1      16.578   8.664  20.893  0.00  0.00    +0.023 A 
ATOM     21  C   UNL     1      14.803   6.540  20.708  0.00  0.00    +0.024 A 
ATOM     22  C   UNL     1      17.052   7.356  20.975  0.00  0.00    -0.014 A 
ATOM     24  C   UNL     1      16.166   6.293  20.869  0.00  0.00    +0.010 A 
ATOM     34  H   UNL     1      12.422   7.138  20.178  0.00  0.00    +0.155 HD
ENDROOT
BRANCH  22  25
ATOM      1  F   UNL     1      18.407   5.367  19.524  0.00  0.00    -0.205 F 
ATOM     25  C   UNL     1      18.467   7.106  21.146  0.00  0.00    +0.017 A 
ATOM     26  C   UNL     1      19.097   6.106  20.405  0.00  0.00    +0.131 A 
ATOM     27  C   UNL     1      19.200   7.866  22.058  0.00  0.00    +0.011 A 
ATOM     29  C   UNL     1      20.461   5.865  20.576  0.00  0.00    +0.039 A 
ATOM     30  C   UNL     1      20.563   7.625  22.228  0.00  0.00    +0.001 A 
ATOM     31  C   UNL     1      21.194   6.626  21.487  0.00  0.00    +0.003 A 
ENDBRANCH  22  25
BRANCH  11   9
ATOM      4  O   UNL     1      10.089  12.338  24.340  0.00  0.00    -0.273 OA
ATOM      9  N   UNL     1      12.176  11.733  23.509  0.00  0.00    -0.308 N 
ATOM     19  C   UNL     1      11.312  12.281  24.445  0.00  0.00    +0.239 C 
ATOM     33  H   UNL     1      13.169  11.695  23.726  0.00  0.00    +0.149 HD
BRANCH  19  23
ATOM     23  C   UNL     1      12.056  12.819  25.647  0.00  0.00    +0.256 C 
BRANCH  23   5
ATOM      5  O   UNL     1      13.058  11.913  26.060  0.00  0.00    -0.359 OA
BRANCH   5  28
ATOM     28  C   UNL     1      14.335  12.538  26.150  0.00  0.00    +0.280 C 
BRANCH  28  32
ATOM      7  O   UNL     1      16.218  12.584  24.614  0.00  0.00    -0.248 OA
ATOM     32  C   UNL     1      15.235  12.015  25.065  0.00  0.00    +0.331 C 
BRANCH  32   6
ATOM      6  O   UNL     1      14.801  10.801  24.641  0.00  0.00    -0.479 OA
ATOM     35  H   UNL     1      13.878  10.837  24.309  0.00  0.00    +0.295 HD
ENDBRANCH  32   6
ENDBRANCH  28  32
ENDBRANCH   5  28
ENDBRANCH  23   5
ENDBRANCH  19  23
ENDBRANCH  11   9
TORSDOF 7
ENDMDL
MODEL 3
REMARK VINA RESULT:      -7.0     15.560     18.171
REMARK  Name = 11866028
REMARK  7 active torsions:
REMARK  status: ('A' for Active; 'I' for Inactive)
REMARK    1  A    between atoms: O_5  and  C_23
REMARK    2  A    between atoms: O_5  and  C_28
REMARK    3  A    between atoms: O_6  and  C_32
REMARK    4  A    between atoms: N_9  and  C_11
REMARK    5  A    between atoms: C_19  and  C_23
REMARK    6  A    between atoms: C_22  and  C_25
REMARK    7  A    between atoms: C_28  and  C_32
REMARK                            x       y       z     vdW  Elec       q    Type
REMARK                         _______ _______ _______ _____ _____    ______ ____
ROOT
ATOM      2  O   UNL     1      10.021   9.217   5.078  0.00  0.00    -0.273 OA
ATOM      3  O   UNL     1      13.775   6.474   7.557  0.00  0.00    -0.270 OA
ATOM      8  N   UNL     1      12.013   6.807   6.117  0.00  0.00    -0.284 N 
ATOM     10  N   UNL     1      12.264   9.594   5.212  0.00  0.00    -0.283 N 
ATOM     11  C   UNL     1      10.205   6.439   4.637  0.00  0.00    +0.104 C 
ATOM     12  C   UNL     1      11.460   7.294   4.867  0.00  0.00    +0.183 C 
ATOM     13  C   UNL     1       9.788   6.031   6.052  0.00  0.00    +0.043 C 
ATOM     14  C   UNL     1      11.114   5.870   6.776  0.00  0.00    +0.111 C 
ATOM     15  C   UNL     1      11.168   8.765   5.096  0.00  0.00    +0.240 C 
ATOM     16  C   UNL     1      13.293   7.038   6.574  0.00  0.00    +0.249 C 
ATOM     17  C   UNL     1      14.122   8.041   5.856  0.00  0.00    +0.059 A 
ATOM     18  C   UNL     1      13.626   9.242   5.322  0.00  0.00    +0.046 A 
ATOM     20  C   UNL     1      15.510   7.816   5.880  0.00  0.00    +0.023 A 
ATOM     21  C   UNL     1      14.540  10.217   4.886  0.00  0.00    +0.024 A 
ATOM     22  C   UNL     1      16.399   8.776   5.399  0.00  0.00    -0.014 A 
ATOM     24  C   UNL     1      15.914   9.983   4.913  0.00  0.00    +0.010 A 
ATOM     34  H   UNL     1      12.068  10.589   5.125  0.00  0.00    +0.155 HD
ENDROOT
BRANCH  22  25
ATOM      1  F   UNL     1      17.813   7.918   3.127  0.00  0.00    -0.205 F 
ATOM     25  C   UNL     1      17.824   8.525   5.427  0.00  0.00    +0.017 A 
ATOM     26  C   UNL     1      18.483   8.098   4.275  0.00  0.00    +0.131 A 
ATOM     27  C   UNL     1      18.536   8.707   6.612  0.00  0.00    +0.011 A 
ATOM     29  C   UNL     1      19.857   7.853   4.307  0.00  0.00    +0.039 A 
ATOM     30  C   UNL     1      19.909   8.463   6.644  0.00  0.00    +0.001 A 
ATOM     31  C   UNL     1      20.570   8.037   5.492  0.00  0.00    +0.003 A 
ENDBRANCH  22  25
BRANCH  11   9
ATOM      4  O   UNL     1      10.254   6.285   1.744  0.00  0.00    -0.273 OA
ATOM      9  N   UNL     1      10.509   5.282   3.828  0.00  0.00    -0.308 N 
ATOM     19  C   UNL     1      10.508   5.306   2.442  0.00  0.00    +0.239 C 
ATOM     33  H   UNL     1      10.785   4.426   4.301  0.00  0.00    +0.149 HD
BRANCH  19  23
ATOM     23  C   UNL     1      10.862   3.955   1.859  0.00  0.00    +0.256 C 
BRANCH  23   5
ATOM      5  O   UNL     1      12.051   4.035   1.100  0.00  0.00    -0.359 OA
BRANCH   5  28
ATOM     28  C   UNL     1      13.070   3.185   1.619  0.00  0.00    +0.280 C 
BRANCH  28  32
ATOM      7  O   UNL     1      14.573   5.057   1.237  0.00  0.00    -0.248 OA
ATOM     32  C   UNL     1      14.380   3.923   1.652  0.00  0.00    +0.331 C 
BRANCH  32   6
ATOM      6  O   UNL     1      15.340   3.148   2.214  0.00  0.00    -0.479 OA
ATOM     35  H   UNL     1      16.145   3.098   1.656  0.00  0.00    +0.295 HD
ENDBRANCH  32   6
ENDBRANCH  28  32
ENDBRANCH   5  28
ENDBRANCH  23   5
ENDBRANCH  19  23
ENDBRANCH  11   9
TORSDOF 7
ENDMDL
MODEL 4
REMARK VINA RESULT:      -7.0     28.282     31.049
REMARK  Name = 11866028
REMARK  7 active torsions:
REMARK  status: ('A' for Active; 'I' for Inactive)
REMARK    1  A    between atoms: O_5  and  C_23
REMARK    2  A    between atoms: O_5  and  C_28
REMARK    3  A    between atoms: O_6  and  C_32
REMARK    4  A    between atoms: N_9  and  C_11
REMARK    5  A    between atoms: C_19  and  C_23
REMARK    6  A    between atoms: C_22  and  C_25
REMARK    7  A    between atoms: C_28  and  C_32
REMARK                            x       y       z     vdW  Elec       q    Type
REMARK                         _______ _______ _______ _____ _____    ______ ____
ROOT
ATOM      2  O   UNL     1      -1.798 -10.802  14.907  0.00  0.00    -0.273 OA
ATOM      3  O   UNL     1      -5.497 -13.020  11.881  0.00  0.00    -0.270 OA
ATOM      8  N   UNL     1      -4.653 -11.959  13.739  0.00  0.00    -0.284 N 
ATOM     10  N   UNL     1      -2.397 -10.348  12.756  0.00  0.00    -0.283 N 
ATOM     11  C   UNL     1      -4.421 -11.047  15.909  0.00  0.00    +0.104 C 
ATOM     12  C   UNL     1      -4.160 -10.776  14.420  0.00  0.00    +0.183 C 
ATOM     13  C   UNL     1      -4.408 -12.574  16.001  0.00  0.00    +0.043 C 
ATOM     14  C   UNL     1      -5.014 -13.011  14.678  0.00  0.00    +0.111 C 
ATOM     15  C   UNL     1      -2.688 -10.684  14.062  0.00  0.00    +0.240 C 
ATOM     16  C   UNL     1      -4.927 -12.055  12.391  0.00  0.00    +0.249 C 
ATOM     17  C   UNL     1      -4.486 -10.945  11.507  0.00  0.00    +0.059 A 
ATOM     18  C   UNL     1      -3.277 -10.246  11.657  0.00  0.00    +0.046 A 
ATOM     20  C   UNL     1      -5.275 -10.725  10.364  0.00  0.00    +0.023 A 
ATOM     21  C   UNL     1      -2.856  -9.390  10.624  0.00  0.00    +0.024 A 
ATOM     22  C   UNL     1      -4.863  -9.836   9.371  0.00  0.00    -0.014 A 
ATOM     24  C   UNL     1      -3.647  -9.178   9.495  0.00  0.00    +0.010 A 
ATOM     34  H   UNL     1      -1.437 -10.057  12.585  0.00  0.00    +0.155 HD
ENDROOT
BRANCH  22  25
ATOM      1  F   UNL     1      -7.095  -8.129   9.416  0.00  0.00    -0.205 F 
ATOM     25  C   UNL     1      -5.690  -9.618   8.204  0.00  0.00    +0.017 A 
ATOM     26  C   UNL     1      -6.790  -8.763   8.274  0.00  0.00    +0.131 A 
ATOM     27  C   UNL     1      -5.387 -10.269   7.008  0.00  0.00    +0.011 A 
ATOM     29  C   UNL     1      -7.587  -8.558   7.147  0.00  0.00    +0.039 A 
ATOM     30  C   UNL     1      -6.184 -10.064   5.882  0.00  0.00    +0.001 A 
ATOM     31  C   UNL     1      -7.284  -9.208   5.950  0.00  0.00    +0.003 A 
ENDBRANCH  22  25
BRANCH  11   9
ATOM      4  O   UNL     1      -5.382 -10.655  18.615  0.00  0.00    -0.273 OA
ATOM      9  N   UNL     1      -5.699 -10.510  16.314  0.00  0.00    -0.308 N 
ATOM     19  C   UNL     1      -6.071 -10.359  17.641  0.00  0.00    +0.239 C 
ATOM     33  H   UNL     1      -6.332 -10.182  15.590  0.00  0.00    +0.149 HD
BRANCH  19  23
ATOM     23  C   UNL     1      -7.460  -9.773  17.770  0.00  0.00    +0.256 C 
BRANCH  23   5
ATOM      5  O   UNL     1      -8.431 -10.798  17.819  0.00  0.00    -0.359 OA
BRANCH   5  28
ATOM     28  C   UNL     1      -9.625 -10.368  18.466  0.00  0.00    +0.280 C 
BRANCH  28  32
ATOM      7  O   UNL     1      -9.518 -12.184  20.079  0.00  0.00    -0.248 OA
ATOM     32  C   UNL     1      -9.724 -11.006  19.825  0.00  0.00    +0.331 C 
BRANCH  32   6
ATOM      6  O   UNL     1     -10.081 -10.081  20.751  0.00  0.00    -0.479 OA
ATOM     35  H   UNL     1      -9.839 -10.360  21.660  0.00  0.00    +0.295 HD
ENDBRANCH  32   6
ENDBRANCH  28  32
ENDBRANCH   5  28
ENDBRANCH  23   5
ENDBRANCH  19  23
ENDBRANCH  11   9
TORSDOF 7
ENDMDL
MODEL 5
REMARK VINA RESULT:      -7.0     28.168     30.701
REMARK  Name = 11866028
REMARK  7 active torsions:
REMARK  status: ('A' for Active; 'I' for Inactive)
REMARK    1  A    between atoms: O_5  and  C_23
REMARK    2  A    between atoms: O_5  and  C_28
REMARK    3  A    between atoms: O_6  and  C_32
REMARK    4  A    between atoms: N_9  and  C_11
REMARK    5  A    between atoms: C_19  and  C_23
REMARK    6  A    between atoms: C_22  and  C_25
REMARK    7  A    between atoms: C_28  and  C_32
REMARK                            x       y       z     vdW  Elec       q    Type
REMARK                         _______ _______ _______ _____ _____    ______ ____
ROOT
ATOM      2  O   UNL     1      -1.520 -10.849  14.789  0.00  0.00    -0.273 OA
ATOM      3  O   UNL     1      -5.428 -12.918  11.924  0.00  0.00    -0.270 OA
ATOM      8  N   UNL     1      -4.458 -11.926  13.759  0.00  0.00    -0.284 N 
ATOM     10  N   UNL     1      -2.236 -10.321  12.692  0.00  0.00    -0.283 N 
ATOM     11  C   UNL     1      -4.083 -11.084  15.937  0.00  0.00    +0.104 C 
ATOM     12  C   UNL     1      -3.905 -10.773  14.444  0.00  0.00    +0.183 C 
ATOM     13  C   UNL     1      -4.091 -12.613  15.984  0.00  0.00    +0.043 C 
ATOM     14  C   UNL     1      -4.781 -13.001  14.686  0.00  0.00    +0.111 C 
ATOM     15  C   UNL     1      -2.456 -10.693  14.002  0.00  0.00    +0.240 C 
ATOM     16  C   UNL     1      -4.812 -11.978  12.428  0.00  0.00    +0.249 C 
ATOM     17  C   UNL     1      -4.404 -10.849  11.551  0.00  0.00    +0.059 A 
ATOM     18  C   UNL     1      -3.177 -10.173  11.650  0.00  0.00    +0.046 A 
ATOM     20  C   UNL     1      -5.255 -10.582  10.464  0.00  0.00    +0.023 A 
ATOM     21  C   UNL     1      -2.803  -9.293  10.619  0.00  0.00    +0.024 A 
ATOM     22  C   UNL     1      -4.888  -9.670   9.475  0.00  0.00    -0.014 A 
ATOM     24  C   UNL     1      -3.655  -9.035   9.546  0.00  0.00    +0.010 A 
ATOM     34  H   UNL     1      -1.283 -10.040  12.473  0.00  0.00    +0.155 HD
ENDROOT
BRANCH  22  25
ATOM      1  F   UNL     1      -4.532 -10.855   6.952  0.00  0.00    -0.205 F 
ATOM     25  C   UNL     1      -5.778  -9.404   8.366  0.00  0.00    +0.017 A 
ATOM     26  C   UNL     1      -5.561 -10.013   7.130  0.00  0.00    +0.131 A 
ATOM     27  C   UNL     1      -6.854  -8.531   8.534  0.00  0.00    +0.011 A 
ATOM     29  C   UNL     1      -6.419  -9.751   6.062  0.00  0.00    +0.039 A 
ATOM     30  C   UNL     1      -7.712  -8.269   7.466  0.00  0.00    +0.001 A 
ATOM     31  C   UNL     1      -7.495  -8.879   6.230  0.00  0.00    +0.003 A 
ENDBRANCH  22  25
BRANCH  11   9
ATOM      4  O   UNL     1      -4.967 -10.955  18.694  0.00  0.00    -0.273 OA
ATOM      9  N   UNL     1      -5.326 -10.540  16.433  0.00  0.00    -0.308 N 
ATOM     19  C   UNL     1      -5.662 -10.522  17.778  0.00  0.00    +0.239 C 
ATOM     33  H   UNL     1      -5.958 -10.106  15.766  0.00  0.00    +0.149 HD
BRANCH  19  23
ATOM     23  C   UNL     1      -7.019  -9.894  18.007  0.00  0.00    +0.256 C 
BRANCH  23   5
ATOM      5  O   UNL     1      -7.397  -9.104  16.898  0.00  0.00    -0.359 OA
BRANCH   5  28
ATOM     28  C   UNL     1      -8.735  -9.371  16.488  0.00  0.00    +0.280 C 
BRANCH  28  32
ATOM      7  O   UNL     1     -10.054  -7.582  15.504  0.00  0.00    -0.248 OA
ATOM     32  C   UNL     1      -9.529  -8.094  16.482  0.00  0.00    +0.331 C 
BRANCH  32   6
ATOM      6  O   UNL     1      -9.587  -7.573  17.733  0.00  0.00    -0.479 OA
ATOM     35  H   UNL     1      -9.140  -6.701  17.789  0.00  0.00    +0.295 HD
ENDBRANCH  32   6
ENDBRANCH  28  32
ENDBRANCH   5  28
ENDBRANCH  23   5
ENDBRANCH  19  23
ENDBRANCH  11   9
TORSDOF 7
ENDMDL
MODEL 6
REMARK VINA RESULT:      -7.0     26.850     30.893
REMARK  Name = 11866028
REMARK  7 active torsions:
REMARK  status: ('A' for Active; 'I' for Inactive)
REMARK    1  A    between atoms: O_5  and  C_23
REMARK    2  A    between atoms: O_5  and  C_28
REMARK    3  A    between atoms: O_6  and  C_32
REMARK    4  A    between atoms: N_9  and  C_11
REMARK    5  A    between atoms: C_19  and  C_23
REMARK    6  A    between atoms: C_22  and  C_25
REMARK    7  A    between atoms: C_28  and  C_32
REMARK                            x       y       z     vdW  Elec       q    Type
REMARK                         _______ _______ _______ _____ _____    ______ ____
ROOT
ATOM      2  O   UNL     1       5.111   7.435  -3.749  0.00  0.00    -0.273 OA
ATOM      3  O   UNL     1       4.003   4.638  -8.074  0.00  0.00    -0.270 OA
ATOM      8  N   UNL     1       5.269   5.341  -6.287  0.00  0.00    -0.284 N 
ATOM     10  N   UNL     1       3.329   6.092  -4.207  0.00  0.00    -0.283 N 
ATOM     11  C   UNL     1       7.074   5.711  -4.804  0.00  0.00    +0.104 C 
ATOM     12  C   UNL     1       5.582   5.354  -4.870  0.00  0.00    +0.183 C 
ATOM     13  C   UNL     1       7.306   6.510  -6.088  0.00  0.00    +0.043 C 
ATOM     14  C   UNL     1       6.375   5.846  -7.089  0.00  0.00    +0.111 C 
ATOM     15  C   UNL     1       4.672   6.404  -4.261  0.00  0.00    +0.240 C 
ATOM     16  C   UNL     1       4.151   4.772  -6.859  0.00  0.00    +0.249 C 
ATOM     17  C   UNL     1       3.058   4.320  -5.959  0.00  0.00    +0.059 A 
ATOM     18  C   UNL     1       2.655   5.002  -4.798  0.00  0.00    +0.046 A 
ATOM     20  C   UNL     1       2.297   3.232  -6.421  0.00  0.00    +0.023 A 
ATOM     21  C   UNL     1       1.459   4.616  -4.167  0.00  0.00    +0.024 A 
ATOM     22  C   UNL     1       1.139   2.834  -5.754  0.00  0.00    -0.014 A 
ATOM     24  C   UNL     1       0.713   3.535  -4.634  0.00  0.00    +0.010 A 
ATOM     34  H   UNL     1       2.770   6.680  -3.594  0.00  0.00    +0.155 HD
ENDROOT
BRANCH  22  25
ATOM      1  F   UNL     1       1.006   0.397  -4.362  0.00  0.00    -0.205 F 
ATOM     25  C   UNL     1       0.370   1.709  -6.242  0.00  0.00    +0.017 A 
ATOM     26  C   UNL     1       0.335   0.517  -5.518  0.00  0.00    +0.131 A 
ATOM     27  C   UNL     1      -0.334   1.818  -7.441  0.00  0.00    +0.011 A 
ATOM     29  C   UNL     1      -0.404  -0.566  -5.993  0.00  0.00    +0.039 A 
ATOM     30  C   UNL     1      -1.073   0.734  -7.916  0.00  0.00    +0.001 A 
ATOM     31  C   UNL     1      -1.109  -0.457  -7.193  0.00  0.00    +0.003 A 
ENDBRANCH  22  25
BRANCH  11   9
ATOM      4  O   UNL     1       9.375   5.197  -3.120  0.00  0.00    -0.273 OA
ATOM      9  N   UNL     1       7.889   4.518  -4.776  0.00  0.00    -0.308 N 
ATOM     19  C   UNL     1       8.976   4.364  -3.930  0.00  0.00    +0.239 C 
ATOM     33  H   UNL     1       7.619   3.739  -5.371  0.00  0.00    +0.149 HD
BRANCH  19  23
ATOM     23  C   UNL     1       9.643   3.018  -4.115  0.00  0.00    +0.256 C 
BRANCH  23   5
ATOM      5  O   UNL     1       9.855   2.390  -2.867  0.00  0.00    -0.359 OA
BRANCH   5  28
ATOM     28  C   UNL     1      11.239   2.170  -2.613  0.00  0.00    +0.280 C 
BRANCH  28  32
ATOM      7  O   UNL     1      12.911   3.549  -1.513  0.00  0.00    -0.248 OA
ATOM     32  C   UNL     1      11.747   3.197  -1.639  0.00  0.00    +0.331 C 
BRANCH  32   6
ATOM      6  O   UNL     1      10.721   3.692  -0.902  0.00  0.00    -0.479 OA
ATOM     35  H   UNL     1       9.866   3.634  -1.379  0.00  0.00    +0.295 HD
ENDBRANCH  32   6
ENDBRANCH  28  32
ENDBRANCH   5  28
ENDBRANCH  23   5
ENDBRANCH  19  23
ENDBRANCH  11   9
TORSDOF 7
ENDMDL
MODEL 7
REMARK VINA RESULT:      -6.9      3.185      5.130
REMARK  Name = 11866028
REMARK  7 active torsions:
REMARK  status: ('A' for Active; 'I' for Inactive)
REMARK    1  A    between atoms: O_5  and  C_23
REMARK    2  A    between atoms: O_5  and  C_28
REMARK    3  A    between atoms: O_6  and  C_32
REMARK    4  A    between atoms: N_9  and  C_11
REMARK    5  A    between atoms: C_19  and  C_23
REMARK    6  A    between atoms: C_22  and  C_25
REMARK    7  A    between atoms: C_28  and  C_32
REMARK                            x       y       z     vdW  Elec       q    Type
REMARK                         _______ _______ _______ _____ _____    ______ ____
ROOT
ATOM      2  O   UNL     1      14.810  12.715  21.893  0.00  0.00    -0.273 OA
ATOM      3  O   UNL     1      14.824   7.451  22.088  0.00  0.00    -0.270 OA
ATOM      8  N   UNL     1      14.373   9.524  21.201  0.00  0.00    -0.284 N 
ATOM     10  N   UNL     1      16.547  11.264  22.149  0.00  0.00    -0.283 N 
ATOM     11  C   UNL     1      13.498  11.267  19.863  0.00  0.00    +0.104 C 
ATOM     12  C   UNL     1      14.782  10.736  20.516  0.00  0.00    +0.183 C 
ATOM     13  C   UNL     1      12.388  10.716  20.760  0.00  0.00    +0.043 C 
ATOM     14  C   UNL     1      12.927   9.363  21.195  0.00  0.00    +0.111 C 
ATOM     15  C   UNL     1      15.343  11.644  21.595  0.00  0.00    +0.240 C 
ATOM     16  C   UNL     1      15.218   8.536  21.661  0.00  0.00    +0.249 C 
ATOM     17  C   UNL     1      16.679   8.809  21.662  0.00  0.00    +0.059 A 
ATOM     18  C   UNL     1      17.251  10.053  21.976  0.00  0.00    +0.046 A 
ATOM     20  C   UNL     1      17.510   7.687  21.497  0.00  0.00    +0.023 A 
ATOM     21  C   UNL     1      18.640  10.126  22.184  0.00  0.00    +0.024 A 
ATOM     22  C   UNL     1      18.891   7.790  21.660  0.00  0.00    -0.014 A 
ATOM     24  C   UNL     1      19.455   9.007  22.016  0.00  0.00    +0.010 A 
ATOM     34  H   UNL     1      17.027  11.984  22.685  0.00  0.00    +0.155 HD
ENDROOT
BRANCH  22  25
ATOM      1  F   UNL     1      18.562   6.022  19.500  0.00  0.00    -0.205 F 
ATOM     25  C   UNL     1      19.732   6.625  21.482  0.00  0.00    +0.017 A 
ATOM     26  C   UNL     1      19.530   5.774  20.395  0.00  0.00    +0.131 A 
ATOM     27  C   UNL     1      20.743   6.353  22.403  0.00  0.00    +0.011 A 
ATOM     29  C   UNL     1      20.340   4.651  20.229  0.00  0.00    +0.039 A 
ATOM     30  C   UNL     1      21.553   5.230  22.237  0.00  0.00    +0.001 A 
ATOM     31  C   UNL     1      21.353   4.379  21.150  0.00  0.00    +0.003 A 
ENDBRANCH  22  25
BRANCH  11   9
ATOM      4  O   UNL     1      14.738  12.349  17.478  0.00  0.00    -0.273 OA
ATOM      9  N   UNL     1      13.368  10.778  18.510  0.00  0.00    -0.308 N 
ATOM     19  C   UNL     1      14.004  11.365  17.428  0.00  0.00    +0.239 C 
ATOM     33  H   UNL     1      12.822   9.933  18.357  0.00  0.00    +0.149 HD
BRANCH  19  23
ATOM     23  C   UNL     1      13.688  10.645  16.135  0.00  0.00    +0.256 C 
BRANCH  23   5
ATOM      5  O   UNL     1      13.289   9.314  16.390  0.00  0.00    -0.359 OA
BRANCH   5  28
ATOM     28  C   UNL     1      12.025   9.018  15.803  0.00  0.00    +0.280 C 
BRANCH  28  32
ATOM      7  O   UNL     1      11.306   8.467  18.059  0.00  0.00    -0.248 OA
ATOM     32  C   UNL     1      11.082   8.508  16.858  0.00  0.00    +0.331 C 
BRANCH  32   6
ATOM      6  O   UNL     1       9.924   8.089  16.288  0.00  0.00    -0.479 OA
ATOM     35  H   UNL     1       9.145   8.560  16.654  0.00  0.00    +0.295 HD
ENDBRANCH  32   6
ENDBRANCH  28  32
ENDBRANCH   5  28
ENDBRANCH  23   5
ENDBRANCH  19  23
ENDBRANCH  11   9
TORSDOF 7
ENDMDL
MODEL 8
REMARK VINA RESULT:      -6.9     27.819     30.479
REMARK  Name = 11866028
REMARK  7 active torsions:
REMARK  status: ('A' for Active; 'I' for Inactive)
REMARK    1  A    between atoms: O_5  and  C_23
REMARK    2  A    between atoms: O_5  and  C_28
REMARK    3  A    between atoms: O_6  and  C_32
REMARK    4  A    between atoms: N_9  and  C_11
REMARK    5  A    between atoms: C_19  and  C_23
REMARK    6  A    between atoms: C_22  and  C_25
REMARK    7  A    between atoms: C_28  and  C_32
REMARK                            x       y       z     vdW  Elec       q    Type
REMARK                         _______ _______ _______ _____ _____    ______ ____
ROOT
ATOM      2  O   UNL     1      -1.862 -10.709  16.574  0.00  0.00    -0.273 OA
ATOM      3  O   UNL     1      -4.707 -13.638  13.246  0.00  0.00    -0.270 OA
ATOM      8  N   UNL     1      -4.336 -12.260  15.050  0.00  0.00    -0.284 N 
ATOM     10  N   UNL     1      -2.017 -10.611  14.304  0.00  0.00    -0.283 N 
ATOM     11  C   UNL     1      -4.619 -11.040  17.056  0.00  0.00    +0.104 C 
ATOM     12  C   UNL     1      -4.065 -10.957  15.626  0.00  0.00    +0.183 C 
ATOM     13  C   UNL     1      -4.539 -12.533  17.382  0.00  0.00    +0.043 C 
ATOM     14  C   UNL     1      -4.827 -13.200  16.047  0.00  0.00    +0.111 C 
ATOM     15  C   UNL     1      -2.558 -10.788  15.561  0.00  0.00    +0.240 C 
ATOM     16  C   UNL     1      -4.313 -12.566  13.706  0.00  0.00    +0.249 C 
ATOM     17  C   UNL     1      -3.758 -11.555  12.768  0.00  0.00    +0.059 A 
ATOM     18  C   UNL     1      -2.650 -10.739  13.049  0.00  0.00    +0.046 A 
ATOM     20  C   UNL     1      -4.299 -11.564  11.470  0.00  0.00    +0.023 A 
ATOM     21  C   UNL     1      -2.069 -10.002  12.001  0.00  0.00    +0.024 A 
ATOM     22  C   UNL     1      -3.739 -10.789  10.456  0.00  0.00    -0.014 A 
ATOM     24  C   UNL     1      -2.615 -10.017  10.719  0.00  0.00    +0.010 A 
ATOM     34  H   UNL     1      -1.061 -10.264  14.286  0.00  0.00    +0.155 HD
ENDROOT
BRANCH  22  25
ATOM      1  F   UNL     1      -5.080  -8.570   9.373  0.00  0.00    -0.205 F 
ATOM     25  C   UNL     1      -4.311 -10.807   9.127  0.00  0.00    +0.017 A 
ATOM     26  C   UNL     1      -4.971  -9.682   8.632  0.00  0.00    +0.131 A 
ATOM     27  C   UNL     1      -4.206 -11.956   8.343  0.00  0.00    +0.011 A 
ATOM     29  C   UNL     1      -5.525  -9.705   7.352  0.00  0.00    +0.039 A 
ATOM     30  C   UNL     1      -4.761 -11.979   7.063  0.00  0.00    +0.001 A 
ATOM     31  C   UNL     1      -5.419 -10.854   6.567  0.00  0.00    +0.003 A 
ENDBRANCH  22  25
BRANCH  11   9
ATOM      4  O   UNL     1      -6.177 -10.440  19.425  0.00  0.00    -0.273 OA
ATOM      9  N   UNL     1      -5.982 -10.565  17.110  0.00  0.00    -0.308 N 
ATOM     19  C   UNL     1      -6.647 -10.304  18.298  0.00  0.00    +0.239 C 
ATOM     33  H   UNL     1      -6.455 -10.368  16.232  0.00  0.00    +0.149 HD
BRANCH  19  23
ATOM     23  C   UNL     1      -8.059  -9.820  18.053  0.00  0.00    +0.256 C 
BRANCH  23   5
ATOM      5  O   UNL     1      -8.091  -8.890  16.990  0.00  0.00    -0.359 OA
BRANCH   5  28
ATOM     28  C   UNL     1      -9.214  -9.098  16.137  0.00  0.00    +0.280 C 
BRANCH  28  32
ATOM      7  O   UNL     1      -9.459  -9.886  13.851  0.00  0.00    -0.248 OA
ATOM     32  C   UNL     1      -8.744  -9.520  14.772  0.00  0.00    +0.331 C 
BRANCH  32   6
ATOM      6  O   UNL     1      -7.392  -9.439  14.696  0.00  0.00    -0.479 OA
ATOM     35  H   UNL     1      -7.009 -10.176  14.174  0.00  0.00    +0.295 HD
ENDBRANCH  32   6
ENDBRANCH  28  32
ENDBRANCH   5  28
ENDBRANCH  23   5
ENDBRANCH  19  23
ENDBRANCH  11   9
TORSDOF 7
ENDMDL
MODEL 9
REMARK VINA RESULT:      -6.6     21.736     24.469
REMARK  Name = 11866028
REMARK  7 active torsions:
REMARK  status: ('A' for Active; 'I' for Inactive)
REMARK    1  A    between atoms: O_5  and  C_23
REMARK    2  A    between atoms: O_5  and  C_28
REMARK    3  A    between atoms: O_6  and  C_32
REMARK    4  A    between atoms: N_9  and  C_11
REMARK    5  A    between atoms: C_19  and  C_23
REMARK    6  A    between atoms: C_22  and  C_25
REMARK    7  A    between atoms: C_28  and  C_32
REMARK                            x       y       z     vdW  Elec       q    Type
REMARK                         _______ _______ _______ _____ _____    ______ ____
ROOT
ATOM      2  O   UNL     1       7.641  -5.749  34.487  0.00  0.00    -0.273 OA
ATOM      3  O   UNL     1       9.036 -10.826  34.307  0.00  0.00    -0.270 OA
ATOM      8  N   UNL     1       7.955  -8.967  35.121  0.00  0.00    -0.284 N 
ATOM     10  N   UNL     1       7.492  -7.249  32.779  0.00  0.00    -0.283 N 
ATOM     11  C   UNL     1       6.727  -7.492  36.504  0.00  0.00    +0.104 C 
ATOM     12  C   UNL     1       6.900  -7.972  35.056  0.00  0.00    +0.183 C 
ATOM     13  C   UNL     1       8.102  -7.739  37.128  0.00  0.00    +0.043 C 
ATOM     14  C   UNL     1       8.580  -9.005  36.435  0.00  0.00    +0.111 C 
ATOM     15  C   UNL     1       7.409  -6.900  34.111  0.00  0.00    +0.240 C 
ATOM     16  C   UNL     1       8.244  -9.897  34.146  0.00  0.00    +0.249 C 
ATOM     17  C   UNL     1       7.582  -9.753  32.823  0.00  0.00    +0.059 A 
ATOM     18  C   UNL     1       7.334  -8.523  32.192  0.00  0.00    +0.046 A 
ATOM     20  C   UNL     1       7.358 -10.949  32.118  0.00  0.00    +0.023 A 
ATOM     21  C   UNL     1       6.930  -8.522  30.845  0.00  0.00    +0.024 A 
ATOM     22  C   UNL     1       6.911 -10.929  30.798  0.00  0.00    -0.014 A 
ATOM     24  C   UNL     1       6.709  -9.714  30.157  0.00  0.00    +0.010 A 
ATOM     34  H   UNL     1       7.600  -6.472  32.131  0.00  0.00    +0.155 HD
ENDROOT
BRANCH  22  25
ATOM      1  F   UNL     1       8.719 -11.921  28.889  0.00  0.00    -0.205 F 
ATOM     25  C   UNL     1       6.681 -12.170  30.090  0.00  0.00    +0.017 A 
ATOM     26  C   UNL     1       7.605 -12.622  29.149  0.00  0.00    +0.131 A 
ATOM     27  C   UNL     1       5.528 -12.911  30.349  0.00  0.00    +0.011 A 
ATOM     29  C   UNL     1       7.378 -13.817  28.465  0.00  0.00    +0.039 A 
ATOM     30  C   UNL     1       5.300 -14.106  29.665  0.00  0.00    +0.001 A 
ATOM     31  C   UNL     1       6.225 -14.560  28.724  0.00  0.00    +0.003 A 
ENDBRANCH  22  25
BRANCH  11   9
ATOM      4  O   UNL     1       4.542  -6.460  38.103  0.00  0.00    -0.273 OA
ATOM      9  N   UNL     1       5.702  -8.253  37.181  0.00  0.00    -0.308 N 
ATOM     19  C   UNL     1       4.692  -7.667  37.926  0.00  0.00    +0.239 C 
ATOM     33  H   UNL     1       5.697  -9.262  37.061  0.00  0.00    +0.149 HD
BRANCH  19  23
ATOM     23  C   UNL     1       3.761  -8.702  38.520  0.00  0.00    +0.256 C 
BRANCH  23   5
ATOM      5  O   UNL     1       2.671  -8.946  37.656  0.00  0.00    -0.359 OA
BRANCH   5  28
ATOM     28  C   UNL     1       2.682 -10.279  37.151  0.00  0.00    +0.280 C 
BRANCH  28  32
ATOM      7  O   UNL     1       3.755  -9.565  35.091  0.00  0.00    -0.248 OA
ATOM     32  C   UNL     1       2.931 -10.259  35.669  0.00  0.00    +0.331 C 
BRANCH  32   6
ATOM      6  O   UNL     1       2.102 -11.131  35.043  0.00  0.00    -0.479 OA
ATOM     35  H   UNL     1       2.134 -12.023  35.449  0.00  0.00    +0.295 HD
ENDBRANCH  32   6
ENDBRANCH  28  32
ENDBRANCH   5  28
ENDBRANCH  23   5
ENDBRANCH  19  23
ENDBRANCH  11   9
TORSDOF 7
ENDMDL
MODEL 10
REMARK VINA RESULT:      -6.6     28.499     31.403
REMARK  Name = 11866028
REMARK  7 active torsions:
REMARK  status: ('A' for Active; 'I' for Inactive)
REMARK    1  A    between atoms: O_5  and  C_23
REMARK    2  A    between atoms: O_5  and  C_28
REMARK    3  A    between atoms: O_6  and  C_32
REMARK    4  A    between atoms: N_9  and  C_11
REMARK    5  A    between atoms: C_19  and  C_23
REMARK    6  A    between atoms: C_22  and  C_25
REMARK    7  A    between atoms: C_28  and  C_32
REMARK                            x       y       z     vdW  Elec       q    Type
REMARK                         _______ _______ _______ _____ _____    ______ ____
ROOT
ATOM      2  O   UNL     1     -10.961  -9.969  19.608  0.00  0.00    -0.273 OA
ATOM      3  O   UNL     1      -8.896 -11.724  15.091  0.00  0.00    -0.270 OA
ATOM      8  N   UNL     1     -10.139 -10.337  16.439  0.00  0.00    -0.284 N 
ATOM     10  N   UNL     1      -8.790 -10.381  19.053  0.00  0.00    -0.283 N 
ATOM     11  C   UNL     1     -11.656  -8.688  17.197  0.00  0.00    +0.104 C 
ATOM     12  C   UNL     1     -10.251  -9.267  17.414  0.00  0.00    +0.183 C 
ATOM     13  C   UNL     1     -12.442  -9.866  16.618  0.00  0.00    +0.043 C 
ATOM     14  C   UNL     1     -11.409 -10.598  15.777  0.00  0.00    +0.111 C 
ATOM     15  C   UNL     1     -10.061  -9.927  18.767  0.00  0.00    +0.240 C 
ATOM     16  C   UNL     1      -8.966 -10.937  16.035  0.00  0.00    +0.249 C 
ATOM     17  C   UNL     1      -7.727 -10.636  16.798  0.00  0.00    +0.059 A 
ATOM     18  C   UNL     1      -7.675 -10.474  18.193  0.00  0.00    +0.046 A 
ATOM     20  C   UNL     1      -6.528 -10.690  16.064  0.00  0.00    +0.023 A 
ATOM     21  C   UNL     1      -6.419 -10.437  18.824  0.00  0.00    +0.024 A 
ATOM     22  C   UNL     1      -5.293 -10.604  16.703  0.00  0.00    -0.014 A 
ATOM     24  C   UNL     1      -5.238 -10.490  18.086  0.00  0.00    +0.010 A 
ATOM     34  H   UNL     1      -8.615 -10.598  20.031  0.00  0.00    +0.155 HD
ENDROOT
BRANCH  22  25
ATOM      1  F   UNL     1      -5.286 -10.440  13.898  0.00  0.00    -0.205 F 
ATOM     25  C   UNL     1      -4.070 -10.656  15.931  0.00  0.00    +0.017 A 
ATOM     26  C   UNL     1      -4.115 -10.574  14.539  0.00  0.00    +0.131 A 
ATOM     27  C   UNL     1      -2.844 -10.795  16.582  0.00  0.00    +0.011 A 
ATOM     29  C   UNL     1      -2.935 -10.629  13.798  0.00  0.00    +0.039 A 
ATOM     30  C   UNL     1      -1.664 -10.850  15.841  0.00  0.00    +0.001 A 
ATOM     31  C   UNL     1      -1.708 -10.766  14.450  0.00  0.00    +0.003 A 
ENDBRANCH  22  25
BRANCH  11   9
ATOM      4  O   UNL     1     -13.886  -7.059  16.319  0.00  0.00    -0.273 OA
ATOM      9  N   UNL     1     -11.619  -7.579  16.272  0.00  0.00    -0.308 N 
ATOM     19  C   UNL     1     -12.745  -6.856  15.911  0.00  0.00    +0.239 C 
ATOM     33  H   UNL     1     -10.715  -7.288  15.909  0.00  0.00    +0.149 HD
BRANCH  19  23
ATOM     23  C   UNL     1     -12.412  -5.754  14.929  0.00  0.00    +0.256 C 
BRANCH  23   5
ATOM      5  O   UNL     1     -13.142  -5.916  13.730  0.00  0.00    -0.359 OA
BRANCH   5  28
ATOM     28  C   UNL     1     -13.505  -4.664  13.156  0.00  0.00    +0.280 C 
BRANCH  28  32
ATOM      7  O   UNL     1     -11.951  -4.717  11.289  0.00  0.00    -0.248 OA
ATOM     32  C   UNL     1     -12.388  -4.160  12.285  0.00  0.00    +0.331 C 
BRANCH  32   6
ATOM      6  O   UNL     1     -11.918  -2.980  12.762  0.00  0.00    -0.479 OA
ATOM     35  H   UNL     1     -11.218  -2.605  12.186  0.00  0.00    +0.295 HD
ENDBRANCH  32   6
ENDBRANCH  28  32
ENDBRANCH   5  28
ENDBRANCH  23   5
ENDBRANCH  19  23
ENDBRANCH  11   9
TORSDOF 7
ENDMDL
