MODEL 1
REMARK VINA RESULT:      -7.4      0.000      0.000
REMARK  Name = 11912436
REMARK  7 active torsions:
REMARK  status: ('A' for Active; 'I' for Inactive)
REMARK    1  A    between atoms: O_6  and  C_29
REMARK    2  A    between atoms: O_7  and  C_32
REMARK    3  A    between atoms: O_7  and  C_33
REMARK    4  A    between atoms: N_8  and  C_17
REMARK    5  A    between atoms: C_17  and  C_22
REMARK    6  A    between atoms: C_20  and  C_23
REMARK    7  A    between atoms: C_25  and  C_29
REMARK                            x       y       z     vdW  Elec       q    Type
REMARK                         _______ _______ _______ _____ _____    ______ ____
ROOT
ATOM      4  O   UNL     1      15.589   5.850  21.063  0.00  0.00    -0.267 OA
ATOM      8  N   UNL     1      12.590   9.291  18.986  0.00  0.00    -0.294 NA
ATOM      9  N   UNL     1      14.512   7.917  21.129  0.00  0.00    -0.311 N 
ATOM     10  C   UNL     1      11.959   8.149  21.127  0.00  0.00    +0.024 C 
ATOM     11  C   UNL     1      13.361  10.155  21.200  0.00  0.00    +0.050 C 
ATOM     12  C   UNL     1      12.223   9.429  21.910  0.00  0.00    +0.017 C 
ATOM     13  C   UNL     1      11.570   8.489  19.674  0.00  0.00    +0.090 C 
ATOM     14  C   UNL     1      12.934  10.497  19.754  0.00  0.00    +0.094 C 
ATOM     15  C   UNL     1      13.203   7.253  21.211  0.00  0.00    +0.130 C 
ATOM     16  C   UNL     1      14.621   9.309  21.194  0.00  0.00    +0.026 A 
ATOM     18  C   UNL     1      15.831   9.888  21.231  0.00  0.00    +0.022 A 
ATOM     19  C   UNL     1      15.645   7.080  21.088  0.00  0.00    +0.259 A 
ATOM     20  C   UNL     1      16.988   7.761  21.096  0.00  0.00    +0.047 A 
ATOM     21  C   UNL     1      17.029   9.099  21.176  0.00  0.00    +0.015 A 
ENDROOT
BRANCH  20  23
ATOM     23  C   UNL     1      18.237   6.985  21.010  0.00  0.00    -0.012 A 
ATOM     27  C   UNL     1      19.262   7.207  21.931  0.00  0.00    +0.012 A 
ATOM     28  C   UNL     1      18.396   6.028  20.007  0.00  0.00    +0.012 A 
ATOM     30  C   UNL     1      20.445   6.472  21.849  0.00  0.00    +0.046 A 
ATOM     31  C   UNL     1      19.579   5.293  19.925  0.00  0.00    +0.046 A 
ATOM     32  C   UNL     1      20.603   5.515  20.847  0.00  0.00    +0.130 A 
BRANCH  32   7
ATOM      7  O   UNL     1      21.758   4.798  20.767  0.00  0.00    -0.406 OA
BRANCH   7  33
ATOM      1  F   UNL     1      22.918   2.868  20.924  0.00  0.00    -0.133 F 
ATOM      2  F   UNL     1      21.722   3.491  22.644  0.00  0.00    -0.133 F 
ATOM      3  F   UNL     1      20.739   2.751  20.809  0.00  0.00    -0.133 F 
ATOM     33  C   UNL     1      21.768   3.476  21.294  0.00  0.00    +0.575 C 
ENDBRANCH   7  33
ENDBRANCH  32   7
ENDBRANCH  20  23
BRANCH   8  17
ATOM     17  C   UNL     1      12.161   9.636  17.633  0.00  0.00    +0.158 C 
BRANCH  17  22
ATOM      5  O   UNL     1      13.688  10.538  16.011  0.00  0.00    -0.461 OA
ATOM     22  C   UNL     1      13.275   9.426  16.643  0.00  0.00    +0.119 A 
ATOM     24  C   UNL     1      13.950   8.319  16.260  0.00  0.00    +0.046 A 
ATOM     25  C   UNL     1      14.680  10.129  15.178  0.00  0.00    +0.131 A 
ATOM     26  C   UNL     1      14.880   8.774  15.294  0.00  0.00    +0.047 A 
BRANCH  25  29
ATOM     29  C   UNL     1      15.311  11.173  14.357  0.00  0.00    +0.230 C 
BRANCH  29   6
ATOM      6  O   UNL     1      15.466  10.661  13.033  0.00  0.00    -0.387 OA
ATOM     34  H   UNL     1      15.414   9.692  13.096  0.00  0.00    +0.210 HD
ENDBRANCH  29   6
ENDBRANCH  25  29
ENDBRANCH  17  22
ENDBRANCH   8  17
TORSDOF 7
ENDMDL
MODEL 2
REMARK VINA RESULT:      -7.3     14.044     16.195
REMARK  Name = 11912436
REMARK  7 active torsions:
REMARK  status: ('A' for Active; 'I' for Inactive)
REMARK    1  A    between atoms: O_6  and  C_29
REMARK    2  A    between atoms: O_7  and  C_32
REMARK    3  A    between atoms: O_7  and  C_33
REMARK    4  A    between atoms: N_8  and  C_17
REMARK    5  A    between atoms: C_17  and  C_22
REMARK    6  A    between atoms: C_20  and  C_23
REMARK    7  A    between atoms: C_25  and  C_29
REMARK                            x       y       z     vdW  Elec       q    Type
REMARK                         _______ _______ _______ _____ _____    ______ ____
ROOT
ATOM      4  O   UNL     1      14.490   7.000   6.542  0.00  0.00    -0.267 OA
ATOM      8  N   UNL     1      10.951   5.072   3.558  0.00  0.00    -0.294 NA
ATOM      9  N   UNL     1      12.585   7.249   5.220  0.00  0.00    -0.311 N 
ATOM     10  C   UNL     1      10.361   6.100   5.767  0.00  0.00    +0.024 C 
ATOM     11  C   UNL     1      10.536   7.525   3.784  0.00  0.00    +0.050 C 
ATOM     12  C   UNL     1       9.738   7.300   5.065  0.00  0.00    +0.017 C 
ATOM     13  C   UNL     1      10.294   4.859   4.854  0.00  0.00    +0.090 C 
ATOM     14  C   UNL     1      10.434   6.273   2.884  0.00  0.00    +0.094 C 
ATOM     15  C   UNL     1      11.797   6.456   6.174  0.00  0.00    +0.130 C 
ATOM     16  C   UNL     1      11.988   7.834   4.100  0.00  0.00    +0.026 A 
ATOM     18  C   UNL     1      12.701   8.646   3.304  0.00  0.00    +0.022 A 
ATOM     19  C   UNL     1      13.938   7.471   5.547  0.00  0.00    +0.259 A 
ATOM     20  C   UNL     1      14.720   8.359   4.616  0.00  0.00    +0.047 A 
ATOM     21  C   UNL     1      14.088   8.905   3.566  0.00  0.00    +0.015 A 
ENDROOT
BRANCH  20  23
ATOM     23  C   UNL     1      16.153   8.623   4.837  0.00  0.00    -0.012 A 
ATOM     27  C   UNL     1      17.113   7.940   4.089  0.00  0.00    +0.012 A 
ATOM     28  C   UNL     1      16.551   9.556   5.796  0.00  0.00    +0.012 A 
ATOM     30  C   UNL     1      18.469   8.190   4.299  0.00  0.00    +0.046 A 
ATOM     31  C   UNL     1      17.907   9.806   6.005  0.00  0.00    +0.046 A 
ATOM     32  C   UNL     1      18.866   9.123   5.257  0.00  0.00    +0.130 A 
BRANCH  32   7
ATOM      7  O   UNL     1      20.190   9.367   5.461  0.00  0.00    -0.406 OA
BRANCH   7  33
ATOM      1  F   UNL     1      20.182   8.261   7.428  0.00  0.00    -0.133 F 
ATOM      2  F   UNL     1      21.133   7.299   5.712  0.00  0.00    -0.133 F 
ATOM      3  F   UNL     1      22.088   9.034   6.691  0.00  0.00    -0.133 F 
ATOM     33  C   UNL     1      20.914   8.488   6.314  0.00  0.00    +0.575 C 
ENDBRANCH   7  33
ENDBRANCH  32   7
ENDBRANCH  20  23
BRANCH   8  17
ATOM     17  C   UNL     1      10.820   3.894   2.704  0.00  0.00    +0.158 C 
BRANCH  17  22
ATOM      5  O   UNL     1      13.114   3.737   2.004  0.00  0.00    -0.461 OA
ATOM     22  C   UNL     1      11.843   3.909   1.601  0.00  0.00    +0.119 A 
ATOM     24  C   UNL     1      11.731   4.065   0.263  0.00  0.00    +0.046 A 
ATOM     25  C   UNL     1      13.859   3.784   0.870  0.00  0.00    +0.131 A 
ATOM     26  C   UNL     1      13.056   3.982  -0.229  0.00  0.00    +0.047 A 
BRANCH  25  29
ATOM     29  C   UNL     1      15.310   3.619   1.038  0.00  0.00    +0.230 C 
BRANCH  29   6
ATOM      6  O   UNL     1      15.554   3.176   2.374  0.00  0.00    -0.387 OA
ATOM     34  H   UNL     1      14.743   2.731   2.676  0.00  0.00    +0.210 HD
ENDBRANCH  29   6
ENDBRANCH  25  29
ENDBRANCH  17  22
ENDBRANCH   8  17
TORSDOF 7
ENDMDL
MODEL 3
REMARK VINA RESULT:      -7.3     15.665     18.735
REMARK  Name = 11912436
REMARK  7 active torsions:
REMARK  status: ('A' for Active; 'I' for Inactive)
REMARK    1  A    between atoms: O_6  and  C_29
REMARK    2  A    between atoms: O_7  and  C_32
REMARK    3  A    between atoms: O_7  and  C_33
REMARK    4  A    between atoms: N_8  and  C_17
REMARK    5  A    between atoms: C_17  and  C_22
REMARK    6  A    between atoms: C_20  and  C_23
REMARK    7  A    between atoms: C_25  and  C_29
REMARK                            x       y       z     vdW  Elec       q    Type
REMARK                         _______ _______ _______ _____ _____    ______ ____
ROOT
ATOM      4  O   UNL     1      10.281   4.243   3.294  0.00  0.00    -0.267 OA
ATOM      8  N   UNL     1       9.034   8.302   5.962  0.00  0.00    -0.294 NA
ATOM      9  N   UNL     1      10.768   5.831   4.930  0.00  0.00    -0.311 N 
ATOM     10  C   UNL     1       9.383   6.081   7.072  0.00  0.00    +0.024 C 
ATOM     11  C   UNL     1      11.303   7.550   6.689  0.00  0.00    +0.050 C 
ATOM     12  C   UNL     1      10.690   6.570   7.684  0.00  0.00    +0.017 C 
ATOM     13  C   UNL     1       8.437   7.274   6.823  0.00  0.00    +0.090 C 
ATOM     14  C   UNL     1      10.341   8.741   6.475  0.00  0.00    +0.094 C 
ATOM     15  C   UNL     1       9.699   5.301   5.789  0.00  0.00    +0.130 C 
ATOM     16  C   UNL     1      11.600   6.865   5.368  0.00  0.00    +0.026 A 
ATOM     18  C   UNL     1      12.639   7.257   4.615  0.00  0.00    +0.022 A 
ATOM     19  C   UNL     1      10.973   5.178   3.698  0.00  0.00    +0.259 A 
ATOM     20  C   UNL     1      12.126   5.663   2.861  0.00  0.00    +0.047 A 
ATOM     21  C   UNL     1      12.899   6.648   3.341  0.00  0.00    +0.015 A 
ENDROOT
BRANCH  20  23
ATOM     23  C   UNL     1      12.404   5.083   1.535  0.00  0.00    -0.012 A 
ATOM     27  C   UNL     1      11.969   5.735   0.381  0.00  0.00    +0.012 A 
ATOM     28  C   UNL     1      13.103   3.879   1.433  0.00  0.00    +0.012 A 
ATOM     30  C   UNL     1      12.232   5.186  -0.873  0.00  0.00    +0.046 A 
ATOM     31  C   UNL     1      13.366   3.329   0.179  0.00  0.00    +0.046 A 
ATOM     32  C   UNL     1      12.931   3.983  -0.974  0.00  0.00    +0.130 A 
BRANCH  32   7
ATOM      7  O   UNL     1      13.188   3.447  -2.199  0.00  0.00    -0.406 OA
BRANCH   7  33
ATOM      1  F   UNL     1      12.584   2.280  -4.034  0.00  0.00    -0.133 F 
ATOM      2  F   UNL     1      12.221   1.379  -2.077  0.00  0.00    -0.133 F 
ATOM      3  F   UNL     1      11.001   3.088  -2.763  0.00  0.00    -0.133 F 
ATOM     33  C   UNL     1      12.237   2.546  -2.755  0.00  0.00    +0.575 C 
ENDBRANCH   7  33
ENDBRANCH  32   7
ENDBRANCH  20  23
BRANCH   8  17
ATOM     17  C   UNL     1       8.129   9.435   5.794  0.00  0.00    +0.158 C 
BRANCH  17  22
ATOM      5  O   UNL     1       6.344  10.058   4.310  0.00  0.00    -0.461 OA
ATOM     22  C   UNL     1       7.543   9.459   4.408  0.00  0.00    +0.119 A 
ATOM     24  C   UNL     1       7.996   8.987   3.224  0.00  0.00    +0.046 A 
ATOM     25  C   UNL     1       6.005   9.969   2.998  0.00  0.00    +0.131 A 
ATOM     26  C   UNL     1       6.987   9.320   2.287  0.00  0.00    +0.047 A 
BRANCH  25  29
ATOM     29  C   UNL     1       4.713  10.558   2.619  0.00  0.00    +0.230 C 
BRANCH  29   6
ATOM      6  O   UNL     1       3.858   9.504   2.173  0.00  0.00    -0.387 OA
ATOM     34  H   UNL     1       3.573   9.017   2.966  0.00  0.00    +0.210 HD
ENDBRANCH  29   6
ENDBRANCH  25  29
ENDBRANCH  17  22
ENDBRANCH   8  17
TORSDOF 7
ENDMDL
MODEL 4
REMARK VINA RESULT:      -7.3     27.780     30.582
REMARK  Name = 11912436
REMARK  7 active torsions:
REMARK  status: ('A' for Active; 'I' for Inactive)
REMARK    1  A    between atoms: O_6  and  C_29
REMARK    2  A    between atoms: O_7  and  C_32
REMARK    3  A    between atoms: O_7  and  C_33
REMARK    4  A    between atoms: N_8  and  C_17
REMARK    5  A    between atoms: C_17  and  C_22
REMARK    6  A    between atoms: C_20  and  C_23
REMARK    7  A    between atoms: C_25  and  C_29
REMARK                            x       y       z     vdW  Elec       q    Type
REMARK                         _______ _______ _______ _____ _____    ______ ____
ROOT
ATOM      4  O   UNL     1      -6.390 -11.921  11.208  0.00  0.00    -0.267 OA
ATOM      8  N   UNL     1      -3.070 -11.071  14.869  0.00  0.00    -0.294 NA
ATOM      9  N   UNL     1      -4.190 -11.704  11.951  0.00  0.00    -0.311 N 
ATOM     10  C   UNL     1      -3.153 -13.279  13.686  0.00  0.00    +0.024 C 
ATOM     11  C   UNL     1      -1.814 -11.458  12.745  0.00  0.00    +0.050 C 
ATOM     12  C   UNL     1      -1.845 -12.967  12.970  0.00  0.00    +0.017 C 
ATOM     13  C   UNL     1      -3.214 -12.523  15.029  0.00  0.00    +0.090 C 
ATOM     14  C   UNL     1      -1.859 -10.731  14.108  0.00  0.00    +0.094 C 
ATOM     15  C   UNL     1      -4.322 -12.927  12.756  0.00  0.00    +0.130 C 
ATOM     16  C   UNL     1      -2.975 -11.019  11.871  0.00  0.00    +0.026 A 
ATOM     18  C   UNL     1      -2.846  -9.971  11.043  0.00  0.00    +0.022 A 
ATOM     19  C   UNL     1      -5.313 -11.323  11.190  0.00  0.00    +0.259 A 
ATOM     20  C   UNL     1      -5.147 -10.123  10.296  0.00  0.00    +0.047 A 
ATOM     21  C   UNL     1      -3.952  -9.516  10.249  0.00  0.00    +0.015 A 
ENDROOT
BRANCH  20  23
ATOM     23  C   UNL     1      -6.270  -9.611   9.490  0.00  0.00    -0.012 A 
ATOM     27  C   UNL     1      -6.304  -9.839   8.114  0.00  0.00    +0.012 A 
ATOM     28  C   UNL     1      -7.300  -8.896  10.104  0.00  0.00    +0.012 A 
ATOM     30  C   UNL     1      -7.367  -9.354   7.352  0.00  0.00    +0.046 A 
ATOM     31  C   UNL     1      -8.362  -8.411   9.341  0.00  0.00    +0.046 A 
ATOM     32  C   UNL     1      -8.396  -8.640   7.965  0.00  0.00    +0.130 A 
BRANCH  32   7
ATOM      7  O   UNL     1      -9.433  -8.167   7.221  0.00  0.00    -0.406 OA
BRANCH   7  33
ATOM      1  F   UNL     1      -8.293  -6.219   7.210  0.00  0.00    -0.133 F 
ATOM      2  F   UNL     1      -8.965  -7.028   5.295  0.00  0.00    -0.133 F 
ATOM      3  F   UNL     1     -10.421  -6.167   6.715  0.00  0.00    -0.133 F 
ATOM     33  C   UNL     1      -9.291  -6.895   6.598  0.00  0.00    +0.575 C 
ENDBRANCH   7  33
ENDBRANCH  32   7
ENDBRANCH  20  23
BRANCH   8  17
ATOM     17  C   UNL     1      -3.081 -10.397  16.165  0.00  0.00    +0.158 C 
BRANCH  17  22
ATOM      5  O   UNL     1      -4.635 -10.816  17.950  0.00  0.00    -0.461 OA
ATOM     22  C   UNL     1      -4.478 -10.307  16.717  0.00  0.00    +0.119 A 
ATOM     24  C   UNL     1      -5.624  -9.805  16.203  0.00  0.00    +0.046 A 
ATOM     25  C   UNL     1      -5.947 -10.633  18.249  0.00  0.00    +0.131 A 
ATOM     26  C   UNL     1      -6.599 -10.015  17.208  0.00  0.00    +0.047 A 
BRANCH  25  29
ATOM     29  C   UNL     1      -6.386 -11.113  19.568  0.00  0.00    +0.230 C 
BRANCH  29   6
ATOM      6  O   UNL     1      -7.479 -10.297  19.995  0.00  0.00    -0.387 OA
ATOM     34  H   UNL     1      -7.432 -10.248  20.965  0.00  0.00    +0.210 HD
ENDBRANCH  29   6
ENDBRANCH  25  29
ENDBRANCH  17  22
ENDBRANCH   8  17
TORSDOF 7
ENDMDL
MODEL 5
REMARK VINA RESULT:      -7.1     14.183     18.487
REMARK  Name = 11912436
REMARK  7 active torsions:
REMARK  status: ('A' for Active; 'I' for Inactive)
REMARK    1  A    between atoms: O_6  and  C_29
REMARK    2  A    between atoms: O_7  and  C_32
REMARK    3  A    between atoms: O_7  and  C_33
REMARK    4  A    between atoms: N_8  and  C_17
REMARK    5  A    between atoms: C_17  and  C_22
REMARK    6  A    between atoms: C_20  and  C_23
REMARK    7  A    between atoms: C_25  and  C_29
REMARK                            x       y       z     vdW  Elec       q    Type
REMARK                         _______ _______ _______ _____ _____    ______ ____
ROOT
ATOM      4  O   UNL     1      11.270   3.683   3.190  0.00  0.00    -0.267 OA
ATOM      8  N   UNL     1      14.317   5.321  -0.440  0.00  0.00    -0.294 NA
ATOM      9  N   UNL     1      11.608   4.739   1.139  0.00  0.00    -0.311 N 
ATOM     10  C   UNL     1      12.614   3.536  -0.888  0.00  0.00    +0.024 C 
ATOM     11  C   UNL     1      11.967   5.891  -1.070  0.00  0.00    +0.050 C 
ATOM     12  C   UNL     1      11.774   4.514  -1.699  0.00  0.00    +0.017 C 
ATOM     13  C   UNL     1      14.099   3.954  -0.929  0.00  0.00    +0.090 C 
ATOM     14  C   UNL     1      13.459   6.287  -1.143  0.00  0.00    +0.094 C 
ATOM     15  C   UNL     1      12.058   3.474   0.541  0.00  0.00    +0.130 C 
ATOM     16  C   UNL     1      11.486   5.899   0.369  0.00  0.00    +0.026 A 
ATOM     18  C   UNL     1      10.967   7.013   0.908  0.00  0.00    +0.022 A 
ATOM     19  C   UNL     1      11.209   4.694   2.490  0.00  0.00    +0.259 A 
ATOM     20  C   UNL     1      10.662   5.969   3.075  0.00  0.00    +0.047 A 
ATOM     21  C   UNL     1      10.554   7.045   2.283  0.00  0.00    +0.015 A 
ENDROOT
BRANCH  20  23
ATOM     23  C   UNL     1      10.257   6.047   4.490  0.00  0.00    -0.012 A 
ATOM     27  C   UNL     1      11.223   6.203   5.485  0.00  0.00    +0.012 A 
ATOM     28  C   UNL     1       8.907   5.965   4.835  0.00  0.00    +0.012 A 
ATOM     30  C   UNL     1      10.840   6.278   6.824  0.00  0.00    +0.046 A 
ATOM     31  C   UNL     1       8.524   6.039   6.174  0.00  0.00    +0.046 A 
ATOM     32  C   UNL     1       9.490   6.196   7.169  0.00  0.00    +0.130 A 
BRANCH  32   7
ATOM      7  O   UNL     1       9.117   6.269   8.476  0.00  0.00    -0.406 OA
BRANCH   7  33
ATOM      1  F   UNL     1      10.521   5.315   9.963  0.00  0.00    -0.133 F 
ATOM      2  F   UNL     1       8.374   5.005  10.231  0.00  0.00    -0.133 F 
ATOM      3  F   UNL     1       9.449   4.008   8.578  0.00  0.00    -0.133 F 
ATOM     33  C   UNL     1       9.351   5.139   9.308  0.00  0.00    +0.575 C 
ENDBRANCH   7  33
ENDBRANCH  32   7
ENDBRANCH  20  23
BRANCH   8  17
ATOM     17  C   UNL     1      15.724   5.697  -0.544  0.00  0.00    +0.158 C 
BRANCH  17  22
ATOM      5  O   UNL     1      15.419   6.461   1.714  0.00  0.00    -0.461 OA
ATOM     22  C   UNL     1      16.124   6.613   0.581  0.00  0.00    +0.119 A 
ATOM     24  C   UNL     1      17.071   7.575   0.673  0.00  0.00    +0.046 A 
ATOM     25  C   UNL     1      15.935   7.370   2.582  0.00  0.00    +0.131 A 
ATOM     26  C   UNL     1      16.954   8.079   1.991  0.00  0.00    +0.047 A 
BRANCH  25  29
ATOM     29  C   UNL     1      15.326   7.409   3.920  0.00  0.00    +0.230 C 
BRANCH  29   6
ATOM      6  O   UNL     1      14.166   6.576   3.904  0.00  0.00    -0.387 OA
ATOM     34  H   UNL     1      14.468   5.668   4.079  0.00  0.00    +0.210 HD
ENDBRANCH  29   6
ENDBRANCH  25  29
ENDBRANCH  17  22
ENDBRANCH   8  17
TORSDOF 7
ENDMDL
MODEL 6
REMARK VINA RESULT:      -7.1     15.129     18.602
REMARK  Name = 11912436
REMARK  7 active torsions:
REMARK  status: ('A' for Active; 'I' for Inactive)
REMARK    1  A    between atoms: O_6  and  C_29
REMARK    2  A    between atoms: O_7  and  C_32
REMARK    3  A    between atoms: O_7  and  C_33
REMARK    4  A    between atoms: N_8  and  C_17
REMARK    5  A    between atoms: C_17  and  C_22
REMARK    6  A    between atoms: C_20  and  C_23
REMARK    7  A    between atoms: C_25  and  C_29
REMARK                            x       y       z     vdW  Elec       q    Type
REMARK                         _______ _______ _______ _____ _____    ______ ____
ROOT
ATOM      4  O   UNL     1       9.728   7.361   1.789  0.00  0.00    -0.267 OA
ATOM      8  N   UNL     1      10.925   8.382   6.551  0.00  0.00    -0.294 NA
ATOM      9  N   UNL     1       9.557   6.914   4.071  0.00  0.00    -0.311 N 
ATOM     10  C   UNL     1       8.561   8.586   5.739  0.00  0.00    +0.024 C 
ATOM     11  C   UNL     1       9.378   6.419   6.533  0.00  0.00    +0.050 C 
ATOM     12  C   UNL     1       8.163   7.342   6.522  0.00  0.00    +0.017 C 
ATOM     13  C   UNL     1       9.767   9.274   6.413  0.00  0.00    +0.090 C 
ATOM     14  C   UNL     1      10.561   7.129   7.230  0.00  0.00    +0.094 C 
ATOM     15  C   UNL     1       8.849   8.185   4.286  0.00  0.00    +0.130 C 
ATOM     16  C   UNL     1       9.761   6.015   5.121  0.00  0.00    +0.026 A 
ATOM     18  C   UNL     1      10.308   4.813   4.882  0.00  0.00    +0.022 A 
ATOM     19  C   UNL     1       9.921   6.608   2.745  0.00  0.00    +0.259 A 
ATOM     20  C   UNL     1      10.564   5.267   2.513  0.00  0.00    +0.047 A 
ATOM     21  C   UNL     1      10.719   4.440   3.557  0.00  0.00    +0.015 A 
ENDROOT
BRANCH  20  23
ATOM     23  C   UNL     1      11.026   4.863   1.174  0.00  0.00    -0.012 A 
ATOM     27  C   UNL     1      12.337   4.424   0.989  0.00  0.00    +0.012 A 
ATOM     28  C   UNL     1      10.151   4.919   0.087  0.00  0.00    +0.012 A 
ATOM     30  C   UNL     1      12.774   4.041  -0.279  0.00  0.00    +0.046 A 
ATOM     31  C   UNL     1      10.587   4.537  -1.181  0.00  0.00    +0.046 A 
ATOM     32  C   UNL     1      11.899   4.098  -1.364  0.00  0.00    +0.130 A 
BRANCH  32   7
ATOM      7  O   UNL     1      12.325   3.724  -2.602  0.00  0.00    -0.406 OA
BRANCH   7  33
ATOM      1  F   UNL     1      12.906   2.061  -4.013  0.00  0.00    -0.133 F 
ATOM      2  F   UNL     1      12.128   1.515  -2.044  0.00  0.00    -0.133 F 
ATOM      3  F   UNL     1      10.782   2.351  -3.584  0.00  0.00    -0.133 F 
ATOM     33  C   UNL     1      12.021   2.409  -3.051  0.00  0.00    +0.575 C 
ENDBRANCH   7  33
ENDBRANCH  32   7
ENDBRANCH  20  23
BRANCH   8  17
ATOM     17  C   UNL     1      12.023   9.052   7.240  0.00  0.00    +0.158 C 
BRANCH  17  22
ATOM      5  O   UNL     1      13.272   8.108   5.416  0.00  0.00    -0.461 OA
ATOM     22  C   UNL     1      13.288   8.994   6.426  0.00  0.00    +0.119 A 
ATOM     24  C   UNL     1      14.456   9.670   6.517  0.00  0.00    +0.046 A 
ATOM     25  C   UNL     1      14.489   8.217   4.823  0.00  0.00    +0.131 A 
ATOM     26  C   UNL     1      15.254   9.165   5.462  0.00  0.00    +0.047 A 
BRANCH  25  29
ATOM     29  C   UNL     1      14.732   7.339   3.670  0.00  0.00    +0.230 C 
BRANCH  29   6
ATOM      6  O   UNL     1      15.586   6.276   4.095  0.00  0.00    -0.387 OA
ATOM     34  H   UNL     1      15.169   5.873   4.876  0.00  0.00    +0.210 HD
ENDBRANCH  29   6
ENDBRANCH  25  29
ENDBRANCH  17  22
ENDBRANCH   8  17
TORSDOF 7
ENDMDL
MODEL 7
REMARK VINA RESULT:      -7.0     14.640     18.762
REMARK  Name = 11912436
REMARK  7 active torsions:
REMARK  status: ('A' for Active; 'I' for Inactive)
REMARK    1  A    between atoms: O_6  and  C_29
REMARK    2  A    between atoms: O_7  and  C_32
REMARK    3  A    between atoms: O_7  and  C_33
REMARK    4  A    between atoms: N_8  and  C_17
REMARK    5  A    between atoms: C_17  and  C_22
REMARK    6  A    between atoms: C_20  and  C_23
REMARK    7  A    between atoms: C_25  and  C_29
REMARK                            x       y       z     vdW  Elec       q    Type
REMARK                         _______ _______ _______ _____ _____    ______ ____
ROOT
ATOM      4  O   UNL     1      10.127   4.580   3.010  0.00  0.00    -0.267 OA
ATOM      8  N   UNL     1      12.298   6.721  -0.971  0.00  0.00    -0.294 NA
ATOM      9  N   UNL     1      10.070   6.066   1.215  0.00  0.00    -0.311 N 
ATOM     10  C   UNL     1      10.248   5.300  -1.224  0.00  0.00    +0.024 C 
ATOM     11  C   UNL     1      10.007   7.683  -0.714  0.00  0.00    +0.050 C 
ATOM     12  C   UNL     1       9.405   6.534  -1.519  0.00  0.00    +0.017 C 
ATOM     13  C   UNL     1      11.714   5.550  -1.636  0.00  0.00    +0.090 C 
ATOM     14  C   UNL     1      11.467   7.919  -1.162  0.00  0.00    +0.094 C 
ATOM     15  C   UNL     1      10.106   4.947   0.262  0.00  0.00    +0.130 C 
ATOM     16  C   UNL     1       9.950   7.387   0.773  0.00  0.00    +0.026 A 
ATOM     18  C   UNL     1       9.805   8.383   1.661  0.00  0.00    +0.022 A 
ATOM     19  C   UNL     1      10.057   5.733   2.584  0.00  0.00    +0.259 A 
ATOM     20  C   UNL     1       9.928   6.875   3.556  0.00  0.00    +0.047 A 
ATOM     21  C   UNL     1       9.800   8.120   3.072  0.00  0.00    +0.015 A 
ENDROOT
BRANCH  20  23
ATOM     23  C   UNL     1       9.949   6.646   5.011  0.00  0.00    -0.012 A 
ATOM     27  C   UNL     1       8.768   6.724   5.749  0.00  0.00    +0.012 A 
ATOM     28  C   UNL     1      11.153   6.350   5.653  0.00  0.00    +0.012 A 
ATOM     30  C   UNL     1       8.788   6.506   7.126  0.00  0.00    +0.046 A 
ATOM     31  C   UNL     1      11.174   6.132   7.031  0.00  0.00    +0.046 A 
ATOM     32  C   UNL     1       9.991   6.210   7.767  0.00  0.00    +0.130 A 
BRANCH  32   7
ATOM      7  O   UNL     1      10.011   5.997   9.112  0.00  0.00    -0.406 OA
BRANCH   7  33
ATOM      1  F   UNL     1       9.496   3.852   8.632  0.00  0.00    -0.133 F 
ATOM      2  F   UNL     1      10.174   4.319  10.656  0.00  0.00    -0.133 F 
ATOM      3  F   UNL     1       8.169   4.952   9.976  0.00  0.00    -0.133 F 
ATOM     33  C   UNL     1       9.458   4.784   9.611  0.00  0.00    +0.575 C 
ENDBRANCH   7  33
ENDBRANCH  32   7
ENDBRANCH  20  23
BRANCH   8  17
ATOM     17  C   UNL     1      13.666   6.955  -1.426  0.00  0.00    +0.158 C 
BRANCH  17  22
ATOM      5  O   UNL     1      14.285   5.271   0.174  0.00  0.00    -0.461 OA
ATOM     22  C   UNL     1      14.573   5.826  -1.016  0.00  0.00    +0.119 A 
ATOM     24  C   UNL     1      15.637   5.252  -1.623  0.00  0.00    +0.046 A 
ATOM     25  C   UNL     1      15.210   4.291   0.345  0.00  0.00    +0.131 A 
ATOM     26  C   UNL     1      16.063   4.237  -0.732  0.00  0.00    +0.047 A 
BRANCH  25  29
ATOM     29  C   UNL     1      15.115   3.518   1.592  0.00  0.00    +0.230 C 
BRANCH  29   6
ATOM      6  O   UNL     1      13.807   3.713   2.135  0.00  0.00    -0.387 OA
ATOM     34  H   UNL     1      13.807   4.585   2.566  0.00  0.00    +0.210 HD
ENDBRANCH  29   6
ENDBRANCH  25  29
ENDBRANCH  17  22
ENDBRANCH   8  17
TORSDOF 7
ENDMDL
MODEL 8
REMARK VINA RESULT:      -6.9     28.496     30.782
REMARK  Name = 11912436
REMARK  7 active torsions:
REMARK  status: ('A' for Active; 'I' for Inactive)
REMARK    1  A    between atoms: O_6  and  C_29
REMARK    2  A    between atoms: O_7  and  C_32
REMARK    3  A    between atoms: O_7  and  C_33
REMARK    4  A    between atoms: N_8  and  C_17
REMARK    5  A    between atoms: C_17  and  C_22
REMARK    6  A    between atoms: C_20  and  C_23
REMARK    7  A    between atoms: C_25  and  C_29
REMARK                            x       y       z     vdW  Elec       q    Type
REMARK                         _______ _______ _______ _____ _____    ______ ____
ROOT
ATOM      4  O   UNL     1      -6.701 -11.433  14.697  0.00  0.00    -0.267 OA
ATOM      8  N   UNL     1      -2.420 -13.532  13.142  0.00  0.00    -0.294 NA
ATOM      9  N   UNL     1      -4.415 -11.305  14.253  0.00  0.00    -0.311 N 
ATOM     10  C   UNL     1      -3.442 -11.608  11.901  0.00  0.00    +0.024 C 
ATOM     11  C   UNL     1      -1.945 -11.166  13.787  0.00  0.00    +0.050 C 
ATOM     12  C   UNL     1      -2.342 -10.678  12.397  0.00  0.00    +0.017 C 
ATOM     13  C   UNL     1      -2.923 -13.060  11.846  0.00  0.00    +0.090 C 
ATOM     14  C   UNL     1      -1.413 -12.614  13.695  0.00  0.00    +0.094 C 
ATOM     15  C   UNL     1      -4.667 -11.454  12.812  0.00  0.00    +0.130 C 
ATOM     16  C   UNL     1      -3.123 -11.094  14.741  0.00  0.00    +0.026 A 
ATOM     18  C   UNL     1      -2.928 -10.848  16.046  0.00  0.00    +0.022 A 
ATOM     19  C   UNL     1      -5.545 -11.283  15.095  0.00  0.00    +0.259 A 
ATOM     20  C   UNL     1      -5.291 -11.039  16.559  0.00  0.00    +0.047 A 
ATOM     21  C   UNL     1      -4.031 -10.827  16.966  0.00  0.00    +0.015 A 
ENDROOT
BRANCH  20  23
ATOM     23  C   UNL     1      -6.394 -11.041  17.535  0.00  0.00    -0.012 A 
ATOM     27  C   UNL     1      -6.433 -12.002  18.546  0.00  0.00    +0.012 A 
ATOM     28  C   UNL     1      -7.404 -10.080  17.449  0.00  0.00    +0.012 A 
ATOM     30  C   UNL     1      -7.477 -12.003  19.470  0.00  0.00    +0.046 A 
ATOM     31  C   UNL     1      -8.448 -10.081  18.373  0.00  0.00    +0.046 A 
ATOM     32  C   UNL     1      -8.485 -11.042  19.384  0.00  0.00    +0.130 A 
BRANCH  32   7
ATOM      7  O   UNL     1      -9.504 -11.043  20.286  0.00  0.00    -0.406 OA
BRANCH   7  33
ATOM      1  F   UNL     1     -10.167 -13.113  20.893  0.00  0.00    -0.133 F 
ATOM      2  F   UNL     1     -11.701 -11.580  20.624  0.00  0.00    -0.133 F 
ATOM      3  F   UNL     1     -10.651 -12.430  18.875  0.00  0.00    -0.133 F 
ATOM     33  C   UNL     1     -10.518 -12.034  20.158  0.00  0.00    +0.575 C 
ENDBRANCH   7  33
ENDBRANCH  32   7
ENDBRANCH  20  23
BRANCH   8  17
ATOM     17  C   UNL     1      -1.890 -14.889  13.035  0.00  0.00    +0.158 C 
BRANCH  17  22
ATOM      5  O   UNL     1      -3.324 -15.331  14.913  0.00  0.00    -0.461 OA
ATOM     22  C   UNL     1      -2.198 -15.689  14.272  0.00  0.00    +0.119 A 
ATOM     24  C   UNL     1      -1.551 -16.713  14.873  0.00  0.00    +0.046 A 
ATOM     25  C   UNL     1      -3.409 -16.166  15.981  0.00  0.00    +0.131 A 
ATOM     26  C   UNL     1      -2.344 -17.036  16.001  0.00  0.00    +0.047 A 
BRANCH  25  29
ATOM     29  C   UNL     1      -4.572 -15.979  16.860  0.00  0.00    +0.230 C 
BRANCH  29   6
ATOM      6  O   UNL     1      -4.338 -14.822  17.665  0.00  0.00    -0.387 OA
ATOM     34  H   UNL     1      -3.870 -14.179  17.104  0.00  0.00    +0.210 HD
ENDBRANCH  29   6
ENDBRANCH  25  29
ENDBRANCH  17  22
ENDBRANCH   8  17
TORSDOF 7
ENDMDL
MODEL 9
REMARK VINA RESULT:      -6.8     29.498     32.673
REMARK  Name = 11912436
REMARK  7 active torsions:
REMARK  status: ('A' for Active; 'I' for Inactive)
REMARK    1  A    between atoms: O_6  and  C_29
REMARK    2  A    between atoms: O_7  and  C_32
REMARK    3  A    between atoms: O_7  and  C_33
REMARK    4  A    between atoms: N_8  and  C_17
REMARK    5  A    between atoms: C_17  and  C_22
REMARK    6  A    between atoms: C_20  and  C_23
REMARK    7  A    between atoms: C_25  and  C_29
REMARK                            x       y       z     vdW  Elec       q    Type
REMARK                         _______ _______ _______ _____ _____    ______ ____
ROOT
ATOM      4  O   UNL     1     -15.433   6.729  31.423  0.00  0.00    -0.267 OA
ATOM      8  N   UNL     1     -12.527  10.708  32.358  0.00  0.00    -0.294 NA
ATOM      9  N   UNL     1     -14.655   8.387  32.866  0.00  0.00    -0.311 N 
ATOM     10  C   UNL     1     -15.027  10.885  32.434  0.00  0.00    +0.024 C 
ATOM     11  C   UNL     1     -13.809  10.167  34.433  0.00  0.00    +0.050 C 
ATOM     12  C   UNL     1     -14.992  11.002  33.953  0.00  0.00    +0.017 C 
ATOM     13  C   UNL     1     -13.705  11.408  31.833  0.00  0.00    +0.090 C 
ATOM     14  C   UNL     1     -12.501  10.726  33.829  0.00  0.00    +0.094 C 
ATOM     15  C   UNL     1     -15.309   9.425  32.057  0.00  0.00    +0.130 C 
ATOM     16  C   UNL     1     -13.988   8.709  34.052  0.00  0.00    +0.026 A 
ATOM     18  C   UNL     1     -13.495   7.735  34.833  0.00  0.00    +0.022 A 
ATOM     19  C   UNL     1     -14.823   7.053  32.443  0.00  0.00    +0.259 A 
ATOM     20  C   UNL     1     -14.230   5.986  33.323  0.00  0.00    +0.047 A 
ATOM     21  C   UNL     1     -13.616   6.354  34.457  0.00  0.00    +0.015 A 
ENDROOT
BRANCH  20  23
ATOM     23  C   UNL     1     -14.308   4.561  32.953  0.00  0.00    -0.012 A 
ATOM     27  C   UNL     1     -15.282   3.742  33.526  0.00  0.00    +0.012 A 
ATOM     28  C   UNL     1     -13.408   4.030  32.028  0.00  0.00    +0.012 A 
ATOM     30  C   UNL     1     -15.356   2.395  33.176  0.00  0.00    +0.046 A 
ATOM     31  C   UNL     1     -13.481   2.682  31.678  0.00  0.00    +0.046 A 
ATOM     32  C   UNL     1     -14.455   1.864  32.252  0.00  0.00    +0.130 A 
BRANCH  32   7
ATOM      7  O   UNL     1     -14.528   0.549  31.909  0.00  0.00    -0.406 OA
BRANCH   7  33
ATOM      1  F   UNL     1     -15.886  -0.929  30.876  0.00  0.00    -0.133 F 
ATOM      2  F   UNL     1     -16.028   1.174  30.301  0.00  0.00    -0.133 F 
ATOM      3  F   UNL     1     -14.271  -0.029  29.711  0.00  0.00    -0.133 F 
ATOM     33  C   UNL     1     -15.172   0.204  30.688  0.00  0.00    +0.575 C 
ENDBRANCH   7  33
ENDBRANCH  32   7
ENDBRANCH  20  23
BRANCH   8  17
ATOM     17  C   UNL     1     -11.296  11.266  31.806  0.00  0.00    +0.158 C 
BRANCH  17  22
ATOM      5  O   UNL     1     -11.345  10.405  29.562  0.00  0.00    -0.461 OA
ATOM     22  C   UNL     1     -11.428  11.508  30.326  0.00  0.00    +0.119 A 
ATOM     24  C   UNL     1     -11.616  12.636  29.605  0.00  0.00    +0.046 A 
ATOM     25  C   UNL     1     -11.487  10.842  28.284  0.00  0.00    +0.131 A 
ATOM     26  C   UNL     1     -11.658  12.207  28.256  0.00  0.00    +0.047 A 
BRANCH  25  29
ATOM     29  C   UNL     1     -11.433   9.814  27.235  0.00  0.00    +0.230 C 
BRANCH  29   6
ATOM      6  O   UNL     1     -10.060   9.510  26.984  0.00  0.00    -0.387 OA
ATOM     34  H   UNL     1      -9.903   9.676  26.038  0.00  0.00    +0.210 HD
ENDBRANCH  29   6
ENDBRANCH  25  29
ENDBRANCH  17  22
ENDBRANCH   8  17
TORSDOF 7
ENDMDL
MODEL 10
REMARK VINA RESULT:      -6.7     24.513     27.787
REMARK  Name = 11912436
REMARK  7 active torsions:
REMARK  status: ('A' for Active; 'I' for Inactive)
REMARK    1  A    between atoms: O_6  and  C_29
REMARK    2  A    between atoms: O_7  and  C_32
REMARK    3  A    between atoms: O_7  and  C_33
REMARK    4  A    between atoms: N_8  and  C_17
REMARK    5  A    between atoms: C_17  and  C_22
REMARK    6  A    between atoms: C_20  and  C_23
REMARK    7  A    between atoms: C_25  and  C_29
REMARK                            x       y       z     vdW  Elec       q    Type
REMARK                         _______ _______ _______ _____ _____    ______ ____
ROOT
ATOM      4  O   UNL     1      -6.580   9.587   5.465  0.00  0.00    -0.267 OA
ATOM      8  N   UNL     1      -1.899  10.647   4.012  0.00  0.00    -0.294 NA
ATOM      9  N   UNL     1      -4.275   9.293   5.653  0.00  0.00    -0.311 N 
ATOM     10  C   UNL     1      -2.688  11.189   6.329  0.00  0.00    +0.024 C 
ATOM     11  C   UNL     1      -1.788   8.962   5.853  0.00  0.00    +0.050 C 
ATOM     12  C   UNL     1      -1.832  10.068   6.904  0.00  0.00    +0.017 C 
ATOM     13  C   UNL     1      -2.069  11.706   5.014  0.00  0.00    +0.090 C 
ATOM     14  C   UNL     1      -1.147   9.507   4.556  0.00  0.00    +0.094 C 
ATOM     15  C   UNL     1      -4.121  10.671   6.143  0.00  0.00    +0.130 C 
ATOM     16  C   UNL     1      -3.180   8.429   5.573  0.00  0.00    +0.026 A 
ATOM     18  C   UNL     1      -3.361   7.143   5.231  0.00  0.00    +0.022 A 
ATOM     19  C   UNL     1      -5.588   8.864   5.373  0.00  0.00    +0.259 A 
ATOM     20  C   UNL     1      -5.754   7.426   4.960  0.00  0.00    +0.047 A 
ATOM     21  C   UNL     1      -4.668   6.640   4.916  0.00  0.00    +0.015 A 
ENDROOT
BRANCH  20  23
ATOM     23  C   UNL     1      -7.076   6.884   4.599  0.00  0.00    -0.012 A 
ATOM     27  C   UNL     1      -7.608   5.808   5.312  0.00  0.00    +0.012 A 
ATOM     28  C   UNL     1      -7.797   7.445   3.544  0.00  0.00    +0.012 A 
ATOM     30  C   UNL     1      -8.859   5.295   4.971  0.00  0.00    +0.046 A 
ATOM     31  C   UNL     1      -9.048   6.932   3.203  0.00  0.00    +0.046 A 
ATOM     32  C   UNL     1      -9.579   5.857   3.916  0.00  0.00    +0.130 A 
BRANCH  32   7
ATOM      7  O   UNL     1     -10.801   5.356   3.584  0.00  0.00    -0.406 OA
BRANCH   7  33
ATOM      1  F   UNL     1     -13.025   5.673   3.798  0.00  0.00    -0.133 F 
ATOM      2  F   UNL     1     -12.008   4.469   5.312  0.00  0.00    -0.133 F 
ATOM      3  F   UNL     1     -11.704   6.656   5.234  0.00  0.00    -0.133 F 
ATOM     33  C   UNL     1     -11.876   5.539   4.498  0.00  0.00    +0.575 C 
ENDBRANCH   7  33
ENDBRANCH  32   7
ENDBRANCH  20  23
BRANCH   8  17
ATOM     17  C   UNL     1      -1.263  11.166   2.804  0.00  0.00    +0.158 C 
BRANCH  17  22
ATOM      5  O   UNL     1      -3.029  10.727   1.233  0.00  0.00    -0.461 OA
ATOM     22  C   UNL     1      -1.761  10.447   1.579  0.00  0.00    +0.119 A 
ATOM     24  C   UNL     1      -1.170   9.560   0.747  0.00  0.00    +0.046 A 
ATOM     25  C   UNL     1      -3.269   9.984   0.121  0.00  0.00    +0.131 A 
ATOM     26  C   UNL     1      -2.157   9.249  -0.219  0.00  0.00    +0.047 A 
BRANCH  25  29
ATOM     29  C   UNL     1      -4.610  10.110  -0.467  0.00  0.00    +0.230 C 
BRANCH  29   6
ATOM      6  O   UNL     1      -4.676   9.253  -1.608  0.00  0.00    -0.387 OA
ATOM     34  H   UNL     1      -3.850   8.738  -1.622  0.00  0.00    +0.210 HD
ENDBRANCH  29   6
ENDBRANCH  25  29
ENDBRANCH  17  22
ENDBRANCH   8  17
TORSDOF 7
ENDMDL
