MODEL 1
REMARK VINA RESULT:      -7.6      0.000      0.000
REMARK  Name = 28960538
REMARK  5 active torsions:
REMARK  status: ('A' for Active; 'I' for Inactive)
REMARK    1  A    between atoms: O_3  and  C_11
REMARK    2  A    between atoms: N_6  and  C_10
REMARK    3  A    between atoms: N_7  and  C_12
REMARK    4  A    between atoms: N_9  and  C_23
REMARK    5  A    between atoms: C_20  and  C_21
REMARK                            x       y       z     vdW  Elec       q    Type
REMARK                         _______ _______ _______ _____ _____    ______ ____
ROOT
ATOM      1  O   UNL     1      13.061   9.158  18.936  0.00  0.00    -0.342 OA
ATOM      2  O   UNL     1      11.417   7.813  18.002  0.00  0.00    -0.347 OA
ATOM     10  C   UNL     1      11.475   8.086  20.404  0.00  0.00    +0.143 C 
ATOM     11  C   UNL     1      12.404   6.859  20.542  0.00  0.00    +0.159 C 
ATOM     12  C   UNL     1      13.765   7.034  19.833  0.00  0.00    +0.136 C 
ATOM     13  C   UNL     1      11.683   8.770  19.041  0.00  0.00    +0.270 C 
ATOM     14  C   UNL     1      13.684   7.922  18.574  0.00  0.00    +0.170 C 
ATOM     15  C   UNL     1      12.713   7.420  17.523  0.00  0.00    +0.196 C 
ENDROOT
BRANCH  12   7
ATOM      5  O   UNL     1      16.614   6.980  19.538  0.00  0.00    -0.252 OA
ATOM      7  N   UNL     1      14.741   7.577  20.754  0.00  0.00    -0.291 N 
ATOM      9  N   UNL     1      16.808   8.113  21.584  0.00  0.00    -0.269 N 
ATOM     22  C   UNL     1      16.117   7.507  20.531  0.00  0.00    +0.304 C 
ATOM     29  H   UNL     1      14.411   7.956  21.636  0.00  0.00    +0.151 HD
ATOM     33  H   UNL     1      16.244   8.504  22.335  0.00  0.00    +0.156 HD
BRANCH   9  23
ATOM     23  C   UNL     1      18.207   8.252  21.740  0.00  0.00    +0.035 A 
ATOM     24  C   UNL     1      18.795   9.515  21.665  0.00  0.00    +0.023 A 
ATOM     25  C   UNL     1      18.999   7.127  21.969  0.00  0.00    +0.023 A 
ATOM     26  C   UNL     1      20.175   9.652  21.818  0.00  0.00    +0.002 A 
ATOM     27  C   UNL     1      20.379   7.264  22.122  0.00  0.00    +0.002 A 
ATOM     28  C   UNL     1      20.967   8.527  22.046  0.00  0.00    +0.000 A 
ENDBRANCH   9  23
ENDBRANCH  12   7
BRANCH  10   6
ATOM      6  N   UNL     1      11.739   9.041  21.482  0.00  0.00    -0.293 NA
ATOM     16  C   UNL     1      11.663  10.419  20.978  0.00  0.00    +0.085 C 
ATOM     17  C   UNL     1      10.802   8.831  22.595  0.00  0.00    +0.085 C 
ATOM     18  C   UNL     1      11.990  11.428  22.081  0.00  0.00    +0.028 C 
ATOM     19  C   UNL     1      11.098   9.786  23.753  0.00  0.00    +0.028 C 
ATOM     20  C   UNL     1      11.076  11.241  23.291  0.00  0.00    +0.077 C 
BRANCH  20  21
ATOM      4  O   UNL     1      12.351  13.016  24.255  0.00  0.00    -0.276 OA
ATOM      8  N   UNL     1      10.909  11.848  25.614  0.00  0.00    -0.329 N 
ATOM     21  C   UNL     1      11.514  12.131  24.413  0.00  0.00    +0.214 C 
ATOM     31  H   UNL     1      10.228  11.101  25.720  0.00  0.00    +0.145 HD
ATOM     32  H   UNL     1      11.130  12.381  26.448  0.00  0.00    +0.145 HD
ENDBRANCH  20  21
ENDBRANCH  10   6
BRANCH  11   3
ATOM      3  O   UNL     1      11.728   5.732  19.971  0.00  0.00    -0.388 OA
ATOM     30  H   UNL     1      12.080   5.600  19.075  0.00  0.00    +0.210 HD
ENDBRANCH  11   3
TORSDOF 5
ENDMDL
MODEL 2
REMARK VINA RESULT:      -7.5     27.844     29.595
REMARK  Name = 28960538
REMARK  5 active torsions:
REMARK  status: ('A' for Active; 'I' for Inactive)
REMARK    1  A    between atoms: O_3  and  C_11
REMARK    2  A    between atoms: N_6  and  C_10
REMARK    3  A    between atoms: N_7  and  C_12
REMARK    4  A    between atoms: N_9  and  C_23
REMARK    5  A    between atoms: C_20  and  C_21
REMARK                            x       y       z     vdW  Elec       q    Type
REMARK                         _______ _______ _______ _____ _____    ______ ____
ROOT
ATOM      1  O   UNL     1      -9.082  -8.355  17.063  0.00  0.00    -0.342 OA
ATOM      2  O   UNL     1     -11.140  -9.358  17.440  0.00  0.00    -0.347 OA
ATOM     10  C   UNL     1      -9.179 -10.759  17.244  0.00  0.00    +0.143 C 
ATOM     11  C   UNL     1      -9.395 -10.884  15.719  0.00  0.00    +0.159 C 
ATOM     12  C   UNL     1      -9.309  -9.535  14.972  0.00  0.00    +0.136 C 
ATOM     13  C   UNL     1      -9.741  -9.422  17.761  0.00  0.00    +0.270 C 
ATOM     14  C   UNL     1      -9.792  -8.340  15.820  0.00  0.00    +0.170 C 
ATOM     15  C   UNL     1     -11.220  -8.467  16.315  0.00  0.00    +0.196 C 
ENDROOT
BRANCH  12   7
ATOM      5  O   UNL     1      -8.253 -10.086  12.367  0.00  0.00    -0.252 OA
ATOM      7  N   UNL     1      -7.954  -9.301  14.520  0.00  0.00    -0.291 N 
ATOM      9  N   UNL     1      -6.173  -9.267  13.080  0.00  0.00    -0.269 N 
ATOM     22  C   UNL     1      -7.522  -9.599  13.227  0.00  0.00    +0.304 C 
ATOM     29  H   UNL     1      -7.270  -8.976  15.197  0.00  0.00    +0.151 HD
ATOM     33  H   UNL     1      -5.709  -8.871  13.894  0.00  0.00    +0.156 HD
BRANCH   9  23
ATOM     23  C   UNL     1      -5.362  -9.412  11.930  0.00  0.00    +0.035 A 
ATOM     24  C   UNL     1      -5.484  -8.512  10.872  0.00  0.00    +0.023 A 
ATOM     25  C   UNL     1      -4.440 -10.457  11.853  0.00  0.00    +0.023 A 
ATOM     26  C   UNL     1      -4.685  -8.655   9.738  0.00  0.00    +0.002 A 
ATOM     27  C   UNL     1      -3.641 -10.600  10.719  0.00  0.00    +0.002 A 
ATOM     28  C   UNL     1      -3.764  -9.699   9.661  0.00  0.00    +0.000 A 
ENDBRANCH   9  23
ENDBRANCH  12   7
BRANCH  10   6
ATOM      6  N   UNL     1      -7.752 -10.851  17.561  0.00  0.00    -0.293 NA
ATOM     16  C   UNL     1      -7.544 -10.806  19.014  0.00  0.00    +0.085 C 
ATOM     17  C   UNL     1      -7.175 -12.071  16.980  0.00  0.00    +0.085 C 
ATOM     18  C   UNL     1      -6.054 -10.847  19.359  0.00  0.00    +0.028 C 
ATOM     19  C   UNL     1      -5.673 -12.156  17.255  0.00  0.00    +0.028 C 
ATOM     20  C   UNL     1      -5.378 -12.075  18.751  0.00  0.00    +0.077 C 
BRANCH  20  21
ATOM      4  O   UNL     1      -3.387 -12.267  20.056  0.00  0.00    -0.276 OA
ATOM      8  N   UNL     1      -3.190 -11.629  17.854  0.00  0.00    -0.329 N 
ATOM     21  C   UNL     1      -3.898 -12.012  18.969  0.00  0.00    +0.214 C 
ATOM     31  H   UNL     1      -3.639 -11.411  16.970  0.00  0.00    +0.145 HD
ATOM     32  H   UNL     1      -2.179 -11.546  17.882  0.00  0.00    +0.145 HD
ENDBRANCH  20  21
ENDBRANCH  10   6
BRANCH  11   3
ATOM      3  O   UNL     1     -10.696 -11.448  15.507  0.00  0.00    -0.388 OA
ATOM     30  H   UNL     1     -10.601 -12.177  14.872  0.00  0.00    +0.210 HD
ENDBRANCH  11   3
TORSDOF 5
ENDMDL
MODEL 3
REMARK VINA RESULT:      -7.4      3.835      6.712
REMARK  Name = 28960538
REMARK  5 active torsions:
REMARK  status: ('A' for Active; 'I' for Inactive)
REMARK    1  A    between atoms: O_3  and  C_11
REMARK    2  A    between atoms: N_6  and  C_10
REMARK    3  A    between atoms: N_7  and  C_12
REMARK    4  A    between atoms: N_9  and  C_23
REMARK    5  A    between atoms: C_20  and  C_21
REMARK                            x       y       z     vdW  Elec       q    Type
REMARK                         _______ _______ _______ _____ _____    ______ ____
ROOT
ATOM      1  O   UNL     1      13.027   9.030  20.731  0.00  0.00    -0.342 OA
ATOM      2  O   UNL     1      11.421   7.373  20.488  0.00  0.00    -0.347 OA
ATOM     10  C   UNL     1      13.647   6.975  19.631  0.00  0.00    +0.143 C 
ATOM     11  C   UNL     1      13.248   7.566  18.260  0.00  0.00    +0.159 C 
ATOM     12  C   UNL     1      12.832   9.052  18.327  0.00  0.00    +0.136 C 
ATOM     13  C   UNL     1      12.813   7.612  20.757  0.00  0.00    +0.270 C 
ATOM     14  C   UNL     1      12.163   9.434  19.664  0.00  0.00    +0.170 C 
ATOM     15  C   UNL     1      10.922   8.625  19.991  0.00  0.00    +0.196 C 
ENDROOT
BRANCH  12   7
ATOM      5  O   UNL     1      13.400  10.542  15.948  0.00  0.00    -0.252 OA
ATOM      7  N   UNL     1      13.979   9.902  18.092  0.00  0.00    -0.291 N 
ATOM      9  N   UNL     1      15.366  11.331  16.959  0.00  0.00    -0.269 N 
ATOM     22  C   UNL     1      14.179  10.596  16.897  0.00  0.00    +0.304 C 
ATOM     29  H   UNL     1      14.708   9.933  18.799  0.00  0.00    +0.151 HD
ATOM     33  H   UNL     1      15.899  11.267  17.823  0.00  0.00    +0.156 HD
BRANCH   9  23
ATOM     23  C   UNL     1      15.925  12.164  15.961  0.00  0.00    +0.035 A 
ATOM     24  C   UNL     1      16.714  11.610  14.953  0.00  0.00    +0.023 A 
ATOM     25  C   UNL     1      15.688  13.538  15.985  0.00  0.00    +0.023 A 
ATOM     26  C   UNL     1      17.266  12.430  13.969  0.00  0.00    +0.002 A 
ATOM     27  C   UNL     1      16.239  14.358  15.001  0.00  0.00    +0.002 A 
ATOM     28  C   UNL     1      17.029  13.805  13.993  0.00  0.00    +0.000 A 
ENDBRANCH   9  23
ENDBRANCH  12   7
BRANCH  10   6
ATOM      6  N   UNL     1      15.072   7.201  19.882  0.00  0.00    -0.293 NA
ATOM     16  C   UNL     1      15.350   7.173  21.324  0.00  0.00    +0.085 C 
ATOM     17  C   UNL     1      15.884   6.209  19.166  0.00  0.00    +0.085 C 
ATOM     18  C   UNL     1      16.826   7.463  21.607  0.00  0.00    +0.028 C 
ATOM     19  C   UNL     1      17.378   6.464  19.374  0.00  0.00    +0.028 C 
ATOM     20  C   UNL     1      17.734   6.489  20.859  0.00  0.00    +0.077 C 
BRANCH  20  21
ATOM      4  O   UNL     1      19.513   7.775  21.800  0.00  0.00    -0.276 OA
ATOM      8  N   UNL     1      20.035   6.184  20.222  0.00  0.00    -0.329 N 
ATOM     21  C   UNL     1      19.168   6.887  21.024  0.00  0.00    +0.214 C 
ATOM     31  H   UNL     1      19.721   5.463  19.580  0.00  0.00    +0.145 HD
ATOM     32  H   UNL     1      21.032   6.370  20.243  0.00  0.00    +0.145 HD
ENDBRANCH  20  21
ENDBRANCH  10   6
BRANCH  11   3
ATOM      3  O   UNL     1      12.145   6.800  17.758  0.00  0.00    -0.388 OA
ATOM     30  H   UNL     1      12.292   5.873  18.007  0.00  0.00    +0.210 HD
ENDBRANCH  11   3
TORSDOF 5
ENDMDL
MODEL 4
REMARK VINA RESULT:      -7.2      2.744      6.347
REMARK  Name = 28960538
REMARK  5 active torsions:
REMARK  status: ('A' for Active; 'I' for Inactive)
REMARK    1  A    between atoms: O_3  and  C_11
REMARK    2  A    between atoms: N_6  and  C_10
REMARK    3  A    between atoms: N_7  and  C_12
REMARK    4  A    between atoms: N_9  and  C_23
REMARK    5  A    between atoms: C_20  and  C_21
REMARK                            x       y       z     vdW  Elec       q    Type
REMARK                         _______ _______ _______ _____ _____    ______ ____
ROOT
ATOM      1  O   UNL     1      12.686   7.244  21.712  0.00  0.00    -0.342 OA
ATOM      2  O   UNL     1      11.761   7.528  19.603  0.00  0.00    -0.347 OA
ATOM     10  C   UNL     1      14.055   8.198  19.970  0.00  0.00    +0.143 C 
ATOM     11  C   UNL     1      13.599   9.621  20.364  0.00  0.00    +0.159 C 
ATOM     12  C   UNL     1      12.701   9.654  21.621  0.00  0.00    +0.136 C 
ATOM     13  C   UNL     1      12.962   7.168  20.306  0.00  0.00    +0.270 C 
ATOM     14  C   UNL     1      11.831   8.390  21.778  0.00  0.00    +0.170 C 
ATOM     15  C   UNL     1      10.913   8.118  20.601  0.00  0.00    +0.196 C 
ENDROOT
BRANCH  12   7
ATOM      5  O   UNL     1      13.210  12.128  22.970  0.00  0.00    -0.252 OA
ATOM      7  N   UNL     1      13.510   9.843  22.806  0.00  0.00    -0.291 N 
ATOM      9  N   UNL     1      14.527  10.965  24.525  0.00  0.00    -0.269 N 
ATOM     22  C   UNL     1      13.705  11.090  23.402  0.00  0.00    +0.304 C 
ATOM     29  H   UNL     1      14.018   9.044  23.174  0.00  0.00    +0.151 HD
ATOM     33  H   UNL     1      14.856  10.029  24.748  0.00  0.00    +0.156 HD
BRANCH   9  23
ATOM     23  C   UNL     1      14.963  11.987  25.401  0.00  0.00    +0.035 A 
ATOM     24  C   UNL     1      14.093  12.498  26.364  0.00  0.00    +0.023 A 
ATOM     25  C   UNL     1      16.262  12.484  25.301  0.00  0.00    +0.023 A 
ATOM     26  C   UNL     1      14.523  13.506  27.228  0.00  0.00    +0.002 A 
ATOM     27  C   UNL     1      16.692  13.492  26.165  0.00  0.00    +0.002 A 
ATOM     28  C   UNL     1      15.822  14.003  27.128  0.00  0.00    +0.000 A 
ENDBRANCH   9  23
ENDBRANCH  12   7
BRANCH  10   6
ATOM      6  N   UNL     1      15.293   7.853  20.673  0.00  0.00    -0.293 NA
ATOM     16  C   UNL     1      15.936   6.693  20.042  0.00  0.00    +0.085 C 
ATOM     17  C   UNL     1      16.201   9.007  20.710  0.00  0.00    +0.085 C 
ATOM     18  C   UNL     1      17.202   6.285  20.798  0.00  0.00    +0.028 C 
ATOM     19  C   UNL     1      17.477   8.681  21.488  0.00  0.00    +0.028 C 
ATOM     20  C   UNL     1      18.180   7.454  20.909  0.00  0.00    +0.077 C 
BRANCH  20  21
ATOM      4  O   UNL     1      20.145   6.213  21.461  0.00  0.00    -0.276 OA
ATOM      8  N   UNL     1      19.387   7.779  22.966  0.00  0.00    -0.329 N 
ATOM     21  C   UNL     1      19.336   7.079  21.784  0.00  0.00    +0.214 C 
ATOM     31  H   UNL     1      18.698   8.482  23.214  0.00  0.00    +0.145 HD
ATOM     32  H   UNL     1      20.123   7.607  23.642  0.00  0.00    +0.145 HD
ENDBRANCH  20  21
ENDBRANCH  10   6
BRANCH  11   3
ATOM      3  O   UNL     1      12.866  10.167  19.260  0.00  0.00    -0.388 OA
ATOM     30  H   UNL     1      13.315  10.982  18.982  0.00  0.00    +0.210 HD
ENDBRANCH  11   3
TORSDOF 5
ENDMDL
MODEL 5
REMARK VINA RESULT:      -7.0      3.519      6.864
REMARK  Name = 28960538
REMARK  5 active torsions:
REMARK  status: ('A' for Active; 'I' for Inactive)
REMARK    1  A    between atoms: O_3  and  C_11
REMARK    2  A    between atoms: N_6  and  C_10
REMARK    3  A    between atoms: N_7  and  C_12
REMARK    4  A    between atoms: N_9  and  C_23
REMARK    5  A    between atoms: C_20  and  C_21
REMARK                            x       y       z     vdW  Elec       q    Type
REMARK                         _______ _______ _______ _____ _____    ______ ____
ROOT
ATOM      1  O   UNL     1      13.243  11.054  17.275  0.00  0.00    -0.342 OA
ATOM      2  O   UNL     1      15.478  10.899  16.668  0.00  0.00    -0.347 OA
ATOM     10  C   UNL     1      14.743   9.812  18.699  0.00  0.00    +0.143 C 
ATOM     11  C   UNL     1      15.051  11.086  19.517  0.00  0.00    +0.159 C 
ATOM     12  C   UNL     1      14.210  12.310  19.092  0.00  0.00    +0.136 C 
ATOM     13  C   UNL     1      14.379  10.177  17.248  0.00  0.00    +0.270 C 
ATOM     14  C   UNL     1      13.854  12.309  17.591  0.00  0.00    +0.170 C 
ATOM     15  C   UNL     1      15.057  12.272  16.668  0.00  0.00    +0.196 C 
ENDROOT
BRANCH  12   7
ATOM      5  O   UNL     1      14.013  13.037  21.855  0.00  0.00    -0.252 OA
ATOM      7  N   UNL     1      13.000  12.382  19.883  0.00  0.00    -0.291 N 
ATOM      9  N   UNL     1      11.689  12.730  21.729  0.00  0.00    -0.269 N 
ATOM     22  C   UNL     1      12.995  12.748  21.231  0.00  0.00    +0.304 C 
ATOM     29  H   UNL     1      12.129  12.080  19.459  0.00  0.00    +0.151 HD
ATOM     33  H   UNL     1      10.954  12.467  21.077  0.00  0.00    +0.156 HD
BRANCH   9  23
ATOM     23  C   UNL     1      11.256  13.036  23.041  0.00  0.00    +0.035 A 
ATOM     24  C   UNL     1      11.338  12.071  24.045  0.00  0.00    +0.023 A 
ATOM     25  C   UNL     1      10.747  14.302  23.331  0.00  0.00    +0.023 A 
ATOM     26  C   UNL     1      10.911  12.372  25.339  0.00  0.00    +0.002 A 
ATOM     27  C   UNL     1      10.319  14.603  24.624  0.00  0.00    +0.002 A 
ATOM     28  C   UNL     1      10.402  13.638  25.628  0.00  0.00    +0.000 A 
ENDBRANCH   9  23
ENDBRANCH  12   7
BRANCH  10   6
ATOM      6  N   UNL     1      13.639   9.072  19.315  0.00  0.00    -0.293 NA
ATOM     16  C   UNL     1      13.564   7.711  18.767  0.00  0.00    +0.085 C 
ATOM     17  C   UNL     1      13.789   9.048  20.776  0.00  0.00    +0.085 C 
ATOM     18  C   UNL     1      12.381   6.942  19.361  0.00  0.00    +0.028 C 
ATOM     19  C   UNL     1      12.615   8.326  21.439  0.00  0.00    +0.028 C 
ATOM     20  C   UNL     1      12.452   6.911  20.886  0.00  0.00    +0.077 C 
BRANCH  20  21
ATOM      4  O   UNL     1      10.428   6.925  22.156  0.00  0.00    -0.276 OA
ATOM      8  N   UNL     1      11.047   4.970  21.113  0.00  0.00    -0.329 N 
ATOM     21  C   UNL     1      11.209   6.293  21.449  0.00  0.00    +0.214 C 
ATOM     31  H   UNL     1      11.715   4.467  20.537  0.00  0.00    +0.145 HD
ATOM     32  H   UNL     1      10.244   4.443  21.441  0.00  0.00    +0.145 HD
ENDBRANCH  20  21
ENDBRANCH  10   6
BRANCH  11   3
ATOM      3  O   UNL     1      16.439  11.395  19.338  0.00  0.00    -0.388 OA
ATOM     30  H   UNL     1      16.654  11.255  18.401  0.00  0.00    +0.210 HD
ENDBRANCH  11   3
TORSDOF 5
ENDMDL
MODEL 6
REMARK VINA RESULT:      -7.0     25.913     29.182
REMARK  Name = 28960538
REMARK  5 active torsions:
REMARK  status: ('A' for Active; 'I' for Inactive)
REMARK    1  A    between atoms: O_3  and  C_11
REMARK    2  A    between atoms: N_6  and  C_10
REMARK    3  A    between atoms: N_7  and  C_12
REMARK    4  A    between atoms: N_9  and  C_23
REMARK    5  A    between atoms: C_20  and  C_21
REMARK                            x       y       z     vdW  Elec       q    Type
REMARK                         _______ _______ _______ _____ _____    ______ ____
ROOT
ATOM      1  O   UNL     1      -7.754  -8.858  17.081  0.00  0.00    -0.342 OA
ATOM      2  O   UNL     1      -8.921 -10.567  18.130  0.00  0.00    -0.347 OA
ATOM     10  C   UNL     1      -7.039 -11.133  16.721  0.00  0.00    +0.143 C 
ATOM     11  C   UNL     1      -7.968 -11.250  15.491  0.00  0.00    +0.159 C 
ATOM     12  C   UNL     1      -8.680  -9.929  15.128  0.00  0.00    +0.136 C 
ATOM     13  C   UNL     1      -7.611 -10.126  17.735  0.00  0.00    +0.270 C 
ATOM     14  C   UNL     1      -8.975  -9.042  16.355  0.00  0.00    +0.170 C 
ATOM     15  C   UNL     1      -9.828  -9.712  17.415  0.00  0.00    +0.196 C 
ENDROOT
BRANCH  12   7
ATOM      5  O   UNL     1      -7.765 -10.866  12.581  0.00  0.00    -0.252 OA
ATOM      7  N   UNL     1      -7.893  -9.187  14.165  0.00  0.00    -0.291 N 
ATOM      9  N   UNL     1      -6.747  -8.781  12.224  0.00  0.00    -0.269 N 
ATOM     22  C   UNL     1      -7.489  -9.724  12.941  0.00  0.00    +0.304 C 
ATOM     29  H   UNL     1      -7.558  -8.265  14.425  0.00  0.00    +0.151 HD
ATOM     33  H   UNL     1      -6.608  -7.876  12.666  0.00  0.00    +0.156 HD
BRANCH   9  23
ATOM     23  C   UNL     1      -6.159  -8.929  10.945  0.00  0.00    +0.035 A 
ATOM     24  C   UNL     1      -4.775  -9.057  10.825  0.00  0.00    +0.023 A 
ATOM     25  C   UNL     1      -6.962  -8.947   9.805  0.00  0.00    +0.023 A 
ATOM     26  C   UNL     1      -4.195  -9.203   9.565  0.00  0.00    +0.002 A 
ATOM     27  C   UNL     1      -6.382  -9.093   8.545  0.00  0.00    +0.002 A 
ATOM     28  C   UNL     1      -4.998  -9.220   8.425  0.00  0.00    +0.000 A 
ENDBRANCH   9  23
ENDBRANCH  12   7
BRANCH  10   6
ATOM      6  N   UNL     1      -5.701 -10.708  16.303  0.00  0.00    -0.293 NA
ATOM     16  C   UNL     1      -4.726 -10.958  17.373  0.00  0.00    +0.085 C 
ATOM     17  C   UNL     1      -5.311 -11.388  15.060  0.00  0.00    +0.085 C 
ATOM     18  C   UNL     1      -3.332 -10.469  16.973  0.00  0.00    +0.028 C 
ATOM     19  C   UNL     1      -3.938 -10.916  14.580  0.00  0.00    +0.028 C 
ATOM     20  C   UNL     1      -2.877 -11.108  15.662  0.00  0.00    +0.077 C 
BRANCH  20  21
ATOM      4  O   UNL     1      -1.454  -9.996  14.098  0.00  0.00    -0.276 OA
ATOM      8  N   UNL     1      -0.579 -10.579  16.145  0.00  0.00    -0.329 N 
ATOM     21  C   UNL     1      -1.585 -10.500  15.211  0.00  0.00    +0.214 C 
ATOM     31  H   UNL     1      -0.711 -11.013  17.054  0.00  0.00    +0.145 HD
ATOM     32  H   UNL     1       0.344 -10.205  15.951  0.00  0.00    +0.145 HD
ENDBRANCH  20  21
ENDBRANCH  10   6
BRANCH  11   3
ATOM      3  O   UNL     1      -8.960 -12.243  15.786  0.00  0.00    -0.388 OA
ATOM     30  H   UNL     1      -8.586 -13.110  15.558  0.00  0.00    +0.210 HD
ENDBRANCH  11   3
TORSDOF 5
ENDMDL
MODEL 7
REMARK VINA RESULT:      -6.9     14.747     18.286
REMARK  Name = 28960538
REMARK  5 active torsions:
REMARK  status: ('A' for Active; 'I' for Inactive)
REMARK    1  A    between atoms: O_3  and  C_11
REMARK    2  A    between atoms: N_6  and  C_10
REMARK    3  A    between atoms: N_7  and  C_12
REMARK    4  A    between atoms: N_9  and  C_23
REMARK    5  A    between atoms: C_20  and  C_21
REMARK                            x       y       z     vdW  Elec       q    Type
REMARK                         _______ _______ _______ _____ _____    ______ ____
ROOT
ATOM      1  O   UNL     1      10.021  10.446   4.922  0.00  0.00    -0.342 OA
ATOM      2  O   UNL     1       7.915  11.369   4.613  0.00  0.00    -0.347 OA
ATOM     10  C   UNL     1       8.091   9.014   5.131  0.00  0.00    +0.143 C 
ATOM     11  C   UNL     1       8.162   8.667   3.627  0.00  0.00    +0.159 C 
ATOM     12  C   UNL     1       9.391   9.271   2.913  0.00  0.00    +0.136 C 
ATOM     13  C   UNL     1       8.664  10.419   5.389  0.00  0.00    +0.270 C 
ATOM     14  C   UNL     1       9.840  10.619   3.513  0.00  0.00    +0.170 C 
ATOM     15  C   UNL     1       8.767  11.691   3.501  0.00  0.00    +0.196 C 
ENDROOT
BRANCH  12   7
ATOM      5  O   UNL     1       9.910   7.187   1.017  0.00  0.00    -0.252 OA
ATOM      7  N   UNL     1      10.493   8.332   2.938  0.00  0.00    -0.291 N 
ATOM      9  N   UNL     1      11.814   6.591   2.251  0.00  0.00    -0.269 N 
ATOM     22  C   UNL     1      10.671   7.344   1.968  0.00  0.00    +0.304 C 
ATOM     29  H   UNL     1      11.119   8.346   3.737  0.00  0.00    +0.151 HD
ATOM     33  H   UNL     1      12.338   6.851   3.083  0.00  0.00    +0.156 HD
BRANCH   9  23
ATOM     23  C   UNL     1      12.341   5.502   1.518  0.00  0.00    +0.035 A 
ATOM     24  C   UNL     1      12.413   4.237   2.102  0.00  0.00    +0.023 A 
ATOM     25  C   UNL     1      12.788   5.692   0.210  0.00  0.00    +0.023 A 
ATOM     26  C   UNL     1      12.932   3.163   1.380  0.00  0.00    +0.002 A 
ATOM     27  C   UNL     1      13.308   4.618  -0.512  0.00  0.00    +0.002 A 
ATOM     28  C   UNL     1      13.380   3.353   0.072  0.00  0.00    +0.000 A 
ENDBRANCH   9  23
ENDBRANCH  12   7
BRANCH  10   6
ATOM      6  N   UNL     1       8.836   8.025   5.913  0.00  0.00    -0.293 NA
ATOM     16  C   UNL     1       8.716   8.309   7.349  0.00  0.00    +0.085 C 
ATOM     17  C   UNL     1       8.371   6.667   5.600  0.00  0.00    +0.085 C 
ATOM     18  C   UNL     1       9.535   7.316   8.177  0.00  0.00    +0.028 C 
ATOM     19  C   UNL     1       9.176   5.617   6.368  0.00  0.00    +0.028 C 
ATOM     20  C   UNL     1       9.129   5.875   7.873  0.00  0.00    +0.077 C 
BRANCH  20  21
ATOM      4  O   UNL     1      10.539   5.176   9.670  0.00  0.00    -0.276 OA
ATOM      8  N   UNL     1      10.285   3.764   7.871  0.00  0.00    -0.329 N 
ATOM     21  C   UNL     1      10.045   4.921   8.574  0.00  0.00    +0.214 C 
ATOM     31  H   UNL     1       9.874   3.584   6.960  0.00  0.00    +0.145 HD
ATOM     32  H   UNL     1      10.895   3.044   8.243  0.00  0.00    +0.145 HD
ENDBRANCH  20  21
ENDBRANCH  10   6
BRANCH  11   3
ATOM      3  O   UNL     1       6.973   9.171   3.005  0.00  0.00    -0.388 OA
ATOM     30  H   UNL     1       6.213   8.741   3.430  0.00  0.00    +0.210 HD
ENDBRANCH  11   3
TORSDOF 5
ENDMDL
MODEL 8
REMARK VINA RESULT:      -6.9     27.267     29.792
REMARK  Name = 28960538
REMARK  5 active torsions:
REMARK  status: ('A' for Active; 'I' for Inactive)
REMARK    1  A    between atoms: O_3  and  C_11
REMARK    2  A    between atoms: N_6  and  C_10
REMARK    3  A    between atoms: N_7  and  C_12
REMARK    4  A    between atoms: N_9  and  C_23
REMARK    5  A    between atoms: C_20  and  C_21
REMARK                            x       y       z     vdW  Elec       q    Type
REMARK                         _______ _______ _______ _____ _____    ______ ____
ROOT
ATOM      1  O   UNL     1      -4.893 -10.246  18.199  0.00  0.00    -0.342 OA
ATOM      2  O   UNL     1      -4.523 -12.276  19.262  0.00  0.00    -0.347 OA
ATOM     10  C   UNL     1      -4.823 -12.253  16.863  0.00  0.00    +0.143 C 
ATOM     11  C   UNL     1      -6.347 -12.441  17.030  0.00  0.00    +0.159 C 
ATOM     12  C   UNL     1      -7.032 -11.279  17.784  0.00  0.00    +0.136 C 
ATOM     13  C   UNL     1      -4.233 -11.515  18.078  0.00  0.00    +0.270 C 
ATOM     14  C   UNL     1      -6.120 -10.618  18.837  0.00  0.00    +0.170 C 
ATOM     15  C   UNL     1      -5.603 -11.572  19.897  0.00  0.00    +0.196 C 
ENDROOT
BRANCH  12   7
ATOM      5  O   UNL     1      -9.606 -10.022  17.757  0.00  0.00    -0.252 OA
ATOM      7  N   UNL     1      -7.499 -10.282  16.844  0.00  0.00    -0.291 N 
ATOM      9  N   UNL     1      -8.941  -8.790  15.873  0.00  0.00    -0.269 N 
ATOM     22  C   UNL     1      -8.775  -9.719  16.905  0.00  0.00    +0.304 C 
ATOM     29  H   UNL     1      -6.898 -10.039  16.061  0.00  0.00    +0.151 HD
ATOM     33  H   UNL     1      -8.151  -8.655  15.248  0.00  0.00    +0.156 HD
BRANCH   9  23
ATOM     23  C   UNL     1     -10.083  -8.006  15.587  0.00  0.00    +0.035 A 
ATOM     24  C   UNL     1     -10.395  -6.908  16.389  0.00  0.00    +0.023 A 
ATOM     25  C   UNL     1     -10.899  -8.330  14.502  0.00  0.00    +0.023 A 
ATOM     26  C   UNL     1     -11.521  -6.135  16.107  0.00  0.00    +0.002 A 
ATOM     27  C   UNL     1     -12.025  -7.556  14.220  0.00  0.00    +0.002 A 
ATOM     28  C   UNL     1     -12.336  -6.459  15.023  0.00  0.00    +0.000 A 
ENDBRANCH   9  23
ENDBRANCH  12   7
BRANCH  10   6
ATOM      6  N   UNL     1      -4.539 -11.499  15.640  0.00  0.00    -0.293 NA
ATOM     16  C   UNL     1      -3.094 -11.470  15.378  0.00  0.00    +0.085 C 
ATOM     17  C   UNL     1      -5.273 -12.070  14.502  0.00  0.00    +0.085 C 
ATOM     18  C   UNL     1      -2.776 -10.639  14.133  0.00  0.00    +0.028 C 
ATOM     19  C   UNL     1      -5.031 -11.261  13.227  0.00  0.00    +0.028 C 
ATOM     20  C   UNL     1      -3.539 -11.155  12.914  0.00  0.00    +0.077 C 
BRANCH  20  21
ATOM      4  O   UNL     1      -2.218  -9.980  11.307  0.00  0.00    -0.276 OA
ATOM      8  N   UNL     1      -4.502  -9.706  11.250  0.00  0.00    -0.329 N 
ATOM     21  C   UNL     1      -3.335 -10.236  11.749  0.00  0.00    +0.214 C 
ATOM     31  H   UNL     1      -5.412  -9.924  11.643  0.00  0.00    +0.145 HD
ATOM     32  H   UNL     1      -4.489  -9.065  10.464  0.00  0.00    +0.145 HD
ENDBRANCH  20  21
ENDBRANCH  10   6
BRANCH  11   3
ATOM      3  O   UNL     1      -6.561 -13.655  17.762  0.00  0.00    -0.388 OA
ATOM     30  H   UNL     1      -6.721 -13.415  18.690  0.00  0.00    +0.210 HD
ENDBRANCH  11   3
TORSDOF 5
ENDMDL
MODEL 9
REMARK VINA RESULT:      -6.8     14.796     17.609
REMARK  Name = 28960538
REMARK  5 active torsions:
REMARK  status: ('A' for Active; 'I' for Inactive)
REMARK    1  A    between atoms: O_3  and  C_11
REMARK    2  A    between atoms: N_6  and  C_10
REMARK    3  A    between atoms: N_7  and  C_12
REMARK    4  A    between atoms: N_9  and  C_23
REMARK    5  A    between atoms: C_20  and  C_21
REMARK                            x       y       z     vdW  Elec       q    Type
REMARK                         _______ _______ _______ _____ _____    ______ ____
ROOT
ATOM      1  O   UNL     1      10.544   5.541   6.923  0.00  0.00    -0.342 OA
ATOM      2  O   UNL     1       8.527   6.664   6.697  0.00  0.00    -0.347 OA
ATOM     10  C   UNL     1      10.055   6.624   4.824  0.00  0.00    +0.143 C 
ATOM     11  C   UNL     1      10.727   7.925   5.317  0.00  0.00    +0.159 C 
ATOM     12  C   UNL     1      11.392   7.788   6.705  0.00  0.00    +0.136 C 
ATOM     13  C   UNL     1       9.476   5.832   6.010  0.00  0.00    +0.270 C 
ATOM     14  C   UNL     1      10.672   6.782   7.626  0.00  0.00    +0.170 C 
ATOM     15  C   UNL     1       9.212   7.107   7.879  0.00  0.00    +0.196 C 
ENDROOT
BRANCH  12   7
ATOM      5  O   UNL     1      13.454   9.309   5.425  0.00  0.00    -0.252 OA
ATOM      7  N   UNL     1      12.781   7.409   6.556  0.00  0.00    -0.291 N 
ATOM      9  N   UNL     1      14.976   7.594   5.924  0.00  0.00    -0.269 N 
ATOM     22  C   UNL     1      13.724   8.216   5.916  0.00  0.00    +0.304 C 
ATOM     29  H   UNL     1      13.063   6.484   6.864  0.00  0.00    +0.151 HD
ATOM     33  H   UNL     1      15.030   6.683   6.374  0.00  0.00    +0.156 HD
BRANCH   9  23
ATOM     23  C   UNL     1      16.189   8.077   5.381  0.00  0.00    +0.035 A 
ATOM     24  C   UNL     1      16.489   7.854   4.037  0.00  0.00    +0.023 A 
ATOM     25  C   UNL     1      17.086   8.775   6.189  0.00  0.00    +0.023 A 
ATOM     26  C   UNL     1      17.686   8.330   3.502  0.00  0.00    +0.002 A 
ATOM     27  C   UNL     1      18.283   9.251   5.654  0.00  0.00    +0.002 A 
ATOM     28  C   UNL     1      18.583   9.029   4.310  0.00  0.00    +0.000 A 
ENDBRANCH   9  23
ENDBRANCH  12   7
BRANCH  10   6
ATOM      6  N   UNL     1      11.026   5.797   4.104  0.00  0.00    -0.293 NA
ATOM     16  C   UNL     1      10.354   4.667   3.449  0.00  0.00    +0.085 C 
ATOM     17  C   UNL     1      11.770   6.609   3.131  0.00  0.00    +0.085 C 
ATOM     18  C   UNL     1      11.362   3.763   2.737  0.00  0.00    +0.028 C 
ATOM     19  C   UNL     1      12.827   5.772   2.408  0.00  0.00    +0.028 C 
ATOM     20  C   UNL     1      12.202   4.552   1.734  0.00  0.00    +0.077 C 
BRANCH  20  21
ATOM      4  O   UNL     1      13.155   3.104   0.091  0.00  0.00    -0.276 OA
ATOM      8  N   UNL     1      14.396   3.591   1.967  0.00  0.00    -0.329 N 
ATOM     21  C   UNL     1      13.282   3.683   1.167  0.00  0.00    +0.214 C 
ATOM     31  H   UNL     1      14.469   4.071   2.858  0.00  0.00    +0.145 HD
ATOM     32  H   UNL     1      15.191   3.026   1.689  0.00  0.00    +0.145 HD
ENDBRANCH  20  21
ENDBRANCH  10   6
BRANCH  11   3
ATOM      3  O   UNL     1       9.716   8.939   5.389  0.00  0.00    -0.388 OA
ATOM     30  H   UNL     1       9.746   9.444   4.559  0.00  0.00    +0.210 HD
ENDBRANCH  11   3
TORSDOF 5
ENDMDL
MODEL 10
REMARK VINA RESULT:      -6.7     14.714     17.977
REMARK  Name = 28960538
REMARK  5 active torsions:
REMARK  status: ('A' for Active; 'I' for Inactive)
REMARK    1  A    between atoms: O_3  and  C_11
REMARK    2  A    between atoms: N_6  and  C_10
REMARK    3  A    between atoms: N_7  and  C_12
REMARK    4  A    between atoms: N_9  and  C_23
REMARK    5  A    between atoms: C_20  and  C_21
REMARK                            x       y       z     vdW  Elec       q    Type
REMARK                         _______ _______ _______ _____ _____    ______ ____
ROOT
ATOM      1  O   UNL     1      10.272   8.306   5.681  0.00  0.00    -0.342 OA
ATOM      2  O   UNL     1       9.579   7.881   7.855  0.00  0.00    -0.347 OA
ATOM     10  C   UNL     1      11.930   7.692   7.322  0.00  0.00    +0.143 C 
ATOM     11  C   UNL     1      11.752   6.198   6.970  0.00  0.00    +0.159 C 
ATOM     12  C   UNL     1      10.793   5.954   5.784  0.00  0.00    +0.136 C 
ATOM     13  C   UNL     1      10.626   8.467   7.063  0.00  0.00    +0.270 C 
ATOM     14  C   UNL     1       9.671   7.007   5.685  0.00  0.00    +0.170 C 
ATOM     15  C   UNL     1       8.803   7.107   6.925  0.00  0.00    +0.196 C 
ENDROOT
BRANCH  12   7
ATOM      5  O   UNL     1      10.180   4.377   3.473  0.00  0.00    -0.252 OA
ATOM      7  N   UNL     1      11.537   5.912   4.542  0.00  0.00    -0.291 N 
ATOM      9  N   UNL     1      12.066   5.278   2.405  0.00  0.00    -0.269 N 
ATOM     22  C   UNL     1      11.165   5.112   3.461  0.00  0.00    +0.304 C 
ATOM     29  H   UNL     1      12.409   6.430   4.486  0.00  0.00    +0.151 HD
ATOM     33  H   UNL     1      12.833   5.928   2.558  0.00  0.00    +0.156 HD
BRANCH   9  23
ATOM     23  C   UNL     1      12.045   4.651   1.138  0.00  0.00    +0.035 A 
ATOM     24  C   UNL     1      11.024   4.941   0.233  0.00  0.00    +0.023 A 
ATOM     25  C   UNL     1      13.045   3.741   0.792  0.00  0.00    +0.023 A 
ATOM     26  C   UNL     1      11.003   4.322  -1.017  0.00  0.00    +0.002 A 
ATOM     27  C   UNL     1      13.024   3.122  -0.458  0.00  0.00    +0.002 A 
ATOM     28  C   UNL     1      12.003   3.413  -1.362  0.00  0.00    +0.000 A 
ENDBRANCH   9  23
ENDBRANCH  12   7
BRANCH  10   6
ATOM      6  N   UNL     1      13.016   8.271   6.527  0.00  0.00    -0.293 NA
ATOM     16  C   UNL     1      13.291   9.648   6.959  0.00  0.00    +0.085 C 
ATOM     17  C   UNL     1      14.221   7.436   6.618  0.00  0.00    +0.085 C 
ATOM     18  C   UNL     1      14.386  10.286   6.102  0.00  0.00    +0.028 C 
ATOM     19  C   UNL     1      15.348   7.997   5.750  0.00  0.00    +0.028 C 
ATOM     20  C   UNL     1      15.662   9.446   6.119  0.00  0.00    +0.077 C 
BRANCH  20  21
ATOM      4  O   UNL     1      17.760  10.416   5.517  0.00  0.00    -0.276 OA
ATOM      8  N   UNL     1      16.223  10.024   3.851  0.00  0.00    -0.329 N 
ATOM     21  C   UNL     1      16.661  10.005   5.153  0.00  0.00    +0.214 C 
ATOM     31  H   UNL     1      15.303   9.690   3.579  0.00  0.00    +0.145 HD
ATOM     32  H   UNL     1      16.812  10.386   3.108  0.00  0.00    +0.145 HD
ENDBRANCH  20  21
ENDBRANCH  10   6
BRANCH  11   3
ATOM      3  O   UNL     1      11.230   5.535   8.129  0.00  0.00    -0.388 OA
ATOM     30  H   UNL     1      10.371   5.938   8.337  0.00  0.00    +0.210 HD
ENDBRANCH  11   3
TORSDOF 5
ENDMDL
