MODEL 1
REMARK VINA RESULT:      -7.5      0.000      0.000
REMARK  Name = 11941556
REMARK  7 active torsions:
REMARK  status: ('A' for Active; 'I' for Inactive)
REMARK    1  A    between atoms: S_1  and  C_21
REMARK    2  A    between atoms: S_1  and  C_30
REMARK    3  A    between atoms: N_6  and  C_9
REMARK    4  A    between atoms: C_16  and  C_21
REMARK    5  A    between atoms: C_19  and  C_22
REMARK    6  A    between atoms: C_23  and  C_26
REMARK    7  A    between atoms: C_25  and  C_29
REMARK                            x       y       z     vdW  Elec       q    Type
REMARK                         _______ _______ _______ _____ _____    ______ ____
ROOT
ATOM      2  O   UNL     1      16.665   5.607  17.943  0.00  0.00    -0.273 OA
ATOM      3  O   UNL     1      17.822   9.650  21.115  0.00  0.00    -0.270 OA
ATOM      5  N   UNL     1      16.505   8.004  20.198  0.00  0.00    -0.284 N 
ATOM      7  N   UNL     1      18.365   5.855  19.438  0.00  0.00    -0.283 N 
ATOM      8  C   UNL     1      16.107   6.615  20.061  0.00  0.00    +0.183 C 
ATOM      9  C   UNL     1      14.647   6.671  19.595  0.00  0.00    +0.104 C 
ATOM     10  C   UNL     1      14.553   8.019  18.876  0.00  0.00    +0.043 C 
ATOM     11  C   UNL     1      15.492   8.909  19.675  0.00  0.00    +0.111 C 
ATOM     12  C   UNL     1      17.056   6.018  19.037  0.00  0.00    +0.240 C 
ATOM     13  C   UNL     1      17.610   8.461  20.884  0.00  0.00    +0.249 C 
ATOM     14  C   UNL     1      18.609   7.462  21.347  0.00  0.00    +0.059 A 
ATOM     15  C   UNL     1      18.991   6.326  20.613  0.00  0.00    +0.046 A 
ATOM     17  C   UNL     1      19.313   7.798  22.517  0.00  0.00    +0.023 A 
ATOM     18  C   UNL     1      20.112   5.592  21.035  0.00  0.00    +0.024 A 
ATOM     19  C   UNL     1      20.395   7.031  22.946  0.00  0.00    -0.017 A 
ATOM     20  C   UNL     1      20.803   5.933  22.198  0.00  0.00    +0.010 A 
ATOM     32  H   UNL     1      18.928   5.246  18.849  0.00  0.00    +0.155 HD
ENDROOT
BRANCH  19  22
ATOM     22  C   UNL     1      21.105   7.389  24.155  0.00  0.00    -0.015 A 
ATOM     23  C   UNL     1      22.317   8.081  24.107  0.00  0.00    -0.040 A 
ATOM     24  C   UNL     1      20.559   7.031  25.389  0.00  0.00    +0.009 A 
ATOM     25  C   UNL     1      22.980   8.413  25.288  0.00  0.00    -0.047 A 
ATOM     26  C   UNL     1      22.915   8.473  22.791  0.00  0.00    +0.044 C 
ATOM     27  C   UNL     1      21.221   7.363  26.570  0.00  0.00    +0.001 A 
ATOM     28  C   UNL     1      22.432   8.054  26.520  0.00  0.00    +0.003 A 
ATOM     29  C   UNL     1      24.277   9.154  25.264  0.00  0.00    +0.044 C 
ENDBRANCH  19  22
BRANCH   9   6
ATOM      4  O   UNL     1      11.754   6.753  19.525  0.00  0.00    -0.275 OA
ATOM      6  N   UNL     1      13.742   6.617  20.722  0.00  0.00    -0.309 N 
ATOM     16  C   UNL     1      12.364   6.662  20.590  0.00  0.00    +0.223 C 
ATOM     31  H   UNL     1      14.140   6.482  21.646  0.00  0.00    +0.149 HD
BRANCH  16  21
ATOM     21  C   UNL     1      11.644   6.607  21.916  0.00  0.00    +0.164 C 
BRANCH  21   1
ATOM      1  S   UNL     1      10.596   8.074  22.076  0.00  0.00    -0.155 S 
ATOM     30  C   UNL     1      11.896   9.314  22.272  0.00  0.00    +0.085 C 
ENDBRANCH  21   1
ENDBRANCH  16  21
ENDBRANCH   9   6
TORSDOF 4
ENDMDL
MODEL 2
REMARK VINA RESULT:      -7.1      6.132      9.569
REMARK  Name = 11941556
REMARK  7 active torsions:
REMARK  status: ('A' for Active; 'I' for Inactive)
REMARK    1  A    between atoms: S_1  and  C_21
REMARK    2  A    between atoms: S_1  and  C_30
REMARK    3  A    between atoms: N_6  and  C_9
REMARK    4  A    between atoms: C_16  and  C_21
REMARK    5  A    between atoms: C_19  and  C_22
REMARK    6  A    between atoms: C_23  and  C_26
REMARK    7  A    between atoms: C_25  and  C_29
REMARK                            x       y       z     vdW  Elec       q    Type
REMARK                         _______ _______ _______ _____ _____    ______ ____
ROOT
ATOM      2  O   UNL     1      10.111  12.754  25.771  0.00  0.00    -0.273 OA
ATOM      3  O   UNL     1      13.194  13.477  21.562  0.00  0.00    -0.270 OA
ATOM      5  N   UNL     1      12.691  13.310  23.800  0.00  0.00    -0.284 N 
ATOM      7  N   UNL     1      10.436  11.426  23.950  0.00  0.00    -0.283 N 
ATOM      8  C   UNL     1      12.378  12.532  24.984  0.00  0.00    +0.183 C 
ATOM      9  C   UNL     1      12.822  13.413  26.158  0.00  0.00    +0.104 C 
ATOM     10  C   UNL     1      12.718  14.833  25.599  0.00  0.00    +0.043 C 
ATOM     11  C   UNL     1      13.104  14.664  24.138  0.00  0.00    +0.111 C 
ATOM     12  C   UNL     1      10.881  12.289  24.929  0.00  0.00    +0.240 C 
ATOM     13  C   UNL     1      12.768  12.822  22.513  0.00  0.00    +0.249 C 
ATOM     14  C   UNL     1      12.287  11.438  22.259  0.00  0.00    +0.059 A 
ATOM     15  C   UNL     1      11.161  10.867  22.875  0.00  0.00    +0.046 A 
ATOM     17  C   UNL     1      12.924  10.752  21.209  0.00  0.00    +0.023 A 
ATOM     18  C   UNL     1      10.661   9.650  22.379  0.00  0.00    +0.024 A 
ATOM     19  C   UNL     1      12.441   9.523  20.761  0.00  0.00    -0.017 A 
ATOM     20  C   UNL     1      11.302   8.977  21.338  0.00  0.00    +0.010 A 
ATOM     32  H   UNL     1       9.484  11.086  24.069  0.00  0.00    +0.155 HD
ENDROOT
BRANCH  19  22
ATOM     22  C   UNL     1      13.112   8.829  19.683  0.00  0.00    -0.015 A 
ATOM     23  C   UNL     1      14.210   8.001  19.926  0.00  0.00    -0.040 A 
ATOM     24  C   UNL     1      12.645   8.997  18.379  0.00  0.00    +0.009 A 
ATOM     25  C   UNL     1      14.839   7.344  18.869  0.00  0.00    -0.047 A 
ATOM     26  C   UNL     1      14.723   7.811  21.321  0.00  0.00    +0.044 C 
ATOM     27  C   UNL     1      13.272   8.340  17.321  0.00  0.00    +0.001 A 
ATOM     28  C   UNL     1      14.369   7.514  17.565  0.00  0.00    +0.003 A 
ATOM     29  C   UNL     1      16.015   6.453  19.102  0.00  0.00    +0.044 C 
ENDBRANCH  19  22
BRANCH   9   6
ATOM      4  O   UNL     1      14.051  13.890  28.736  0.00  0.00    -0.275 OA
ATOM      6  N   UNL     1      14.179  13.106  26.551  0.00  0.00    -0.309 N 
ATOM     16  C   UNL     1      14.681  13.371  27.815  0.00  0.00    +0.223 C 
ATOM     31  H   UNL     1      14.770  12.620  25.883  0.00  0.00    +0.149 HD
BRANCH  16  21
ATOM     21  C   UNL     1      16.130  12.973  27.969  0.00  0.00    +0.164 C 
BRANCH  21   1
ATOM      1  S   UNL     1      16.259  11.172  27.855  0.00  0.00    -0.155 S 
ATOM     30  C   UNL     1      15.621  10.752  29.493  0.00  0.00    +0.085 C 
ENDBRANCH  21   1
ENDBRANCH  16  21
ENDBRANCH   9   6
TORSDOF 4
ENDMDL
MODEL 3
REMARK VINA RESULT:      -6.9     29.228     31.526
REMARK  Name = 11941556
REMARK  7 active torsions:
REMARK  status: ('A' for Active; 'I' for Inactive)
REMARK    1  A    between atoms: S_1  and  C_21
REMARK    2  A    between atoms: S_1  and  C_30
REMARK    3  A    between atoms: N_6  and  C_9
REMARK    4  A    between atoms: C_16  and  C_21
REMARK    5  A    between atoms: C_19  and  C_22
REMARK    6  A    between atoms: C_23  and  C_26
REMARK    7  A    between atoms: C_25  and  C_29
REMARK                            x       y       z     vdW  Elec       q    Type
REMARK                         _______ _______ _______ _____ _____    ______ ____
ROOT
ATOM      2  O   UNL     1      -9.944   7.567  14.000  0.00  0.00    -0.273 OA
ATOM      3  O   UNL     1     -12.491  11.272  16.744  0.00  0.00    -0.270 OA
ATOM      5  N   UNL     1     -12.214   9.685  15.104  0.00  0.00    -0.284 N 
ATOM      7  N   UNL     1     -10.342   7.717  16.237  0.00  0.00    -0.283 N 
ATOM      8  C   UNL     1     -12.141   8.305  14.662  0.00  0.00    +0.183 C 
ATOM      9  C   UNL     1     -12.521   8.350  13.177  0.00  0.00    +0.104 C 
ATOM     10  C   UNL     1     -12.124   9.765  12.750  0.00  0.00    +0.043 C 
ATOM     11  C   UNL     1     -12.411  10.599  13.989  0.00  0.00    +0.111 C 
ATOM     12  C   UNL     1     -10.710   7.868  14.917  0.00  0.00    +0.240 C 
ATOM     13  C   UNL     1     -12.267  10.108  16.415  0.00  0.00    +0.249 C 
ATOM     14  C   UNL     1     -12.015   9.107  17.485  0.00  0.00    +0.059 A 
ATOM     15  C   UNL     1     -11.061   8.079  17.398  0.00  0.00    +0.046 A 
ATOM     17  C   UNL     1     -12.672   9.339  18.707  0.00  0.00    +0.023 A 
ATOM     18  C   UNL     1     -10.742   7.351  18.557  0.00  0.00    +0.024 A 
ATOM     19  C   UNL     1     -12.375   8.575  19.835  0.00  0.00    -0.017 A 
ATOM     20  C   UNL     1     -11.401   7.588  19.763  0.00  0.00    +0.010 A 
ATOM     32  H   UNL     1      -9.478   7.203  16.393  0.00  0.00    +0.155 HD
ENDROOT
BRANCH  19  22
ATOM     22  C   UNL     1     -13.065   8.825  21.082  0.00  0.00    -0.015 A 
ATOM     23  C   UNL     1     -14.119   8.012  21.504  0.00  0.00    -0.040 A 
ATOM     24  C   UNL     1     -12.660   9.902  21.873  0.00  0.00    +0.009 A 
ATOM     25  C   UNL     1     -14.767   8.276  22.710  0.00  0.00    -0.047 A 
ATOM     26  C   UNL     1     -14.565   6.852  20.666  0.00  0.00    +0.044 C 
ATOM     27  C   UNL     1     -13.307  10.166  23.080  0.00  0.00    +0.001 A 
ATOM     28  C   UNL     1     -14.360   9.353  23.499  0.00  0.00    +0.003 A 
ATOM     29  C   UNL     1     -15.897   7.421  23.183  0.00  0.00    +0.044 C 
ENDBRANCH  19  22
BRANCH   9   6
ATOM      4  O   UNL     1     -13.869   5.815  12.807  0.00  0.00    -0.275 OA
ATOM      6  N   UNL     1     -13.939   8.131  12.998  0.00  0.00    -0.309 N 
ATOM     16  C   UNL     1     -14.495   6.874  12.828  0.00  0.00    +0.223 C 
ATOM     31  H   UNL     1     -14.557   8.934  13.059  0.00  0.00    +0.149 HD
BRANCH  16  21
ATOM     21  C   UNL     1     -15.994   6.913  12.645  0.00  0.00    +0.164 C 
BRANCH  21   1
ATOM      1  S   UNL     1     -16.675   5.281  13.029  0.00  0.00    -0.155 S 
ATOM     30  C   UNL     1     -16.777   5.448  14.826  0.00  0.00    +0.085 C 
ENDBRANCH  21   1
ENDBRANCH  16  21
ENDBRANCH   9   6
TORSDOF 4
ENDMDL
MODEL 4
REMARK VINA RESULT:      -6.9     28.513     31.309
REMARK  Name = 11941556
REMARK  7 active torsions:
REMARK  status: ('A' for Active; 'I' for Inactive)
REMARK    1  A    between atoms: S_1  and  C_21
REMARK    2  A    between atoms: S_1  and  C_30
REMARK    3  A    between atoms: N_6  and  C_9
REMARK    4  A    between atoms: C_16  and  C_21
REMARK    5  A    between atoms: C_19  and  C_22
REMARK    6  A    between atoms: C_23  and  C_26
REMARK    7  A    between atoms: C_25  and  C_29
REMARK                            x       y       z     vdW  Elec       q    Type
REMARK                         _______ _______ _______ _____ _____    ______ ____
ROOT
ATOM      2  O   UNL     1      -1.958 -10.642  15.968  0.00  0.00    -0.273 OA
ATOM      3  O   UNL     1      -4.950 -13.468  12.679  0.00  0.00    -0.270 OA
ATOM      5  N   UNL     1      -4.494 -12.170  14.522  0.00  0.00    -0.284 N 
ATOM      7  N   UNL     1      -2.253 -10.441  13.719  0.00  0.00    -0.283 N 
ATOM      8  C   UNL     1      -4.210 -10.890  15.144  0.00  0.00    +0.183 C 
ATOM      9  C   UNL     1      -4.673 -11.050  16.597  0.00  0.00    +0.104 C 
ATOM     10  C   UNL     1      -4.549 -12.555  16.847  0.00  0.00    +0.043 C 
ATOM     11  C   UNL     1      -4.907 -13.165  15.501  0.00  0.00    +0.111 C 
ATOM     12  C   UNL     1      -2.713 -10.687  14.995  0.00  0.00    +0.240 C 
ATOM     13  C   UNL     1      -4.547 -12.412  13.166  0.00  0.00    +0.249 C 
ATOM     14  C   UNL     1      -4.069 -11.347  12.245  0.00  0.00    +0.059 A 
ATOM     15  C   UNL     1      -2.958 -10.523  12.498  0.00  0.00    +0.046 A 
ATOM     17  C   UNL     1      -4.688 -11.306  10.983  0.00  0.00    +0.023 A 
ATOM     18  C   UNL     1      -2.456  -9.726  11.455  0.00  0.00    +0.024 A 
ATOM     19  C   UNL     1      -4.202 -10.473   9.976  0.00  0.00    -0.017 A 
ATOM     20  C   UNL     1      -3.078  -9.691  10.208  0.00  0.00    +0.010 A 
ATOM     32  H   UNL     1      -1.306 -10.074  13.660  0.00  0.00    +0.155 HD
ENDROOT
BRANCH  19  22
ATOM     22  C   UNL     1      -4.855 -10.440   8.685  0.00  0.00    -0.015 A 
ATOM     23  C   UNL     1      -5.845  -9.498   8.396  0.00  0.00    -0.040 A 
ATOM     24  C   UNL     1      -4.480 -11.372   7.715  0.00  0.00    +0.009 A 
ATOM     25  C   UNL     1      -6.458  -9.489   7.143  0.00  0.00    -0.047 A 
ATOM     26  C   UNL     1      -6.258  -8.491   9.425  0.00  0.00    +0.044 C 
ATOM     27  C   UNL     1      -5.092 -11.364   6.463  0.00  0.00    +0.001 A 
ATOM     28  C   UNL     1      -6.081 -10.422   6.176  0.00  0.00    +0.003 A 
ATOM     29  C   UNL     1      -7.519  -8.493   6.809  0.00  0.00    +0.044 C 
ENDBRANCH  19  22
BRANCH   9   6
ATOM      4  O   UNL     1      -6.026 -10.399  19.072  0.00  0.00    -0.275 OA
ATOM      6  N   UNL     1      -6.040 -10.606  16.757  0.00  0.00    -0.309 N 
ATOM     16  C   UNL     1      -6.603 -10.316  17.988  0.00  0.00    +0.223 C 
ATOM     31  H   UNL     1      -6.590 -10.446  15.918  0.00  0.00    +0.149 HD
BRANCH  16  21
ATOM     21  C   UNL     1      -8.048  -9.889  17.889  0.00  0.00    +0.164 C 
BRANCH  21   1
ATOM      1  S   UNL     1      -8.394  -9.380  16.188  0.00  0.00    -0.155 S 
ATOM     30  C   UNL     1      -9.548  -8.033  16.540  0.00  0.00    +0.085 C 
ENDBRANCH  21   1
ENDBRANCH  16  21
ENDBRANCH   9   6
TORSDOF 4
ENDMDL
MODEL 5
REMARK VINA RESULT:      -6.7     32.603     34.602
REMARK  Name = 11941556
REMARK  7 active torsions:
REMARK  status: ('A' for Active; 'I' for Inactive)
REMARK    1  A    between atoms: S_1  and  C_21
REMARK    2  A    between atoms: S_1  and  C_30
REMARK    3  A    between atoms: N_6  and  C_9
REMARK    4  A    between atoms: C_16  and  C_21
REMARK    5  A    between atoms: C_19  and  C_22
REMARK    6  A    between atoms: C_23  and  C_26
REMARK    7  A    between atoms: C_25  and  C_29
REMARK                            x       y       z     vdW  Elec       q    Type
REMARK                         _______ _______ _______ _____ _____    ______ ____
ROOT
ATOM      2  O   UNL     1     -18.950   2.897  29.412  0.00  0.00    -0.273 OA
ATOM      3  O   UNL     1     -14.060   2.835  31.370  0.00  0.00    -0.270 OA
ATOM      5  N   UNL     1     -15.671   2.891  29.730  0.00  0.00    -0.284 N 
ATOM      7  N   UNL     1     -17.970   4.266  30.945  0.00  0.00    -0.283 N 
ATOM      8  C   UNL     1     -16.685   3.585  28.959  0.00  0.00    +0.183 C 
ATOM      9  C   UNL     1     -16.765   2.814  27.635  0.00  0.00    +0.104 C 
ATOM     10  C   UNL     1     -16.310   1.403  28.016  0.00  0.00    +0.043 C 
ATOM     11  C   UNL     1     -15.260   1.651  29.087  0.00  0.00    +0.111 C 
ATOM     12  C   UNL     1     -17.952   3.513  29.791  0.00  0.00    +0.240 C 
ATOM     13  C   UNL     1     -15.026   3.386  30.843  0.00  0.00    +0.249 C 
ATOM     14  C   UNL     1     -15.543   4.640  31.451  0.00  0.00    +0.059 A 
ATOM     15  C   UNL     1     -16.906   4.966  31.556  0.00  0.00    +0.046 A 
ATOM     17  C   UNL     1     -14.588   5.445  32.098  0.00  0.00    +0.023 A 
ATOM     18  C   UNL     1     -17.283   6.053  32.363  0.00  0.00    +0.024 A 
ATOM     19  C   UNL     1     -14.978   6.548  32.857  0.00  0.00    -0.017 A 
ATOM     20  C   UNL     1     -16.328   6.845  32.999  0.00  0.00    +0.010 A 
ATOM     32  H   UNL     1     -18.888   4.402  31.363  0.00  0.00    +0.155 HD
ENDROOT
BRANCH  19  22
ATOM     22  C   UNL     1     -13.982   7.368  33.512  0.00  0.00    -0.015 A 
ATOM     23  C   UNL     1     -13.468   7.025  34.764  0.00  0.00    -0.040 A 
ATOM     24  C   UNL     1     -13.530   8.522  32.869  0.00  0.00    +0.009 A 
ATOM     25  C   UNL     1     -12.509   7.833  35.372  0.00  0.00    -0.047 A 
ATOM     26  C   UNL     1     -13.942   5.789  35.465  0.00  0.00    +0.044 C 
ATOM     27  C   UNL     1     -12.571   9.331  33.477  0.00  0.00    +0.001 A 
ATOM     28  C   UNL     1     -12.059   8.987  34.728  0.00  0.00    +0.003 A 
ATOM     29  C   UNL     1     -11.944   7.488  36.711  0.00  0.00    +0.044 C 
ENDBRANCH  19  22
BRANCH   9   6
ATOM      4  O   UNL     1     -17.031   2.661  24.757  0.00  0.00    -0.275 OA
ATOM      6  N   UNL     1     -15.889   3.395  26.643  0.00  0.00    -0.309 N 
ATOM     16  C   UNL     1     -16.098   3.268  25.280  0.00  0.00    +0.223 C 
ATOM     31  H   UNL     1     -15.117   3.970  26.968  0.00  0.00    +0.149 HD
BRANCH  16  21
ATOM     21  C   UNL     1     -15.032   3.950  24.455  0.00  0.00    +0.164 C 
BRANCH  21   1
ATOM      1  S   UNL     1     -15.789   4.613  22.951  0.00  0.00    -0.155 S 
ATOM     30  C   UNL     1     -14.297   5.259  22.161  0.00  0.00    +0.085 C 
ENDBRANCH  21   1
ENDBRANCH  16  21
ENDBRANCH   9   6
TORSDOF 4
ENDMDL
MODEL 6
REMARK VINA RESULT:      -6.7     10.806     13.214
REMARK  Name = 11941556
REMARK  7 active torsions:
REMARK  status: ('A' for Active; 'I' for Inactive)
REMARK    1  A    between atoms: S_1  and  C_21
REMARK    2  A    between atoms: S_1  and  C_30
REMARK    3  A    between atoms: N_6  and  C_9
REMARK    4  A    between atoms: C_16  and  C_21
REMARK    5  A    between atoms: C_19  and  C_22
REMARK    6  A    between atoms: C_23  and  C_26
REMARK    7  A    between atoms: C_25  and  C_29
REMARK                            x       y       z     vdW  Elec       q    Type
REMARK                         _______ _______ _______ _____ _____    ______ ____
ROOT
ATOM      2  O   UNL     1      20.543  -0.891  32.512  0.00  0.00    -0.273 OA
ATOM      3  O   UNL     1      16.222  -2.871  30.244  0.00  0.00    -0.270 OA
ATOM      5  N   UNL     1      17.502  -1.286  31.308  0.00  0.00    -0.284 N 
ATOM      7  N   UNL     1      20.266  -1.816  30.451  0.00  0.00    -0.283 N 
ATOM      8  C   UNL     1      18.546  -0.278  31.310  0.00  0.00    +0.183 C 
ATOM      9  C   UNL     1      18.188   0.654  32.474  0.00  0.00    +0.104 C 
ATOM     10  C   UNL     1      17.396  -0.249  33.423  0.00  0.00    +0.043 C 
ATOM     11  C   UNL     1      16.645  -1.176  32.480  0.00  0.00    +0.111 C 
ATOM     12  C   UNL     1      19.846  -1.037  31.507  0.00  0.00    +0.240 C 
ATOM     13  C   UNL     1      17.215  -2.145  30.270  0.00  0.00    +0.249 C 
ATOM     14  C   UNL     1      18.170  -2.214  29.133  0.00  0.00    +0.059 A 
ATOM     15  C   UNL     1      19.568  -2.147  29.269  0.00  0.00    +0.046 A 
ATOM     17  C   UNL     1      17.611  -2.535  27.883  0.00  0.00    +0.023 A 
ATOM     18  C   UNL     1      20.372  -2.468  28.162  0.00  0.00    +0.024 A 
ATOM     19  C   UNL     1      18.426  -2.805  26.783  0.00  0.00    -0.017 A 
ATOM     20  C   UNL     1      19.807  -2.783  26.926  0.00  0.00    +0.010 A 
ATOM     32  H   UNL     1      21.235  -2.123  30.494  0.00  0.00    +0.155 HD
ENDROOT
BRANCH  19  22
ATOM     22  C   UNL     1      17.833  -3.128  25.503  0.00  0.00    -0.015 A 
ATOM     23  C   UNL     1      17.454  -2.127  24.606  0.00  0.00    -0.040 A 
ATOM     24  C   UNL     1      17.642  -4.469  25.168  0.00  0.00    +0.009 A 
ATOM     25  C   UNL     1      16.885  -2.467  23.379  0.00  0.00    -0.047 A 
ATOM     26  C   UNL     1      17.654  -0.683  24.951  0.00  0.00    +0.044 C 
ATOM     27  C   UNL     1      17.073  -4.810  23.942  0.00  0.00    +0.001 A 
ATOM     28  C   UNL     1      16.695  -3.809  23.046  0.00  0.00    +0.003 A 
ATOM     29  C   UNL     1      16.471  -1.416  22.402  0.00  0.00    +0.044 C 
ENDBRANCH  19  22
BRANCH   9   6
ATOM      4  O   UNL     1      18.400   3.422  33.293  0.00  0.00    -0.275 OA
ATOM      6  N   UNL     1      17.384   1.765  32.019  0.00  0.00    -0.309 N 
ATOM     16  C   UNL     1      17.560   3.063  32.470  0.00  0.00    +0.223 C 
ATOM     31  H   UNL     1      16.697   1.590  31.291  0.00  0.00    +0.149 HD
BRANCH  16  21
ATOM     21  C   UNL     1      16.583   4.038  31.855  0.00  0.00    +0.164 C 
BRANCH  21   1
ATOM      1  S   UNL     1      17.509   5.380  31.071  0.00  0.00    -0.155 S 
ATOM     30  C   UNL     1      17.208   6.669  32.302  0.00  0.00    +0.085 C 
ENDBRANCH  21   1
ENDBRANCH  16  21
ENDBRANCH   9   6
TORSDOF 4
ENDMDL
MODEL 7
REMARK VINA RESULT:      -6.6     15.649     17.543
REMARK  Name = 11941556
REMARK  7 active torsions:
REMARK  status: ('A' for Active; 'I' for Inactive)
REMARK    1  A    between atoms: S_1  and  C_21
REMARK    2  A    between atoms: S_1  and  C_30
REMARK    3  A    between atoms: N_6  and  C_9
REMARK    4  A    between atoms: C_16  and  C_21
REMARK    5  A    between atoms: C_19  and  C_22
REMARK    6  A    between atoms: C_23  and  C_26
REMARK    7  A    between atoms: C_25  and  C_29
REMARK                            x       y       z     vdW  Elec       q    Type
REMARK                         _______ _______ _______ _____ _____    ______ ____
ROOT
ATOM      2  O   UNL     1      10.974  10.429   6.134  0.00  0.00    -0.273 OA
ATOM      3  O   UNL     1      14.288   6.514   7.334  0.00  0.00    -0.270 OA
ATOM      5  N   UNL     1      12.577   7.552   6.199  0.00  0.00    -0.284 N 
ATOM      7  N   UNL     1      13.249  10.416   6.235  0.00  0.00    -0.283 N 
ATOM      8  C   UNL     1      12.088   8.499   5.215  0.00  0.00    +0.183 C 
ATOM      9  C   UNL     1      10.712   7.959   4.804  0.00  0.00    +0.104 C 
ATOM     10  C   UNL     1      10.257   7.169   6.034  0.00  0.00    +0.043 C 
ATOM     11  C   UNL     1      11.553   6.589   6.578  0.00  0.00    +0.111 C 
ATOM     12  C   UNL     1      12.035   9.838   5.928  0.00  0.00    +0.240 C 
ATOM     13  C   UNL     1      13.884   7.433   6.622  0.00  0.00    +0.249 C 
ATOM     14  C   UNL     1      14.850   8.487   6.214  0.00  0.00    +0.059 A 
ATOM     15  C   UNL     1      14.541   9.856   6.134  0.00  0.00    +0.046 A 
ATOM     17  C   UNL     1      16.186   8.070   6.072  0.00  0.00    +0.023 A 
ATOM     18  C   UNL     1      15.589  10.779   5.978  0.00  0.00    +0.024 A 
ATOM     19  C   UNL     1      17.207   8.999   5.871  0.00  0.00    -0.017 A 
ATOM     20  C   UNL     1      16.910  10.355   5.836  0.00  0.00    +0.010 A 
ATOM     32  H   UNL     1      13.211  11.401   6.487  0.00  0.00    +0.155 HD
ENDROOT
BRANCH  19  22
ATOM     22  C   UNL     1      18.575   8.552   5.721  0.00  0.00    -0.015 A 
ATOM     23  C   UNL     1      19.082   8.170   4.477  0.00  0.00    -0.040 A 
ATOM     24  C   UNL     1      19.397   8.506   6.849  0.00  0.00    +0.009 A 
ATOM     25  C   UNL     1      20.404   7.742   4.362  0.00  0.00    -0.047 A 
ATOM     26  C   UNL     1      18.213   8.214   3.258  0.00  0.00    +0.044 C 
ATOM     27  C   UNL     1      20.719   8.078   6.734  0.00  0.00    +0.001 A 
ATOM     28  C   UNL     1      21.224   7.697   5.491  0.00  0.00    +0.003 A 
ATOM     29  C   UNL     1      20.970   7.328   3.043  0.00  0.00    +0.044 C 
ENDBRANCH  19  22
BRANCH   9   6
ATOM      4  O   UNL     1       8.751   7.604   2.705  0.00  0.00    -0.275 OA
ATOM      6  N   UNL     1      10.817   7.103   3.644  0.00  0.00    -0.309 N 
ATOM     16  C   UNL     1       9.822   6.998   2.687  0.00  0.00    +0.223 C 
ATOM     31  H   UNL     1      11.689   6.601   3.500  0.00  0.00    +0.149 HD
BRANCH  16  21
ATOM     21  C   UNL     1      10.165   6.026   1.584  0.00  0.00    +0.164 C 
BRANCH  21   1
ATOM      1  S   UNL     1      11.809   5.338   1.898  0.00  0.00    -0.155 S 
ATOM     30  C   UNL     1      11.310   3.696   2.464  0.00  0.00    +0.085 C 
ENDBRANCH  21   1
ENDBRANCH  16  21
ENDBRANCH   9   6
TORSDOF 4
ENDMDL
MODEL 8
REMARK VINA RESULT:      -6.5      3.148      5.312
REMARK  Name = 11941556
REMARK  7 active torsions:
REMARK  status: ('A' for Active; 'I' for Inactive)
REMARK    1  A    between atoms: S_1  and  C_21
REMARK    2  A    between atoms: S_1  and  C_30
REMARK    3  A    between atoms: N_6  and  C_9
REMARK    4  A    between atoms: C_16  and  C_21
REMARK    5  A    between atoms: C_19  and  C_22
REMARK    6  A    between atoms: C_23  and  C_26
REMARK    7  A    between atoms: C_25  and  C_29
REMARK                            x       y       z     vdW  Elec       q    Type
REMARK                         _______ _______ _______ _____ _____    ______ ____
ROOT
ATOM      2  O   UNL     1      11.031   8.891  20.754  0.00  0.00    -0.273 OA
ATOM      3  O   UNL     1      15.738  11.144  20.031  0.00  0.00    -0.270 OA
ATOM      5  N   UNL     1      13.689  10.819  21.024  0.00  0.00    -0.284 N 
ATOM      7  N   UNL     1      13.106   7.955  20.684  0.00  0.00    -0.283 N 
ATOM      8  C   UNL     1      12.794  10.078  21.892  0.00  0.00    +0.183 C 
ATOM      9  C   UNL     1      11.747  11.105  22.342  0.00  0.00    +0.104 C 
ATOM     10  C   UNL     1      11.734  12.125  21.200  0.00  0.00    +0.043 C 
ATOM     11  C   UNL     1      13.183  12.154  20.740  0.00  0.00    +0.111 C 
ATOM     12  C   UNL     1      12.229   8.959  21.037  0.00  0.00    +0.240 C 
ATOM     13  C   UNL     1      14.948  10.417  20.633  0.00  0.00    +0.249 C 
ATOM     14  C   UNL     1      15.362   9.021  20.935  0.00  0.00    +0.059 A 
ATOM     15  C   UNL     1      14.506   7.908  20.862  0.00  0.00    +0.046 A 
ATOM     17  C   UNL     1      16.739   8.822  21.139  0.00  0.00    +0.023 A 
ATOM     18  C   UNL     1      15.063   6.620  20.929  0.00  0.00    +0.024 A 
ATOM     19  C   UNL     1      17.267   7.536  21.251  0.00  0.00    -0.017 A 
ATOM     20  C   UNL     1      16.430   6.434  21.133  0.00  0.00    +0.010 A 
ATOM     32  H   UNL     1      12.676   7.106  20.325  0.00  0.00    +0.155 HD
ENDROOT
BRANCH  19  22
ATOM     22  C   UNL     1      18.686   7.351  21.466  0.00  0.00    -0.015 A 
ATOM     23  C   UNL     1      19.404   6.376  20.770  0.00  0.00    -0.040 A 
ATOM     24  C   UNL     1      19.341   8.169  22.388  0.00  0.00    +0.009 A 
ATOM     25  C   UNL     1      20.771   6.218  20.998  0.00  0.00    -0.047 A 
ATOM     26  C   UNL     1      18.716   5.491  19.777  0.00  0.00    +0.044 C 
ATOM     27  C   UNL     1      20.708   8.012  22.616  0.00  0.00    +0.001 A 
ATOM     28  C   UNL     1      21.423   7.037  21.921  0.00  0.00    +0.003 A 
ATOM     29  C   UNL     1      21.562   5.183  20.267  0.00  0.00    +0.044 C 
ENDBRANCH  19  22
BRANCH   9   6
ATOM      4  O   UNL     1      10.004  12.325  24.304  0.00  0.00    -0.275 OA
ATOM      6  N   UNL     1      12.132  11.725  23.590  0.00  0.00    -0.309 N 
ATOM     16  C   UNL     1      11.222  12.285  24.470  0.00  0.00    +0.223 C 
ATOM     31  H   UNL     1      13.112  11.693  23.854  0.00  0.00    +0.149 HD
BRANCH  16  21
ATOM     21  C   UNL     1      11.877  12.883  25.693  0.00  0.00    +0.164 C 
BRANCH  21   1
ATOM      1  S   UNL     1      13.455  13.625  25.210  0.00  0.00    -0.155 S 
ATOM     30  C   UNL     1      14.552  12.608  26.223  0.00  0.00    +0.085 C 
ENDBRANCH  21   1
ENDBRANCH  16  21
ENDBRANCH   9   6
TORSDOF 4
ENDMDL
MODEL 9
REMARK VINA RESULT:      -6.3     17.806     21.885
REMARK  Name = 11941556
REMARK  7 active torsions:
REMARK  status: ('A' for Active; 'I' for Inactive)
REMARK    1  A    between atoms: S_1  and  C_21
REMARK    2  A    between atoms: S_1  and  C_30
REMARK    3  A    between atoms: N_6  and  C_9
REMARK    4  A    between atoms: C_16  and  C_21
REMARK    5  A    between atoms: C_19  and  C_22
REMARK    6  A    between atoms: C_23  and  C_26
REMARK    7  A    between atoms: C_25  and  C_29
REMARK                            x       y       z     vdW  Elec       q    Type
REMARK                         _______ _______ _______ _____ _____    ______ ____
ROOT
ATOM      2  O   UNL     1      13.092   7.867   5.837  0.00  0.00    -0.273 OA
ATOM      3  O   UNL     1      10.473   3.695   3.971  0.00  0.00    -0.270 OA
ATOM      5  N   UNL     1      10.717   5.784   4.899  0.00  0.00    -0.284 N 
ATOM      7  N   UNL     1      13.250   6.822   3.820  0.00  0.00    -0.283 N 
ATOM      8  C   UNL     1      11.022   7.199   4.797  0.00  0.00    +0.183 C 
ATOM      9  C   UNL     1      10.278   7.845   5.973  0.00  0.00    +0.104 C 
ATOM     10  C   UNL     1      10.182   6.712   6.999  0.00  0.00    +0.043 C 
ATOM     11  C   UNL     1      10.018   5.471   6.137  0.00  0.00    +0.111 C 
ATOM     12  C   UNL     1      12.533   7.300   4.896  0.00  0.00    +0.240 C 
ATOM     13  C   UNL     1      10.893   4.849   3.902  0.00  0.00    +0.249 C 
ATOM     14  C   UNL     1      11.654   5.253   2.690  0.00  0.00    +0.059 A 
ATOM     15  C   UNL     1      12.783   6.090   2.706  0.00  0.00    +0.046 A 
ATOM     17  C   UNL     1      11.292   4.603   1.496  0.00  0.00    +0.023 A 
ATOM     18  C   UNL     1      13.559   6.203   1.540  0.00  0.00    +0.024 A 
ATOM     19  C   UNL     1      12.050   4.764   0.336  0.00  0.00    -0.017 A 
ATOM     20  C   UNL     1      13.191   5.555   0.362  0.00  0.00    +0.010 A 
ATOM     32  H   UNL     1      14.227   7.106   3.786  0.00  0.00    +0.155 HD
ENDROOT
BRANCH  19  22
ATOM     22  C   UNL     1      11.660   4.092  -0.884  0.00  0.00    -0.015 A 
ATOM     23  C   UNL     1      10.593   4.554  -1.658  0.00  0.00    -0.040 A 
ATOM     24  C   UNL     1      12.371   2.960  -1.288  0.00  0.00    +0.009 A 
ATOM     25  C   UNL     1      10.238   3.886  -2.830  0.00  0.00    -0.047 A 
ATOM     26  C   UNL     1       9.821   5.767  -1.239  0.00  0.00    +0.044 C 
ATOM     27  C   UNL     1      12.017   2.292  -2.459  0.00  0.00    +0.001 A 
ATOM     28  C   UNL     1      10.951   2.755  -3.231  0.00  0.00    +0.003 A 
ATOM     29  C   UNL     1       9.102   4.360  -3.675  0.00  0.00    +0.044 C 
ENDBRANCH  19  22
BRANCH   9   6
ATOM      4  O   UNL     1       9.572  10.432   4.883  0.00  0.00    -0.275 OA
ATOM      6  N   UNL     1       8.965   8.296   5.570  0.00  0.00    -0.309 N 
ATOM     16  C   UNL     1       8.723   9.558   5.056  0.00  0.00    +0.223 C 
ATOM     31  H   UNL     1       8.198   7.631   5.615  0.00  0.00    +0.149 HD
BRANCH  16  21
ATOM     21  C   UNL     1       7.267   9.791   4.728  0.00  0.00    +0.164 C 
BRANCH  21   1
ATOM      1  S   UNL     1       7.149  10.559   3.094  0.00  0.00    -0.155 S 
ATOM     30  C   UNL     1       7.585   9.122   2.088  0.00  0.00    +0.085 C 
ENDBRANCH  21   1
ENDBRANCH  16  21
ENDBRANCH   9   6
TORSDOF 4
ENDMDL
MODEL 10
REMARK VINA RESULT:      -6.2     32.949     34.538
REMARK  Name = 11941556
REMARK  7 active torsions:
REMARK  status: ('A' for Active; 'I' for Inactive)
REMARK    1  A    between atoms: S_1  and  C_21
REMARK    2  A    between atoms: S_1  and  C_30
REMARK    3  A    between atoms: N_6  and  C_9
REMARK    4  A    between atoms: C_16  and  C_21
REMARK    5  A    between atoms: C_19  and  C_22
REMARK    6  A    between atoms: C_23  and  C_26
REMARK    7  A    between atoms: C_25  and  C_29
REMARK                            x       y       z     vdW  Elec       q    Type
REMARK                         _______ _______ _______ _____ _____    ______ ____
ROOT
ATOM      2  O   UNL     1     -15.209  -0.022  32.881  0.00  0.00    -0.273 OA
ATOM      3  O   UNL     1     -12.217   3.989  31.234  0.00  0.00    -0.270 OA
ATOM      5  N   UNL     1     -13.912   2.440  31.116  0.00  0.00    -0.284 N 
ATOM      7  N   UNL     1     -14.714   1.951  33.904  0.00  0.00    -0.283 N 
ATOM      8  C   UNL     1     -15.224   1.951  31.496  0.00  0.00    +0.183 C 
ATOM      9  C   UNL     1     -15.666   1.067  30.323  0.00  0.00    +0.104 C 
ATOM     10  C   UNL     1     -14.344   0.594  29.715  0.00  0.00    +0.043 C 
ATOM     11  C   UNL     1     -13.420   1.785  29.912  0.00  0.00    +0.111 C 
ATOM     12  C   UNL     1     -15.018   1.193  32.794  0.00  0.00    +0.240 C 
ATOM     13  C   UNL     1     -13.252   3.505  31.690  0.00  0.00    +0.249 C 
ATOM     14  C   UNL     1     -13.811   4.083  32.941  0.00  0.00    +0.059 A 
ATOM     15  C   UNL     1     -14.394   3.325  33.971  0.00  0.00    +0.046 A 
ATOM     17  C   UNL     1     -13.571   5.454  33.142  0.00  0.00    +0.023 A 
ATOM     18  C   UNL     1     -14.663   3.948  35.202  0.00  0.00    +0.024 A 
ATOM     19  C   UNL     1     -13.887   6.065  34.355  0.00  0.00    -0.017 A 
ATOM     20  C   UNL     1     -14.422   5.309  35.390  0.00  0.00    +0.010 A 
ATOM     32  H   UNL     1     -14.813   1.475  34.798  0.00  0.00    +0.155 HD
ENDROOT
BRANCH  19  22
ATOM     22  C   UNL     1     -13.638   7.478  34.542  0.00  0.00    -0.015 A 
ATOM     23  C   UNL     1     -14.449   8.444  33.942  0.00  0.00    -0.040 A 
ATOM     24  C   UNL     1     -12.563   7.874  35.340  0.00  0.00    +0.009 A 
ATOM     25  C   UNL     1     -14.186   9.799  34.139  0.00  0.00    -0.047 A 
ATOM     26  C   UNL     1     -15.607   8.035  33.084  0.00  0.00    +0.044 C 
ATOM     27  C   UNL     1     -12.299   9.228  35.538  0.00  0.00    +0.001 A 
ATOM     28  C   UNL     1     -13.111  10.192  34.938  0.00  0.00    +0.003 A 
ATOM     29  C   UNL     1     -15.039  10.851  33.509  0.00  0.00    +0.044 C 
ENDBRANCH  19  22
BRANCH   9   6
ATOM      4  O   UNL     1     -17.627   0.048  28.453  0.00  0.00    -0.275 OA
ATOM      6  N   UNL     1     -16.439   1.826  29.365  0.00  0.00    -0.309 N 
ATOM     16  C   UNL     1     -17.360   1.248  28.507  0.00  0.00    +0.223 C 
ATOM     31  H   UNL     1     -16.339   2.836  29.366  0.00  0.00    +0.149 HD
BRANCH  16  21
ATOM     21  C   UNL     1     -18.022   2.251  27.592  0.00  0.00    +0.164 C 
BRANCH  21   1
ATOM      1  S   UNL     1     -16.908   3.657  27.358  0.00  0.00    -0.155 S 
ATOM     30  C   UNL     1     -16.116   3.121  25.824  0.00  0.00    +0.085 C 
ENDBRANCH  21   1
ENDBRANCH  16  21
ENDBRANCH   9   6
TORSDOF 4
ENDMDL
