MODEL 1
REMARK VINA RESULT:      -6.5      0.000      0.000
REMARK  Name = 51137899
REMARK  4 active torsions:
REMARK  status: ('A' for Active; 'I' for Inactive)
REMARK    1  A    between atoms: N_2  and  C_6
REMARK    2  A    between atoms: N_4  and  C_19
REMARK    3  A    between atoms: C_7  and  C_15
REMARK    4  A    between atoms: C_16  and  C_20
REMARK                            x       y       z     vdW  Elec       q    Type
REMARK                         _______ _______ _______ _____ _____    ______ ____
ROOT
ATOM      2  N   UNL     1     -17.477   3.109  25.755  0.00  0.00    -0.299 NA
ATOM      7  C   UNL     1     -16.899   4.281  23.807  0.00  0.00    +0.070 C 
ATOM      8  C   UNL     1     -16.840   4.361  25.339  0.00  0.00    +0.096 C 
ATOM      9  C   UNL     1     -16.929   2.091  24.859  0.00  0.00    +0.085 C 
ATOM     10  C   UNL     1     -16.977   2.776  23.499  0.00  0.00    +0.028 C 
ENDROOT
BRANCH   7  15
ATOM      4  N   UNL     1     -15.821   6.341  22.834  0.00  0.00    -0.330 N 
ATOM      5  N   UNL     1     -14.612   4.476  22.772  0.00  0.00    -0.232 NA
ATOM     15  C   UNL     1     -15.757   5.009  23.135  0.00  0.00    +0.115 A 
ATOM     17  C   UNL     1     -14.637   6.691  22.237  0.00  0.00    +0.069 A 
ATOM     18  C   UNL     1     -13.900   5.511  22.210  0.00  0.00    +0.089 A 
ATOM     19  C   UNL     1     -16.933   7.226  23.098  0.00  0.00    +0.150 C 
ATOM     21  C   UNL     1     -14.162   7.903  21.734  0.00  0.00    +0.028 A 
ATOM     22  C   UNL     1     -12.611   5.521  21.651  0.00  0.00    +0.030 A 
ATOM     23  C   UNL     1     -12.877   7.895  21.181  0.00  0.00    +0.002 A 
ATOM     24  C   UNL     1     -12.114   6.726  21.140  0.00  0.00    +0.002 A 
ENDBRANCH   7  15
BRANCH   2   6
ATOM      1  O   UNL     1     -13.410   2.182  30.272  0.00  0.00    -0.276 OA
ATOM      3  N   UNL     1     -15.477   1.860  29.262  0.00  0.00    -0.302 N 
ATOM      6  C   UNL     1     -17.234   2.801  27.162  0.00  0.00    +0.060 C 
ATOM     11  C   UNL     1     -16.905   1.312  27.327  0.00  0.00    +0.038 C 
ATOM     12  C   UNL     1     -16.085   3.666  27.699  0.00  0.00    +0.038 C 
ATOM     13  C   UNL     1     -16.552   0.986  28.778  0.00  0.00    +0.109 C 
ATOM     14  C   UNL     1     -15.751   3.293  29.141  0.00  0.00    +0.109 C 
ATOM     16  C   UNL     1     -14.284   1.427  29.840  0.00  0.00    +0.212 C 
ATOM     20  C   UNL     1     -14.076  -0.064  29.924  0.00  0.00    +0.109 C 
ENDBRANCH   2   6
TORSDOF 2
ENDMDL
MODEL 2
REMARK VINA RESULT:      -6.5     29.466     32.668
REMARK  Name = 51137899
REMARK  4 active torsions:
REMARK  status: ('A' for Active; 'I' for Inactive)
REMARK    1  A    between atoms: N_2  and  C_6
REMARK    2  A    between atoms: N_4  and  C_19
REMARK    3  A    between atoms: C_7  and  C_15
REMARK    4  A    between atoms: C_16  and  C_20
REMARK                            x       y       z     vdW  Elec       q    Type
REMARK                         _______ _______ _______ _____ _____    ______ ____
ROOT
ATOM      2  N   UNL     1      17.283   6.044  20.357  0.00  0.00    -0.299 NA
ATOM      7  C   UNL     1      15.062   6.602  20.864  0.00  0.00    +0.070 C 
ATOM      8  C   UNL     1      16.487   6.643  21.432  0.00  0.00    +0.096 C 
ATOM      9  C   UNL     1      16.759   6.636  19.126  0.00  0.00    +0.085 C 
ATOM     10  C   UNL     1      15.251   6.579  19.337  0.00  0.00    +0.028 C 
ENDROOT
BRANCH   7  15
ATOM      4  N   UNL     1      12.831   7.611  21.463  0.00  0.00    -0.330 N 
ATOM      5  N   UNL     1      14.613   8.899  21.792  0.00  0.00    -0.232 NA
ATOM     15  C   UNL     1      14.191   7.725  21.379  0.00  0.00    +0.115 A 
ATOM     17  C   UNL     1      12.343   8.791  21.964  0.00  0.00    +0.069 A 
ATOM     18  C   UNL     1      13.474   9.577  22.161  0.00  0.00    +0.089 A 
ATOM     19  C   UNL     1      12.044   6.456  21.092  0.00  0.00    +0.150 C 
ATOM     21  C   UNL     1      11.049   9.224  22.253  0.00  0.00    +0.028 A 
ATOM     22  C   UNL     1      13.324  10.876  22.676  0.00  0.00    +0.030 A 
ATOM     23  C   UNL     1      10.918  10.519  22.765  0.00  0.00    +0.002 A 
ATOM     24  C   UNL     1      12.033  11.332  22.974  0.00  0.00    +0.002 A 
ENDBRANCH   7  15
BRANCH   2   6
ATOM      1  O   UNL     1      22.729   3.982  22.329  0.00  0.00    -0.276 OA
ATOM      3  N   UNL     1      21.228   5.683  21.828  0.00  0.00    -0.302 N 
ATOM      6  C   UNL     1      18.715   6.284  20.524  0.00  0.00    +0.060 C 
ATOM     11  C   UNL     1      19.007   6.749  21.956  0.00  0.00    +0.038 C 
ATOM     12  C   UNL     1      19.502   5.007  20.203  0.00  0.00    +0.038 C 
ATOM     13  C   UNL     1      20.510   6.913  22.183  0.00  0.00    +0.109 C 
ATOM     14  C   UNL     1      20.994   5.207  20.464  0.00  0.00    +0.109 C 
ATOM     16  C   UNL     1      22.110   4.995  22.662  0.00  0.00    +0.212 C 
ATOM     20  C   UNL     1      22.293   5.546  24.053  0.00  0.00    +0.109 C 
ENDBRANCH   2   6
TORSDOF 2
ENDMDL
MODEL 3
REMARK VINA RESULT:      -6.4     20.937     23.506
REMARK  Name = 51137899
REMARK  4 active torsions:
REMARK  status: ('A' for Active; 'I' for Inactive)
REMARK    1  A    between atoms: N_2  and  C_6
REMARK    2  A    between atoms: N_4  and  C_19
REMARK    3  A    between atoms: C_7  and  C_15
REMARK    4  A    between atoms: C_16  and  C_20
REMARK                            x       y       z     vdW  Elec       q    Type
REMARK                         _______ _______ _______ _____ _____    ______ ____
ROOT
ATOM      2  N   UNL     1      -2.909 -10.752  11.040  0.00  0.00    -0.299 NA
ATOM      7  C   UNL     1      -2.723 -11.569  13.231  0.00  0.00    +0.070 C 
ATOM      8  C   UNL     1      -3.196 -10.353  12.420  0.00  0.00    +0.096 C 
ATOM      9  C   UNL     1      -3.338 -12.147  10.953  0.00  0.00    +0.085 C 
ATOM     10  C   UNL     1      -2.802 -12.748  12.247  0.00  0.00    +0.028 C 
ENDROOT
BRANCH   7  15
ATOM      4  N   UNL     1      -3.017 -11.343  15.724  0.00  0.00    -0.330 N 
ATOM      5  N   UNL     1      -4.681 -12.321  14.622  0.00  0.00    -0.232 NA
ATOM     15  C   UNL     1      -3.499 -11.758  14.514  0.00  0.00    +0.115 A 
ATOM     17  C   UNL     1      -3.951 -11.659  16.677  0.00  0.00    +0.069 A 
ATOM     18  C   UNL     1      -4.980 -12.268  15.964  0.00  0.00    +0.089 A 
ATOM     19  C   UNL     1      -1.751 -10.687  15.961  0.00  0.00    +0.150 C 
ATOM     21  C   UNL     1      -3.983 -11.469  18.059  0.00  0.00    +0.028 A 
ATOM     22  C   UNL     1      -6.115 -12.722  16.656  0.00  0.00    +0.030 A 
ATOM     23  C   UNL     1      -5.121 -11.927  18.731  0.00  0.00    +0.002 A 
ATOM     24  C   UNL     1      -6.170 -12.543  18.044  0.00  0.00    +0.002 A 
ENDBRANCH   7  15
BRANCH   2   6
ATOM      1  O   UNL     1      -8.105  -8.045   9.174  0.00  0.00    -0.276 OA
ATOM      3  N   UNL     1      -6.011  -8.975   8.787  0.00  0.00    -0.302 N 
ATOM      6  C   UNL     1      -3.583  -9.900  10.063  0.00  0.00    +0.060 C 
ATOM     11  C   UNL     1      -4.331 -10.763   9.039  0.00  0.00    +0.038 C 
ATOM     12  C   UNL     1      -4.556  -8.951  10.776  0.00  0.00    +0.038 C 
ATOM     13  C   UNL     1      -5.123  -9.893   8.063  0.00  0.00    +0.109 C 
ATOM     14  C   UNL     1      -5.341  -8.117   9.766  0.00  0.00    +0.109 C 
ATOM     16  C   UNL     1      -7.384  -8.849   8.578  0.00  0.00    +0.212 C 
ATOM     20  C   UNL     1      -8.000  -9.771   7.556  0.00  0.00    +0.109 C 
ENDBRANCH   2   6
TORSDOF 2
ENDMDL
MODEL 4
REMARK VINA RESULT:      -6.4     20.136     21.686
REMARK  Name = 51137899
REMARK  4 active torsions:
REMARK  status: ('A' for Active; 'I' for Inactive)
REMARK    1  A    between atoms: N_2  and  C_6
REMARK    2  A    between atoms: N_4  and  C_19
REMARK    3  A    between atoms: C_7  and  C_15
REMARK    4  A    between atoms: C_16  and  C_20
REMARK                            x       y       z     vdW  Elec       q    Type
REMARK                         _______ _______ _______ _____ _____    ______ ____
ROOT
ATOM      2  N   UNL     1      -3.518 -11.543  16.551  0.00  0.00    -0.299 NA
ATOM      7  C   UNL     1      -3.030 -11.938  14.291  0.00  0.00    +0.070 C 
ATOM      8  C   UNL     1      -4.197 -11.720  15.265  0.00  0.00    +0.096 C 
ATOM      9  C   UNL     1      -2.379 -10.673  16.260  0.00  0.00    +0.085 C 
ATOM     10  C   UNL     1      -1.827 -11.259  14.967  0.00  0.00    +0.028 C 
ENDROOT
BRANCH   7  15
ATOM      4  N   UNL     1      -3.793 -12.289  11.915  0.00  0.00    -0.330 N 
ATOM      5  N   UNL     1      -3.195 -10.219  12.460  0.00  0.00    -0.232 NA
ATOM     15  C   UNL     1      -3.332 -11.452  12.892  0.00  0.00    +0.115 A 
ATOM     17  C   UNL     1      -3.966 -11.546  10.775  0.00  0.00    +0.069 A 
ATOM     18  C   UNL     1      -3.585 -10.258  11.141  0.00  0.00    +0.089 A 
ATOM     19  C   UNL     1      -4.056 -13.704  12.053  0.00  0.00    +0.150 C 
ATOM     21  C   UNL     1      -4.408 -11.880   9.495  0.00  0.00    +0.028 A 
ATOM     22  C   UNL     1      -3.642  -9.230  10.185  0.00  0.00    +0.030 A 
ATOM     23  C   UNL     1      -4.459 -10.844   8.556  0.00  0.00    +0.002 A 
ATOM     24  C   UNL     1      -4.084  -9.542   8.893  0.00  0.00    +0.002 A 
ENDBRANCH   7  15
BRANCH   2   6
ATOM      1  O   UNL     1      -8.417 -12.274  20.194  0.00  0.00    -0.276 OA
ATOM      3  N   UNL     1      -6.933 -10.968  18.973  0.00  0.00    -0.302 N 
ATOM      6  C   UNL     1      -4.399 -10.984  17.573  0.00  0.00    +0.060 C 
ATOM     11  C   UNL     1      -5.671 -10.425  16.924  0.00  0.00    +0.038 C 
ATOM     12  C   UNL     1      -4.753 -12.060  18.608  0.00  0.00    +0.038 C 
ATOM     13  C   UNL     1      -6.651  -9.921  17.983  0.00  0.00    +0.109 C 
ATOM     14  C   UNL     1      -5.750 -11.522  19.633  0.00  0.00    +0.109 C 
ATOM     16  C   UNL     1      -8.203 -11.416  19.333  0.00  0.00    +0.212 C 
ATOM     20  C   UNL     1      -9.370 -10.799  18.604  0.00  0.00    +0.109 C 
ENDBRANCH   2   6
TORSDOF 2
ENDMDL
MODEL 5
REMARK VINA RESULT:      -6.4     19.447     20.948
REMARK  Name = 51137899
REMARK  4 active torsions:
REMARK  status: ('A' for Active; 'I' for Inactive)
REMARK    1  A    between atoms: N_2  and  C_6
REMARK    2  A    between atoms: N_4  and  C_19
REMARK    3  A    between atoms: C_7  and  C_15
REMARK    4  A    between atoms: C_16  and  C_20
REMARK                            x       y       z     vdW  Elec       q    Type
REMARK                         _______ _______ _______ _____ _____    ______ ____
ROOT
ATOM      2  N   UNL     1      -4.503 -12.059  16.850  0.00  0.00    -0.299 NA
ATOM      7  C   UNL     1      -3.694 -11.550  14.708  0.00  0.00    +0.070 C 
ATOM      8  C   UNL     1      -4.935 -12.065  15.450  0.00  0.00    +0.096 C 
ATOM      9  C   UNL     1      -3.780 -10.798  17.016  0.00  0.00    +0.085 C 
ATOM     10  C   UNL     1      -2.925 -10.729  15.757  0.00  0.00    +0.028 C 
ENDROOT
BRANCH   7  15
ATOM      4  N   UNL     1      -3.155 -10.696  12.399  0.00  0.00    -0.330 N 
ATOM      5  N   UNL     1      -5.169 -10.188  13.189  0.00  0.00    -0.232 NA
ATOM     15  C   UNL     1      -4.034 -10.802  13.439  0.00  0.00    +0.115 A 
ATOM     17  C   UNL     1      -3.762  -9.964  11.411  0.00  0.00    +0.069 A 
ATOM     18  C   UNL     1      -5.017  -9.659  11.928  0.00  0.00    +0.089 A 
ATOM     19  C   UNL     1      -1.822 -11.254  12.344  0.00  0.00    +0.150 C 
ATOM     21  C   UNL     1      -3.333  -9.555  10.147  0.00  0.00    +0.028 A 
ATOM     22  C   UNL     1      -5.911  -8.901  11.154  0.00  0.00    +0.030 A 
ATOM     23  C   UNL     1      -4.236  -8.802   9.390  0.00  0.00    +0.002 A 
ATOM     24  C   UNL     1      -5.503  -8.480   9.882  0.00  0.00    +0.002 A 
ENDBRANCH   7  15
BRANCH   2   6
ATOM      1  O   UNL     1     -10.590 -12.164  17.710  0.00  0.00    -0.276 OA
ATOM      3  N   UNL     1      -8.415 -11.767  18.422  0.00  0.00    -0.302 N 
ATOM      6  C   UNL     1      -5.623 -12.185  17.779  0.00  0.00    +0.060 C 
ATOM     11  C   UNL     1      -6.164 -10.797  18.144  0.00  0.00    +0.038 C 
ATOM     12  C   UNL     1      -6.730 -13.044  17.154  0.00  0.00    +0.038 C 
ATOM     13  C   UNL     1      -7.398 -10.908  19.040  0.00  0.00    +0.109 C 
ATOM     14  C   UNL     1      -7.951 -13.110  18.070  0.00  0.00    +0.109 C 
ATOM     16  C   UNL     1      -9.744 -11.411  18.199  0.00  0.00    +0.212 C 
ATOM     20  C   UNL     1     -10.142 -10.009  18.585  0.00  0.00    +0.109 C 
ENDBRANCH   2   6
TORSDOF 2
ENDMDL
MODEL 6
REMARK VINA RESULT:      -6.2     29.635     32.917
REMARK  Name = 51137899
REMARK  4 active torsions:
REMARK  status: ('A' for Active; 'I' for Inactive)
REMARK    1  A    between atoms: N_2  and  C_6
REMARK    2  A    between atoms: N_4  and  C_19
REMARK    3  A    between atoms: C_7  and  C_15
REMARK    4  A    between atoms: C_16  and  C_20
REMARK                            x       y       z     vdW  Elec       q    Type
REMARK                         _______ _______ _______ _____ _____    ______ ____
ROOT
ATOM      2  N   UNL     1      17.212   7.657  21.307  0.00  0.00    -0.299 NA
ATOM      7  C   UNL     1      15.006   7.969  20.575  0.00  0.00    +0.070 C 
ATOM      8  C   UNL     1      16.400   8.611  20.547  0.00  0.00    +0.096 C 
ATOM      9  C   UNL     1      16.789   6.340  20.832  0.00  0.00    +0.085 C 
ATOM     10  C   UNL     1      15.272   6.468  20.783  0.00  0.00    +0.028 C 
ENDROOT
BRANCH   7  15
ATOM      4  N   UNL     1      12.832   8.080  19.304  0.00  0.00    -0.330 N 
ATOM      5  N   UNL     1      14.633   8.832  18.239  0.00  0.00    -0.232 NA
ATOM     15  C   UNL     1      14.179   8.305  19.355  0.00  0.00    +0.115 A 
ATOM     17  C   UNL     1      12.386   8.489  18.073  0.00  0.00    +0.069 A 
ATOM     18  C   UNL     1      13.528   8.954  17.428  0.00  0.00    +0.089 A 
ATOM     19  C   UNL     1      12.019   7.514  20.356  0.00  0.00    +0.150 C 
ATOM     21  C   UNL     1      11.119   8.493  17.488  0.00  0.00    +0.028 A 
ATOM     22  C   UNL     1      13.420   9.455  16.120  0.00  0.00    +0.030 A 
ATOM     23  C   UNL     1      11.030   8.995  16.186  0.00  0.00    +0.002 A 
ATOM     24  C   UNL     1      12.158   9.469  15.512  0.00  0.00    +0.002 A 
ENDBRANCH   7  15
BRANCH   2   6
ATOM      1  O   UNL     1      22.951   5.566  22.012  0.00  0.00    -0.276 OA
ATOM      3  N   UNL     1      21.389   7.275  21.827  0.00  0.00    -0.302 N 
ATOM      6  C   UNL     1      18.645   7.879  21.128  0.00  0.00    +0.060 C 
ATOM     11  C   UNL     1      19.268   8.377  22.438  0.00  0.00    +0.038 C 
ATOM     12  C   UNL     1      19.325   6.582  20.670  0.00  0.00    +0.038 C 
ATOM     13  C   UNL     1      20.784   8.525  22.303  0.00  0.00    +0.109 C 
ATOM     14  C   UNL     1      20.838   6.767  20.569  0.00  0.00    +0.109 C 
ATOM     16  C   UNL     1      22.435   6.597  22.451  0.00  0.00    +0.212 C 
ATOM     20  C   UNL     1      22.944   7.182  23.744  0.00  0.00    +0.109 C 
ENDBRANCH   2   6
TORSDOF 2
ENDMDL
MODEL 7
REMARK VINA RESULT:      -6.2     18.753     20.185
REMARK  Name = 51137899
REMARK  4 active torsions:
REMARK  status: ('A' for Active; 'I' for Inactive)
REMARK    1  A    between atoms: N_2  and  C_6
REMARK    2  A    between atoms: N_4  and  C_19
REMARK    3  A    between atoms: C_7  and  C_15
REMARK    4  A    between atoms: C_16  and  C_20
REMARK                            x       y       z     vdW  Elec       q    Type
REMARK                         _______ _______ _______ _____ _____    ______ ____
ROOT
ATOM      2  N   UNL     1      -6.369 -11.767  17.711  0.00  0.00    -0.299 NA
ATOM      7  C   UNL     1      -4.534 -11.431  16.287  0.00  0.00    +0.070 C 
ATOM      8  C   UNL     1      -5.918 -12.094  16.355  0.00  0.00    +0.096 C 
ATOM      9  C   UNL     1      -6.003 -10.364  17.901  0.00  0.00    +0.085 C 
ATOM     10  C   UNL     1      -4.594 -10.299  17.327  0.00  0.00    +0.028 C 
ENDROOT
BRANCH   7  15
ATOM      4  N   UNL     1      -2.862 -10.952  14.464  0.00  0.00    -0.330 N 
ATOM      5  N   UNL     1      -4.999 -10.610  13.953  0.00  0.00    -0.232 NA
ATOM     15  C   UNL     1      -4.160 -10.992  14.890  0.00  0.00    +0.115 A 
ATOM     17  C   UNL     1      -2.863 -10.516  13.163  0.00  0.00    +0.069 A 
ATOM     18  C   UNL     1      -4.208 -10.309  12.868  0.00  0.00    +0.089 A 
ATOM     19  C   UNL     1      -1.695 -11.307  15.239  0.00  0.00    +0.150 C 
ATOM     21  C   UNL     1      -1.834 -10.291  12.248  0.00  0.00    +0.028 A 
ATOM     22  C   UNL     1      -4.565  -9.851  11.590  0.00  0.00    +0.030 A 
ATOM     23  C   UNL     1      -2.209  -9.835  10.980  0.00  0.00    +0.002 A 
ATOM     24  C   UNL     1      -3.549  -9.618  10.654  0.00  0.00    +0.002 A 
ENDBRANCH   7  15
BRANCH   2   6
ATOM      1  O   UNL     1     -12.033  -9.411  18.126  0.00  0.00    -0.276 OA
ATOM      3  N   UNL     1     -10.434 -11.030  18.598  0.00  0.00    -0.302 N 
ATOM      6  C   UNL     1      -7.799 -12.000  17.892  0.00  0.00    +0.060 C 
ATOM     11  C   UNL     1      -8.194 -11.739  19.351  0.00  0.00    +0.038 C 
ATOM     12  C   UNL     1      -8.603 -11.095  16.949  0.00  0.00    +0.038 C 
ATOM     13  C   UNL     1      -9.704 -11.883  19.544  0.00  0.00    +0.109 C 
ATOM     14  C   UNL     1     -10.103 -11.253  17.190  0.00  0.00    +0.109 C 
ATOM     16  C   UNL     1     -11.407 -10.092  18.943  0.00  0.00    +0.212 C 
ATOM     20  C   UNL     1     -11.687  -9.919  20.414  0.00  0.00    +0.109 C 
ENDBRANCH   2   6
TORSDOF 2
ENDMDL
MODEL 8
REMARK VINA RESULT:      -6.2     18.639     20.840
REMARK  Name = 51137899
REMARK  4 active torsions:
REMARK  status: ('A' for Active; 'I' for Inactive)
REMARK    1  A    between atoms: N_2  and  C_6
REMARK    2  A    between atoms: N_4  and  C_19
REMARK    3  A    between atoms: C_7  and  C_15
REMARK    4  A    between atoms: C_16  and  C_20
REMARK                            x       y       z     vdW  Elec       q    Type
REMARK                         _______ _______ _______ _____ _____    ______ ____
ROOT
ATOM      2  N   UNL     1      -4.218 -11.037  17.303  0.00  0.00    -0.299 NA
ATOM      7  C   UNL     1      -6.020 -10.459  18.689  0.00  0.00    +0.070 C 
ATOM      8  C   UNL     1      -5.612 -10.593  17.215  0.00  0.00    +0.096 C 
ATOM      9  C   UNL     1      -4.210 -12.045  18.362  0.00  0.00    +0.085 C 
ATOM     10  C   UNL     1      -5.074 -11.409  19.443  0.00  0.00    +0.028 C 
ENDROOT
BRANCH   7  15
ATOM      4  N   UNL     1      -8.462 -10.033  18.237  0.00  0.00    -0.330 N 
ATOM      5  N   UNL     1      -8.000 -11.581  19.765  0.00  0.00    -0.232 NA
ATOM     15  C   UNL     1      -7.492 -10.713  18.919  0.00  0.00    +0.115 A 
ATOM     17  C   UNL     1      -9.679 -10.494  18.672  0.00  0.00    +0.069 A 
ATOM     18  C   UNL     1      -9.363 -11.458  19.625  0.00  0.00    +0.089 A 
ATOM     19  C   UNL     1      -8.250  -9.013  17.236  0.00  0.00    +0.150 C 
ATOM     21  C   UNL     1     -10.988 -10.158  18.324  0.00  0.00    +0.028 A 
ATOM     22  C   UNL     1     -10.403 -12.138  20.280  0.00  0.00    +0.030 A 
ATOM     23  C   UNL     1     -12.010 -10.846  18.987  0.00  0.00    +0.002 A 
ATOM     24  C   UNL     1     -11.726 -11.819  19.947  0.00  0.00    +0.002 A 
ENDBRANCH   7  15
BRANCH   2   6
ATOM      1  O   UNL     1      -1.388  -9.944  11.955  0.00  0.00    -0.276 OA
ATOM      3  N   UNL     1      -2.865 -11.130  13.301  0.00  0.00    -0.302 N 
ATOM      6  C   UNL     1      -3.720 -11.560  16.033  0.00  0.00    +0.060 C 
ATOM     11  C   UNL     1      -4.727 -11.270  14.913  0.00  0.00    +0.038 C 
ATOM     12  C   UNL     1      -2.358 -10.934  15.705  0.00  0.00    +0.038 C 
ATOM     13  C   UNL     1      -4.184 -11.722  13.557  0.00  0.00    +0.109 C 
ATOM     14  C   UNL     1      -1.863 -11.393  14.335  0.00  0.00    +0.109 C 
ATOM     16  C   UNL     1      -2.514 -10.402  12.164  0.00  0.00    +0.212 C 
ATOM     20  C   UNL     1      -3.603 -10.171  11.148  0.00  0.00    +0.109 C 
ENDBRANCH   2   6
TORSDOF 2
ENDMDL
MODEL 9
REMARK VINA RESULT:      -6.2     30.439     33.527
REMARK  Name = 51137899
REMARK  4 active torsions:
REMARK  status: ('A' for Active; 'I' for Inactive)
REMARK    1  A    between atoms: N_2  and  C_6
REMARK    2  A    between atoms: N_4  and  C_19
REMARK    3  A    between atoms: C_7  and  C_15
REMARK    4  A    between atoms: C_16  and  C_20
REMARK                            x       y       z     vdW  Elec       q    Type
REMARK                         _______ _______ _______ _____ _____    ______ ____
ROOT
ATOM      2  N   UNL     1      14.325   7.324  19.549  0.00  0.00    -0.299 NA
ATOM      7  C   UNL     1      16.324   6.621  20.556  0.00  0.00    +0.070 C 
ATOM      8  C   UNL     1      15.755   7.199  19.252  0.00  0.00    +0.096 C 
ATOM      9  C   UNL     1      14.268   7.866  20.906  0.00  0.00    +0.085 C 
ATOM     10  C   UNL     1      15.324   7.051  21.642  0.00  0.00    +0.028 C 
ENDROOT
BRANCH   7  15
ATOM      4  N   UNL     1      18.816   6.295  20.371  0.00  0.00    -0.330 N 
ATOM      5  N   UNL     1      18.141   8.115  21.453  0.00  0.00    -0.232 NA
ATOM     15  C   UNL     1      17.755   7.037  20.809  0.00  0.00    +0.115 A 
ATOM     17  C   UNL     1      19.964   6.938  20.758  0.00  0.00    +0.069 A 
ATOM     18  C   UNL     1      19.516   8.071  21.431  0.00  0.00    +0.089 A 
ATOM     19  C   UNL     1      18.747   5.055  19.631  0.00  0.00    +0.150 C 
ATOM     21  C   UNL     1      21.315   6.635  20.583  0.00  0.00    +0.028 A 
ATOM     22  C   UNL     1      20.457   8.965  21.969  0.00  0.00    +0.030 A 
ATOM     23  C   UNL     1      22.237   7.536  21.124  0.00  0.00    +0.002 A 
ATOM     24  C   UNL     1      21.819   8.681  21.804  0.00  0.00    +0.002 A 
ENDBRANCH   7  15
BRANCH   2   6
ATOM      1  O   UNL     1      14.582  10.689  14.410  0.00  0.00    -0.276 OA
ATOM      3  N   UNL     1      13.685  10.166  16.488  0.00  0.00    -0.302 N 
ATOM      6  C   UNL     1      13.628   8.169  18.582  0.00  0.00    +0.060 C 
ATOM     11  C   UNL     1      13.888   9.648  18.891  0.00  0.00    +0.038 C 
ATOM     12  C   UNL     1      14.089   7.829  17.159  0.00  0.00    +0.038 C 
ATOM     13  C   UNL     1      13.246  10.549  17.836  0.00  0.00    +0.109 C 
ATOM     14  C   UNL     1      13.443   8.765  16.140  0.00  0.00    +0.109 C 
ATOM     16  C   UNL     1      14.254  11.027  15.550  0.00  0.00    +0.212 C 
ATOM     20  C   UNL     1      14.474  12.453  15.987  0.00  0.00    +0.109 C 
ENDBRANCH   2   6
TORSDOF 2
ENDMDL
MODEL 10
REMARK VINA RESULT:      -6.2     15.937     18.035
REMARK  Name = 51137899
REMARK  4 active torsions:
REMARK  status: ('A' for Active; 'I' for Inactive)
REMARK    1  A    between atoms: N_2  and  C_6
REMARK    2  A    between atoms: N_4  and  C_19
REMARK    3  A    between atoms: C_7  and  C_15
REMARK    4  A    between atoms: C_16  and  C_20
REMARK                            x       y       z     vdW  Elec       q    Type
REMARK                         _______ _______ _______ _____ _____    ______ ____
ROOT
ATOM      2  N   UNL     1     -11.349  -8.108  15.691  0.00  0.00    -0.299 NA
ATOM      7  C   UNL     1      -9.912  -9.487  16.929  0.00  0.00    +0.070 C 
ATOM      8  C   UNL     1     -10.258  -9.065  15.494  0.00  0.00    +0.096 C 
ATOM      9  C   UNL     1     -10.928  -7.284  16.823  0.00  0.00    +0.085 C 
ATOM     10  C   UNL     1     -10.376  -8.310  17.804  0.00  0.00    +0.028 C 
ENDROOT
BRANCH   7  15
ATOM      4  N   UNL     1      -8.021 -10.622  18.149  0.00  0.00    -0.330 N 
ATOM      5  N   UNL     1      -7.479  -9.540  16.285  0.00  0.00    -0.232 NA
ATOM     15  C   UNL     1      -8.459  -9.870  17.096  0.00  0.00    +0.115 A 
ATOM     17  C   UNL     1      -6.667 -10.791  18.008  0.00  0.00    +0.069 A 
ATOM     18  C   UNL     1      -6.353 -10.106  16.838  0.00  0.00    +0.089 A 
ATOM     19  C   UNL     1      -8.835 -11.151  19.220  0.00  0.00    +0.150 C 
ATOM     21  C   UNL     1      -5.720 -11.462  18.781  0.00  0.00    +0.028 A 
ATOM     22  C   UNL     1      -5.019 -10.078  16.398  0.00  0.00    +0.030 A 
ATOM     23  C   UNL     1      -4.397 -11.425  18.328  0.00  0.00    +0.002 A 
ATOM     24  C   UNL     1      -4.050 -10.746  17.158  0.00  0.00    +0.002 A 
ENDBRANCH   7  15
BRANCH   2   6
ATOM      1  O   UNL     1     -14.302  -3.369  13.117  0.00  0.00    -0.276 OA
ATOM      3  N   UNL     1     -13.287  -5.457  13.031  0.00  0.00    -0.302 N 
ATOM      6  C   UNL     1     -11.617  -7.314  14.494  0.00  0.00    +0.060 C 
ATOM     11  C   UNL     1     -12.939  -7.756  13.854  0.00  0.00    +0.038 C 
ATOM     12  C   UNL     1     -11.666  -5.823  14.851  0.00  0.00    +0.038 C 
ATOM     13  C   UNL     1     -13.288  -6.876  12.654  0.00  0.00    +0.109 C 
ATOM     14  C   UNL     1     -12.039  -4.983  13.632  0.00  0.00    +0.109 C 
ATOM     16  C   UNL     1     -14.340  -4.567  12.823  0.00  0.00    +0.212 C 
ATOM     20  C   UNL     1     -15.592  -5.133  12.203  0.00  0.00    +0.109 C 
ENDBRANCH   2   6
TORSDOF 2
ENDMDL
