MODEL 1
REMARK VINA RESULT:      -7.0      0.000      0.000
REMARK  Name = 25390222
REMARK  11 active torsions:
REMARK  status: ('A' for Active; 'I' for Inactive)
REMARK    1  A    between atoms: O_2  and  C_8
REMARK    2  A    between atoms: O_3  and  C_10
REMARK    3  A    between atoms: N_6  and  C_13
REMARK    4  A    between atoms: N_7  and  C_16
REMARK    5  A    between atoms: N_7  and  C_17
REMARK    6  A    between atoms: C_9  and  C_12
REMARK    7  A    between atoms: C_11  and  C_13
REMARK    8  A    between atoms: C_12  and  C_14
REMARK    9  A    between atoms: C_15  and  C_18
REMARK   10  A    between atoms: C_16  and  C_19
REMARK   11  A    between atoms: C_26  and  C_30
REMARK                            x       y       z     vdW  Elec       q    Type
REMARK                         _______ _______ _______ _____ _____    ______ ____
ROOT
ATOM      1  O   UNL     1      12.792  10.348  17.804  0.00  0.00    -0.366 OA
ATOM      8  C   UNL     1      14.119  10.571  15.842  0.00  0.00    +0.175 C 
ATOM      9  C   UNL     1      13.664  11.274  17.116  0.00  0.00    +0.159 C 
ATOM     10  C   UNL     1      14.067   9.113  16.251  0.00  0.00    +0.176 C 
ATOM     11  C   UNL     1      12.819   9.085  17.117  0.00  0.00    +0.167 C 
ENDROOT
BRANCH   8   2
ATOM      2  O   UNL     1      13.156  10.834  14.822  0.00  0.00    -0.387 OA
ATOM     31  H   UNL     1      13.469  11.605  14.319  0.00  0.00    +0.210 HD
ENDBRANCH   8   2
BRANCH  10   3
ATOM      3  O   UNL     1      13.972   8.228  15.155  0.00  0.00    -0.387 OA
ATOM     32  H   UNL     1      14.663   8.478  14.519  0.00  0.00    +0.210 HD
ENDBRANCH  10   3
BRANCH   9  12
ATOM     12  C   UNL     1      14.815  11.614  18.053  0.00  0.00    +0.130 C 
BRANCH  12  14
ATOM      4  O   UNL     1      13.471  12.805  19.639  0.00  0.00    -0.276 OA
ATOM      7  N   UNL     1      14.965  11.256  20.504  0.00  0.00    -0.300 N 
ATOM     14  C   UNL     1      14.348  11.955  19.461  0.00  0.00    +0.218 C 
ATOM     17  C   UNL     1      15.999  10.256  20.271  0.00  0.00    +0.132 C 
BRANCH   7  16
ATOM     16  C   UNL     1      14.620  11.477  21.906  0.00  0.00    +0.142 C 
BRANCH  16  19
ATOM     19  C   UNL     1      13.287  10.882  22.258  0.00  0.00    -0.030 A 
ATOM     22  C   UNL     1      12.993   9.568  21.896  0.00  0.00    +0.005 A 
ATOM     23  C   UNL     1      12.344  11.644  22.946  0.00  0.00    +0.005 A 
ATOM     27  C   UNL     1      11.754   9.015  22.222  0.00  0.00    +0.000 A 
ATOM     28  C   UNL     1      11.106  11.092  23.272  0.00  0.00    +0.000 A 
ATOM     29  C   UNL     1      10.810   9.777  22.911  0.00  0.00    +0.000 A 
ENDBRANCH  16  19
ENDBRANCH   7  16
ENDBRANCH  12  14
ENDBRANCH   9  12
BRANCH  11  13
ATOM     13  C   UNL     1      12.814   7.952  18.129  0.00  0.00    +0.138 C 
BRANCH  13   6
ATOM      5  O   UNL     1      13.613   6.498  20.472  0.00  0.00    -0.270 OA
ATOM      6  N   UNL     1      14.148   7.573  18.487  0.00  0.00    -0.309 N 
ATOM     15  C   UNL     1      14.447   6.864  19.647  0.00  0.00    +0.244 C 
ATOM     33  H   UNL     1      14.881   7.795  17.820  0.00  0.00    +0.149 HD
BRANCH  15  18
ATOM     18  C   UNL     1      15.882   6.570  19.887  0.00  0.00    +0.037 A 
ATOM     20  C   UNL     1      16.465   6.890  21.113  0.00  0.00    +0.013 A 
ATOM     21  C   UNL     1      16.648   5.970  18.887  0.00  0.00    +0.013 A 
ATOM     24  C   UNL     1      17.814   6.613  21.338  0.00  0.00    +0.004 A 
ATOM     25  C   UNL     1      17.996   5.694  19.112  0.00  0.00    +0.004 A 
ATOM     26  C   UNL     1      18.579   6.015  20.338  0.00  0.00    -0.050 A 
ATOM     30  C   UNL     1      20.021   5.720  20.579  0.00  0.00    +0.044 C 
ENDBRANCH  15  18
ENDBRANCH  13   6
ENDBRANCH  11  13
TORSDOF 9
ENDMDL
MODEL 2
REMARK VINA RESULT:      -6.9      2.552      3.911
REMARK  Name = 25390222
REMARK  11 active torsions:
REMARK  status: ('A' for Active; 'I' for Inactive)
REMARK    1  A    between atoms: O_2  and  C_8
REMARK    2  A    between atoms: O_3  and  C_10
REMARK    3  A    between atoms: N_6  and  C_13
REMARK    4  A    between atoms: N_7  and  C_16
REMARK    5  A    between atoms: N_7  and  C_17
REMARK    6  A    between atoms: C_9  and  C_12
REMARK    7  A    between atoms: C_11  and  C_13
REMARK    8  A    between atoms: C_12  and  C_14
REMARK    9  A    between atoms: C_15  and  C_18
REMARK   10  A    between atoms: C_16  and  C_19
REMARK   11  A    between atoms: C_26  and  C_30
REMARK                            x       y       z     vdW  Elec       q    Type
REMARK                         _______ _______ _______ _____ _____    ______ ____
ROOT
ATOM      1  O   UNL     1      12.695   7.790  21.980  0.00  0.00    -0.366 OA
ATOM      8  C   UNL     1      11.297   9.629  21.413  0.00  0.00    +0.175 C 
ATOM      9  C   UNL     1      12.468   9.185  22.283  0.00  0.00    +0.159 C 
ATOM     10  C   UNL     1      11.426   8.708  20.218  0.00  0.00    +0.176 C 
ATOM     11  C   UNL     1      11.852   7.408  20.879  0.00  0.00    +0.167 C 
ENDROOT
BRANCH   8   2
ATOM      2  O   UNL     1      10.089   9.354  22.122  0.00  0.00    -0.387 OA
ATOM     31  H   UNL     1      10.089   9.908  22.921  0.00  0.00    +0.210 HD
ENDBRANCH   8   2
BRANCH  10   3
ATOM      3  O   UNL     1      10.224   8.564  19.491  0.00  0.00    -0.387 OA
ATOM     32  H   UNL     1       9.802   7.741  19.786  0.00  0.00    +0.210 HD
ENDBRANCH  10   3
BRANCH   9  12
ATOM     12  C   UNL     1      13.754   9.942  21.983  0.00  0.00    +0.130 C 
BRANCH  12  14
ATOM      4  O   UNL     1      13.366  11.802  20.522  0.00  0.00    -0.276 OA
ATOM      7  N   UNL     1      13.479  12.273  22.790  0.00  0.00    -0.300 N 
ATOM     14  C   UNL     1      13.516  11.416  21.685  0.00  0.00    +0.218 C 
ATOM     17  C   UNL     1      13.658  11.796  24.156  0.00  0.00    +0.132 C 
BRANCH   7  16
ATOM     16  C   UNL     1      13.259  13.711  22.659  0.00  0.00    +0.142 C 
BRANCH  16  19
ATOM     19  C   UNL     1      11.806  14.072  22.787  0.00  0.00    -0.030 A 
ATOM     22  C   UNL     1      11.271  14.371  24.039  0.00  0.00    +0.005 A 
ATOM     23  C   UNL     1      10.995  14.108  21.654  0.00  0.00    +0.005 A 
ATOM     27  C   UNL     1       9.921  14.706  24.158  0.00  0.00    +0.000 A 
ATOM     28  C   UNL     1       9.647  14.442  21.773  0.00  0.00    +0.000 A 
ATOM     29  C   UNL     1       9.109  14.742  23.025  0.00  0.00    +0.000 A 
ENDBRANCH  16  19
ENDBRANCH   7  16
ENDBRANCH  12  14
ENDBRANCH   9  12
BRANCH  11  13
ATOM     13  C   UNL     1      12.614   6.481  19.949  0.00  0.00    +0.138 C 
BRANCH  13   6
ATOM      5  O   UNL     1      14.767   7.472  18.329  0.00  0.00    -0.270 OA
ATOM      6  N   UNL     1      14.010   6.456  20.273  0.00  0.00    -0.309 N 
ATOM     15  C   UNL     1      14.991   6.963  19.425  0.00  0.00    +0.244 C 
ATOM     33  H   UNL     1      14.260   6.099  21.189  0.00  0.00    +0.149 HD
BRANCH  15  18
ATOM     18  C   UNL     1      16.394   6.838  19.894  0.00  0.00    +0.037 A 
ATOM     20  C   UNL     1      16.857   7.647  20.932  0.00  0.00    +0.013 A 
ATOM     21  C   UNL     1      17.249   5.912  19.298  0.00  0.00    +0.013 A 
ATOM     24  C   UNL     1      18.175   7.530  21.373  0.00  0.00    +0.004 A 
ATOM     25  C   UNL     1      18.568   5.795  19.738  0.00  0.00    +0.004 A 
ATOM     26  C   UNL     1      19.031   6.604  20.776  0.00  0.00    -0.050 A 
ATOM     30  C   UNL     1      20.440   6.480  21.247  0.00  0.00    +0.044 C 
ENDBRANCH  15  18
ENDBRANCH  13   6
ENDBRANCH  11  13
TORSDOF 9
ENDMDL
MODEL 3
REMARK VINA RESULT:      -6.8      2.874      8.197
REMARK  Name = 25390222
REMARK  11 active torsions:
REMARK  status: ('A' for Active; 'I' for Inactive)
REMARK    1  A    between atoms: O_2  and  C_8
REMARK    2  A    between atoms: O_3  and  C_10
REMARK    3  A    between atoms: N_6  and  C_13
REMARK    4  A    between atoms: N_7  and  C_16
REMARK    5  A    between atoms: N_7  and  C_17
REMARK    6  A    between atoms: C_9  and  C_12
REMARK    7  A    between atoms: C_11  and  C_13
REMARK    8  A    between atoms: C_12  and  C_14
REMARK    9  A    between atoms: C_15  and  C_18
REMARK   10  A    between atoms: C_16  and  C_19
REMARK   11  A    between atoms: C_26  and  C_30
REMARK                            x       y       z     vdW  Elec       q    Type
REMARK                         _______ _______ _______ _____ _____    ______ ____
ROOT
ATOM      1  O   UNL     1      14.990   8.432  20.904  0.00  0.00    -0.366 OA
ATOM      8  C   UNL     1      14.845   7.082  18.951  0.00  0.00    +0.175 C 
ATOM      9  C   UNL     1      15.803   7.677  19.977  0.00  0.00    +0.159 C 
ATOM     10  C   UNL     1      13.570   6.941  19.756  0.00  0.00    +0.176 C 
ATOM     11  C   UNL     1      13.603   8.202  20.603  0.00  0.00    +0.167 C 
ENDROOT
BRANCH   8   2
ATOM      2  O   UNL     1      14.668   8.036  17.905  0.00  0.00    -0.387 OA
ATOM     31  H   UNL     1      14.190   8.794  18.282  0.00  0.00    +0.210 HD
ENDBRANCH   8   2
BRANCH  10   3
ATOM      3  O   UNL     1      12.409   6.870  18.955  0.00  0.00    -0.387 OA
ATOM     32  H   UNL     1      11.662   6.667  19.543  0.00  0.00    +0.210 HD
ENDBRANCH  10   3
BRANCH   9  12
ATOM     12  C   UNL     1      16.557   6.620  20.772  0.00  0.00    +0.130 C 
BRANCH  12  14
ATOM      4  O   UNL     1      18.116   5.640  19.239  0.00  0.00    -0.276 OA
ATOM      7  N   UNL     1      19.009   6.973  20.913  0.00  0.00    -0.300 N 
ATOM     14  C   UNL     1      17.955   6.358  20.229  0.00  0.00    +0.218 C 
ATOM     17  C   UNL     1      18.797   7.818  22.081  0.00  0.00    +0.132 C 
BRANCH   7  16
ATOM     16  C   UNL     1      20.404   6.814  20.508  0.00  0.00    +0.142 C 
BRANCH  16  19
ATOM     19  C   UNL     1      21.057   5.645  21.187  0.00  0.00    -0.030 A 
ATOM     22  C   UNL     1      21.047   4.390  20.579  0.00  0.00    +0.005 A 
ATOM     23  C   UNL     1      21.674   5.815  22.427  0.00  0.00    +0.005 A 
ATOM     27  C   UNL     1      21.655   3.303  21.210  0.00  0.00    +0.000 A 
ATOM     28  C   UNL     1      22.280   4.729  23.057  0.00  0.00    +0.000 A 
ATOM     29  C   UNL     1      22.271   3.474  22.450  0.00  0.00    +0.000 A 
ENDBRANCH  16  19
ENDBRANCH   7  16
ENDBRANCH  12  14
ENDBRANCH   9  12
BRANCH  11  13
ATOM     13  C   UNL     1      12.812   8.081  21.893  0.00  0.00    +0.138 C 
BRANCH  13   6
ATOM      5  O   UNL     1      10.195   9.137  22.424  0.00  0.00    -0.270 OA
ATOM      6  N   UNL     1      12.503   9.372  22.433  0.00  0.00    -0.309 N 
ATOM     15  C   UNL     1      11.200   9.804  22.660  0.00  0.00    +0.244 C 
ATOM     33  H   UNL     1      13.289   9.955  22.703  0.00  0.00    +0.149 HD
BRANCH  15  18
ATOM     18  C   UNL     1      11.047  11.179  23.199  0.00  0.00    +0.037 A 
ATOM     20  C   UNL     1      10.912  11.380  24.573  0.00  0.00    +0.013 A 
ATOM     21  C   UNL     1      11.040  12.272  22.332  0.00  0.00    +0.013 A 
ATOM     24  C   UNL     1      10.768  12.671  25.079  0.00  0.00    +0.004 A 
ATOM     25  C   UNL     1      10.896  13.564  22.838  0.00  0.00    +0.004 A 
ATOM     26  C   UNL     1      10.761  13.763  24.212  0.00  0.00    -0.050 A 
ATOM     30  C   UNL     1      10.606  15.145  24.754  0.00  0.00    +0.044 C 
ENDBRANCH  15  18
ENDBRANCH  13   6
ENDBRANCH  11  13
TORSDOF 9
ENDMDL
MODEL 4
REMARK VINA RESULT:      -6.7     28.045     31.302
REMARK  Name = 25390222
REMARK  11 active torsions:
REMARK  status: ('A' for Active; 'I' for Inactive)
REMARK    1  A    between atoms: O_2  and  C_8
REMARK    2  A    between atoms: O_3  and  C_10
REMARK    3  A    between atoms: N_6  and  C_13
REMARK    4  A    between atoms: N_7  and  C_16
REMARK    5  A    between atoms: N_7  and  C_17
REMARK    6  A    between atoms: C_9  and  C_12
REMARK    7  A    between atoms: C_11  and  C_13
REMARK    8  A    between atoms: C_12  and  C_14
REMARK    9  A    between atoms: C_15  and  C_18
REMARK   10  A    between atoms: C_16  and  C_19
REMARK   11  A    between atoms: C_26  and  C_30
REMARK                            x       y       z     vdW  Elec       q    Type
REMARK                         _______ _______ _______ _____ _____    ______ ____
ROOT
ATOM      1  O   UNL     1     -16.097   2.927  24.738  0.00  0.00    -0.366 OA
ATOM      8  C   UNL     1     -17.811   2.599  23.122  0.00  0.00    +0.175 C 
ATOM      9  C   UNL     1     -17.399   2.324  24.564  0.00  0.00    +0.159 C 
ATOM     10  C   UNL     1     -17.084   3.895  22.828  0.00  0.00    +0.176 C 
ATOM     11  C   UNL     1     -15.768   3.678  23.556  0.00  0.00    +0.167 C 
ENDROOT
BRANCH   8   2
ATOM      2  O   UNL     1     -17.297   1.546  22.306  0.00  0.00    -0.387 OA
ATOM     31  H   UNL     1     -17.158   0.775  22.882  0.00  0.00    +0.210 HD
ENDBRANCH   8   2
BRANCH  10   3
ATOM      3  O   UNL     1     -16.895   4.129  21.449  0.00  0.00    -0.387 OA
ATOM     32  H   UNL     1     -17.725   3.901  20.998  0.00  0.00    +0.210 HD
ENDBRANCH  10   3
BRANCH   9  12
ATOM     12  C   UNL     1     -18.342   2.951  25.583  0.00  0.00    +0.130 C 
BRANCH  12  14
ATOM      4  O   UNL     1     -18.476   1.133  27.138  0.00  0.00    -0.276 OA
ATOM      7  N   UNL     1     -17.794   3.178  27.993  0.00  0.00    -0.300 N 
ATOM     14  C   UNL     1     -18.215   2.327  26.966  0.00  0.00    +0.218 C 
ATOM     17  C   UNL     1     -17.491   4.585  27.767  0.00  0.00    +0.132 C 
BRANCH   7  16
ATOM     16  C   UNL     1     -17.627   2.720  29.370  0.00  0.00    +0.142 C 
BRANCH  16  19
ATOM     19  C   UNL     1     -16.251   2.171  29.617  0.00  0.00    -0.030 A 
ATOM     22  C   UNL     1     -15.207   3.033  29.953  0.00  0.00    +0.005 A 
ATOM     23  C   UNL     1     -16.018   0.801  29.511  0.00  0.00    +0.005 A 
ATOM     27  C   UNL     1     -13.928   2.523  30.183  0.00  0.00    +0.000 A 
ATOM     28  C   UNL     1     -14.740   0.292  29.740  0.00  0.00    +0.000 A 
ATOM     29  C   UNL     1     -13.695   1.153  30.077  0.00  0.00    +0.000 A 
ENDBRANCH  16  19
ENDBRANCH   7  16
ENDBRANCH  12  14
ENDBRANCH   9  12
BRANCH  11  13
ATOM     13  C   UNL     1     -15.076   4.971  23.948  0.00  0.00    +0.138 C 
BRANCH  13   6
ATOM      5  O   UNL     1     -15.758   7.077  22.120  0.00  0.00    -0.270 OA
ATOM      6  N   UNL     1     -14.266   5.470  22.876  0.00  0.00    -0.309 N 
ATOM     15  C   UNL     1     -14.677   6.499  22.034  0.00  0.00    +0.244 C 
ATOM     33  H   UNL     1     -13.336   5.074  22.784  0.00  0.00    +0.149 HD
BRANCH  15  18
ATOM     18  C   UNL     1     -13.733   6.883  20.955  0.00  0.00    +0.037 A 
ATOM     20  C   UNL     1     -12.368   6.635  21.100  0.00  0.00    +0.013 A 
ATOM     21  C   UNL     1     -14.211   7.491  19.794  0.00  0.00    +0.013 A 
ATOM     24  C   UNL     1     -11.481   6.995  20.085  0.00  0.00    +0.004 A 
ATOM     25  C   UNL     1     -13.324   7.852  18.779  0.00  0.00    +0.004 A 
ATOM     26  C   UNL     1     -11.959   7.604  18.925  0.00  0.00    -0.050 A 
ATOM     30  C   UNL     1     -11.010   7.990  17.841  0.00  0.00    +0.044 C 
ENDBRANCH  15  18
ENDBRANCH  13   6
ENDBRANCH  11  13
TORSDOF 9
ENDMDL
MODEL 5
REMARK VINA RESULT:      -6.6     26.614     28.950
REMARK  Name = 25390222
REMARK  11 active torsions:
REMARK  status: ('A' for Active; 'I' for Inactive)
REMARK    1  A    between atoms: O_2  and  C_8
REMARK    2  A    between atoms: O_3  and  C_10
REMARK    3  A    between atoms: N_6  and  C_13
REMARK    4  A    between atoms: N_7  and  C_16
REMARK    5  A    between atoms: N_7  and  C_17
REMARK    6  A    between atoms: C_9  and  C_12
REMARK    7  A    between atoms: C_11  and  C_13
REMARK    8  A    between atoms: C_12  and  C_14
REMARK    9  A    between atoms: C_15  and  C_18
REMARK   10  A    between atoms: C_16  and  C_19
REMARK   11  A    between atoms: C_26  and  C_30
REMARK                            x       y       z     vdW  Elec       q    Type
REMARK                         _______ _______ _______ _____ _____    ______ ____
ROOT
ATOM      1  O   UNL     1      -3.495 -10.060  16.689  0.00  0.00    -0.366 OA
ATOM      8  C   UNL     1      -4.840 -12.001  16.406  0.00  0.00    +0.175 C 
ATOM      9  C   UNL     1      -4.843 -10.551  16.875  0.00  0.00    +0.159 C 
ATOM     10  C   UNL     1      -3.743 -11.993  15.362  0.00  0.00    +0.176 C 
ATOM     11  C   UNL     1      -2.726 -11.058  15.996  0.00  0.00    +0.167 C 
ENDROOT
BRANCH   8   2
ATOM      2  O   UNL     1      -4.467 -12.823  17.511  0.00  0.00    -0.387 OA
ATOM     31  H   UNL     1      -5.016 -12.558  18.269  0.00  0.00    +0.210 HD
ENDBRANCH   8   2
BRANCH  10   3
ATOM      3  O   UNL     1      -3.201 -13.273  15.110  0.00  0.00    -0.387 OA
ATOM     32  H   UNL     1      -3.946 -13.889  15.009  0.00  0.00    +0.210 HD
ENDBRANCH  10   3
BRANCH   9  12
ATOM     12  C   UNL     1      -5.777  -9.663  16.064  0.00  0.00    +0.130 C 
BRANCH  12  14
ATOM      4  O   UNL     1      -7.403  -9.504  17.817  0.00  0.00    -0.276 OA
ATOM      7  N   UNL     1      -8.223  -9.811  15.669  0.00  0.00    -0.300 N 
ATOM     14  C   UNL     1      -7.199  -9.651  16.609  0.00  0.00    +0.218 C 
ATOM     17  C   UNL     1      -7.959  -9.983  14.247  0.00  0.00    +0.132 C 
BRANCH   7  16
ATOM     16  C   UNL     1      -9.635  -9.819  16.044  0.00  0.00    +0.142 C 
BRANCH  16  19
ATOM     19  C   UNL     1     -10.341  -8.569  15.603  0.00  0.00    -0.030 A 
ATOM     22  C   UNL     1     -10.047  -7.350  16.213  0.00  0.00    +0.005 A 
ATOM     23  C   UNL     1     -11.290  -8.628  14.583  0.00  0.00    +0.005 A 
ATOM     27  C   UNL     1     -10.703  -6.189  15.803  0.00  0.00    +0.000 A 
ATOM     28  C   UNL     1     -11.946  -7.467  14.173  0.00  0.00    +0.000 A 
ATOM     29  C   UNL     1     -11.652  -6.248  14.783  0.00  0.00    +0.000 A 
ENDBRANCH  16  19
ENDBRANCH   7  16
ENDBRANCH  12  14
ENDBRANCH   9  12
BRANCH  11  13
ATOM     13  C   UNL     1      -1.811 -10.389  14.986  0.00  0.00    +0.138 C 
BRANCH  13   6
ATOM      5  O   UNL     1      -1.472 -12.073  12.686  0.00  0.00    -0.270 OA
ATOM      6  N   UNL     1      -2.460 -10.244  13.717  0.00  0.00    -0.309 N 
ATOM     15  C   UNL     1      -2.236 -11.111  12.651  0.00  0.00    +0.244 C 
ATOM     33  H   UNL     1      -3.147  -9.502  13.637  0.00  0.00    +0.149 HD
BRANCH  15  18
ATOM     18  C   UNL     1      -2.966 -10.810  11.394  0.00  0.00    +0.037 A 
ATOM     20  C   UNL     1      -3.700 -11.810  10.756  0.00  0.00    +0.013 A 
ATOM     21  C   UNL     1      -2.920  -9.526  10.851  0.00  0.00    +0.013 A 
ATOM     24  C   UNL     1      -4.386 -11.527   9.575  0.00  0.00    +0.004 A 
ATOM     25  C   UNL     1      -3.606  -9.242   9.670  0.00  0.00    +0.004 A 
ATOM     26  C   UNL     1      -4.339 -10.243   9.032  0.00  0.00    -0.050 A 
ATOM     30  C   UNL     1      -5.072  -9.940   7.768  0.00  0.00    +0.044 C 
ENDBRANCH  15  18
ENDBRANCH  13   6
ENDBRANCH  11  13
TORSDOF 9
ENDMDL
MODEL 6
REMARK VINA RESULT:      -6.5     26.496     29.240
REMARK  Name = 25390222
REMARK  11 active torsions:
REMARK  status: ('A' for Active; 'I' for Inactive)
REMARK    1  A    between atoms: O_2  and  C_8
REMARK    2  A    between atoms: O_3  and  C_10
REMARK    3  A    between atoms: N_6  and  C_13
REMARK    4  A    between atoms: N_7  and  C_16
REMARK    5  A    between atoms: N_7  and  C_17
REMARK    6  A    between atoms: C_9  and  C_12
REMARK    7  A    between atoms: C_11  and  C_13
REMARK    8  A    between atoms: C_12  and  C_14
REMARK    9  A    between atoms: C_15  and  C_18
REMARK   10  A    between atoms: C_16  and  C_19
REMARK   11  A    between atoms: C_26  and  C_30
REMARK                            x       y       z     vdW  Elec       q    Type
REMARK                         _______ _______ _______ _____ _____    ______ ____
ROOT
ATOM      1  O   UNL     1      -5.427 -12.669  17.439  0.00  0.00    -0.366 OA
ATOM      8  C   UNL     1      -4.143 -11.463  19.038  0.00  0.00    +0.175 C 
ATOM      9  C   UNL     1      -4.103 -12.136  17.670  0.00  0.00    +0.159 C 
ATOM     10  C   UNL     1      -5.595 -11.045  19.141  0.00  0.00    +0.176 C 
ATOM     11  C   UNL     1      -6.299 -12.227  18.495  0.00  0.00    +0.167 C 
ENDROOT
BRANCH   8   2
ATOM      2  O   UNL     1      -3.839 -12.447  20.025  0.00  0.00    -0.387 OA
ATOM     31  H   UNL     1      -4.642 -12.584  20.556  0.00  0.00    +0.210 HD
ENDBRANCH   8   2
BRANCH  10   3
ATOM      3  O   UNL     1      -6.024 -10.836  20.470  0.00  0.00    -0.387 OA
ATOM     32  H   UNL     1      -5.280 -11.060  21.054  0.00  0.00    +0.210 HD
ENDBRANCH  10   3
BRANCH   9  12
ATOM     12  C   UNL     1      -3.787 -11.168  16.538  0.00  0.00    +0.130 C 
BRANCH  12  14
ATOM      4  O   UNL     1      -4.078 -12.795  14.804  0.00  0.00    -0.276 OA
ATOM      7  N   UNL     1      -2.218 -11.421  14.632  0.00  0.00    -0.300 N 
ATOM     14  C   UNL     1      -3.387 -11.875  15.251  0.00  0.00    +0.218 C 
ATOM     17  C   UNL     1      -1.417 -10.333  15.177  0.00  0.00    +0.132 C 
BRANCH   7  16
ATOM     16  C   UNL     1      -1.711 -12.003  13.391  0.00  0.00    +0.142 C 
BRANCH  16  19
ATOM     19  C   UNL     1      -2.387 -11.425  12.181  0.00  0.00    -0.030 A 
ATOM     22  C   UNL     1      -3.292 -12.196  11.453  0.00  0.00    +0.005 A 
ATOM     23  C   UNL     1      -2.109 -10.117  11.786  0.00  0.00    +0.005 A 
ATOM     27  C   UNL     1      -3.921 -11.658  10.329  0.00  0.00    +0.000 A 
ATOM     28  C   UNL     1      -2.736  -9.580  10.663  0.00  0.00    +0.000 A 
ATOM     29  C   UNL     1      -3.642 -10.350   9.934  0.00  0.00    +0.000 A 
ENDBRANCH  16  19
ENDBRANCH   7  16
ENDBRANCH  12  14
ENDBRANCH   9  12
BRANCH  11  13
ATOM     13  C   UNL     1      -7.661 -11.877  17.921  0.00  0.00    +0.138 C 
BRANCH  13   6
ATOM      5  O   UNL     1      -7.494  -9.223  16.841  0.00  0.00    -0.270 OA
ATOM      6  N   UNL     1      -7.563 -11.522  16.537  0.00  0.00    -0.309 N 
ATOM     15  C   UNL     1      -7.485 -10.203  16.099  0.00  0.00    +0.244 C 
ATOM     33  H   UNL     1      -7.495 -12.286  15.872  0.00  0.00    +0.149 HD
BRANCH  15  18
ATOM     18  C   UNL     1      -7.414 -10.000  14.630  0.00  0.00    +0.037 A 
ATOM     20  C   UNL     1      -6.175  -9.929  13.994  0.00  0.00    +0.013 A 
ATOM     21  C   UNL     1      -8.588  -9.882  13.885  0.00  0.00    +0.013 A 
ATOM     24  C   UNL     1      -6.109  -9.738  12.613  0.00  0.00    +0.004 A 
ATOM     25  C   UNL     1      -8.522  -9.692  12.505  0.00  0.00    +0.004 A 
ATOM     26  C   UNL     1      -7.283  -9.620  11.869  0.00  0.00    -0.050 A 
ATOM     30  C   UNL     1      -7.212  -9.416  10.393  0.00  0.00    +0.044 C 
ENDBRANCH  15  18
ENDBRANCH  13   6
ENDBRANCH  11  13
TORSDOF 9
ENDMDL
MODEL 7
REMARK VINA RESULT:      -6.3     27.178     30.417
REMARK  Name = 25390222
REMARK  11 active torsions:
REMARK  status: ('A' for Active; 'I' for Inactive)
REMARK    1  A    between atoms: O_2  and  C_8
REMARK    2  A    between atoms: O_3  and  C_10
REMARK    3  A    between atoms: N_6  and  C_13
REMARK    4  A    between atoms: N_7  and  C_16
REMARK    5  A    between atoms: N_7  and  C_17
REMARK    6  A    between atoms: C_9  and  C_12
REMARK    7  A    between atoms: C_11  and  C_13
REMARK    8  A    between atoms: C_12  and  C_14
REMARK    9  A    between atoms: C_15  and  C_18
REMARK   10  A    between atoms: C_16  and  C_19
REMARK   11  A    between atoms: C_26  and  C_30
REMARK                            x       y       z     vdW  Elec       q    Type
REMARK                         _______ _______ _______ _____ _____    ______ ____
ROOT
ATOM      1  O   UNL     1     -16.594   4.363  21.920  0.00  0.00    -0.366 OA
ATOM      8  C   UNL     1     -14.472   5.250  22.530  0.00  0.00    +0.175 C 
ATOM      9  C   UNL     1     -15.653   5.406  21.577  0.00  0.00    +0.159 C 
ATOM     10  C   UNL     1     -15.131   4.637  23.749  0.00  0.00    +0.176 C 
ATOM     11  C   UNL     1     -16.138   3.696  23.110  0.00  0.00    +0.167 C 
ENDROOT
BRANCH   8   2
ATOM      2  O   UNL     1     -13.552   4.328  21.948  0.00  0.00    -0.387 OA
ATOM     31  H   UNL     1     -14.073   3.613  21.544  0.00  0.00    +0.210 HD
ENDBRANCH   8   2
BRANCH  10   3
ATOM      3  O   UNL     1     -14.225   3.953  24.589  0.00  0.00    -0.387 OA
ATOM     32  H   UNL     1     -14.192   3.029  24.290  0.00  0.00    +0.210 HD
ENDBRANCH  10   3
BRANCH   9  12
ATOM     12  C   UNL     1     -16.365   6.743  21.724  0.00  0.00    +0.130 C 
BRANCH  12  14
ATOM      4  O   UNL     1     -15.889   7.872  19.664  0.00  0.00    -0.276 OA
ATOM      7  N   UNL     1     -14.977   8.796  21.586  0.00  0.00    -0.300 N 
ATOM     14  C   UNL     1     -15.730   7.845  20.888  0.00  0.00    +0.218 C 
ATOM     17  C   UNL     1     -14.801   8.746  23.031  0.00  0.00    +0.132 C 
BRANCH   7  16
ATOM     16  C   UNL     1     -14.309   9.910  20.917  0.00  0.00    +0.142 C 
BRANCH  16  19
ATOM     19  C   UNL     1     -12.934   9.538  20.442  0.00  0.00    -0.030 A 
ATOM     22  C   UNL     1     -12.501   8.215  20.530  0.00  0.00    +0.005 A 
ATOM     23  C   UNL     1     -12.091  10.515  19.913  0.00  0.00    +0.005 A 
ATOM     27  C   UNL     1     -11.222   7.869  20.088  0.00  0.00    +0.000 A 
ATOM     28  C   UNL     1     -10.814  10.169  19.472  0.00  0.00    +0.000 A 
ATOM     29  C   UNL     1     -10.380   8.847  19.559  0.00  0.00    +0.000 A 
ENDBRANCH  16  19
ENDBRANCH   7  16
ENDBRANCH  12  14
ENDBRANCH   9  12
BRANCH  11  13
ATOM     13  C   UNL     1     -17.323   3.383  24.007  0.00  0.00    +0.138 C 
BRANCH  13   6
ATOM      5  O   UNL     1     -16.717   0.946  25.397  0.00  0.00    -0.270 OA
ATOM      6  N   UNL     1     -16.917   3.257  25.375  0.00  0.00    -0.309 N 
ATOM     15  C   UNL     1     -16.641   2.030  25.971  0.00  0.00    +0.244 C 
ATOM     33  H   UNL     1     -16.780   4.119  25.892  0.00  0.00    +0.149 HD
BRANCH  15  18
ATOM     18  C   UNL     1     -16.257   2.066  27.405  0.00  0.00    +0.037 A 
ATOM     20  C   UNL     1     -16.443   0.940  28.207  0.00  0.00    +0.013 A 
ATOM     21  C   UNL     1     -15.708   3.227  27.950  0.00  0.00    +0.013 A 
ATOM     24  C   UNL     1     -16.082   0.975  29.554  0.00  0.00    +0.004 A 
ATOM     25  C   UNL     1     -15.347   3.262  29.297  0.00  0.00    +0.004 A 
ATOM     26  C   UNL     1     -15.534   2.136  30.099  0.00  0.00    -0.050 A 
ATOM     30  C   UNL     1     -15.149   2.173  31.540  0.00  0.00    +0.044 C 
ENDBRANCH  15  18
ENDBRANCH  13   6
ENDBRANCH  11  13
TORSDOF 9
ENDMDL
MODEL 8
REMARK VINA RESULT:      -6.3     14.356     18.824
REMARK  Name = 25390222
REMARK  11 active torsions:
REMARK  status: ('A' for Active; 'I' for Inactive)
REMARK    1  A    between atoms: O_2  and  C_8
REMARK    2  A    between atoms: O_3  and  C_10
REMARK    3  A    between atoms: N_6  and  C_13
REMARK    4  A    between atoms: N_7  and  C_16
REMARK    5  A    between atoms: N_7  and  C_17
REMARK    6  A    between atoms: C_9  and  C_12
REMARK    7  A    between atoms: C_11  and  C_13
REMARK    8  A    between atoms: C_12  and  C_14
REMARK    9  A    between atoms: C_15  and  C_18
REMARK   10  A    between atoms: C_16  and  C_19
REMARK   11  A    between atoms: C_26  and  C_30
REMARK                            x       y       z     vdW  Elec       q    Type
REMARK                         _______ _______ _______ _____ _____    ______ ____
ROOT
ATOM      1  O   UNL     1       9.501   5.801   5.983  0.00  0.00    -0.366 OA
ATOM      8  C   UNL     1      11.716   6.649   5.794  0.00  0.00    +0.175 C 
ATOM      9  C   UNL     1      10.723   5.641   5.226  0.00  0.00    +0.159 C 
ATOM     10  C   UNL     1      10.799   7.744   6.299  0.00  0.00    +0.176 C 
ATOM     11  C   UNL     1       9.637   6.937   6.854  0.00  0.00    +0.167 C 
ENDROOT
BRANCH   8   2
ATOM      2  O   UNL     1      12.398   6.031   6.885  0.00  0.00    -0.387 OA
ATOM     31  H   UNL     1      11.782   6.008   7.637  0.00  0.00    +0.210 HD
ENDBRANCH   8   2
BRANCH  10   3
ATOM      3  O   UNL     1      11.395   8.562   7.284  0.00  0.00    -0.387 OA
ATOM     32  H   UNL     1      11.298   8.108   8.137  0.00  0.00    +0.210 HD
ENDBRANCH  10   3
BRANCH   9  12
ATOM     12  C   UNL     1      10.397   5.887   3.759  0.00  0.00    +0.130 C 
BRANCH  12  14
ATOM      4  O   UNL     1      10.907   3.591   3.300  0.00  0.00    -0.276 OA
ATOM      7  N   UNL     1      11.132   5.075   1.532  0.00  0.00    -0.300 N 
ATOM     14  C   UNL     1      10.833   4.741   2.857  0.00  0.00    +0.218 C 
ATOM     17  C   UNL     1      11.038   6.439   1.029  0.00  0.00    +0.132 C 
BRANCH   7  16
ATOM     16  C   UNL     1      11.563   4.080   0.552  0.00  0.00    +0.142 C 
BRANCH  16  19
ATOM     19  C   UNL     1      13.058   4.037   0.415  0.00  0.00    -0.030 A 
ATOM     22  C   UNL     1      13.659   4.420  -0.784  0.00  0.00    +0.005 A 
ATOM     23  C   UNL     1      13.844   3.614   1.486  0.00  0.00    +0.005 A 
ATOM     27  C   UNL     1      15.049   4.380  -0.911  0.00  0.00    +0.000 A 
ATOM     28  C   UNL     1      15.232   3.573   1.359  0.00  0.00    +0.000 A 
ATOM     29  C   UNL     1      15.834   3.957   0.161  0.00  0.00    +0.000 A 
ENDBRANCH  16  19
ENDBRANCH   7  16
ENDBRANCH  12  14
ENDBRANCH   9  12
BRANCH  11  13
ATOM     13  C   UNL     1       8.331   7.710   6.894  0.00  0.00    +0.138 C 
BRANCH  13   6
ATOM      5  O   UNL     1       8.251  10.279   5.613  0.00  0.00    -0.270 OA
ATOM      6  N   UNL     1       7.857   7.992   5.572  0.00  0.00    -0.309 N 
ATOM     15  C   UNL     1       7.855   9.274   5.027  0.00  0.00    +0.244 C 
ATOM     33  H   UNL     1       7.567   7.198   5.011  0.00  0.00    +0.149 HD
BRANCH  15  18
ATOM     18  C   UNL     1       7.306   9.404   3.653  0.00  0.00    +0.037 A 
ATOM     20  C   UNL     1       8.062   8.988   2.557  0.00  0.00    +0.013 A 
ATOM     21  C   UNL     1       6.033   9.940   3.459  0.00  0.00    +0.013 A 
ATOM     24  C   UNL     1       7.547   9.111   1.267  0.00  0.00    +0.004 A 
ATOM     25  C   UNL     1       5.517  10.062   2.169  0.00  0.00    +0.004 A 
ATOM     26  C   UNL     1       6.274   9.648   1.073  0.00  0.00    -0.050 A 
ATOM     30  C   UNL     1       5.723   9.779  -0.307  0.00  0.00    +0.044 C 
ENDBRANCH  15  18
ENDBRANCH  13   6
ENDBRANCH  11  13
TORSDOF 9
ENDMDL
MODEL 9
REMARK VINA RESULT:      -6.3      2.581      7.161
REMARK  Name = 25390222
REMARK  11 active torsions:
REMARK  status: ('A' for Active; 'I' for Inactive)
REMARK    1  A    between atoms: O_2  and  C_8
REMARK    2  A    between atoms: O_3  and  C_10
REMARK    3  A    between atoms: N_6  and  C_13
REMARK    4  A    between atoms: N_7  and  C_16
REMARK    5  A    between atoms: N_7  and  C_17
REMARK    6  A    between atoms: C_9  and  C_12
REMARK    7  A    between atoms: C_11  and  C_13
REMARK    8  A    between atoms: C_12  and  C_14
REMARK    9  A    between atoms: C_15  and  C_18
REMARK   10  A    between atoms: C_16  and  C_19
REMARK   11  A    between atoms: C_26  and  C_30
REMARK                            x       y       z     vdW  Elec       q    Type
REMARK                         _______ _______ _______ _____ _____    ______ ____
ROOT
ATOM      1  O   UNL     1      12.906   6.880  18.751  0.00  0.00    -0.366 OA
ATOM      8  C   UNL     1      15.121   7.620  19.207  0.00  0.00    +0.175 C 
ATOM      9  C   UNL     1      13.983   7.666  18.193  0.00  0.00    +0.159 C 
ATOM     10  C   UNL     1      14.372   7.439  20.512  0.00  0.00    +0.176 C 
ATOM     11  C   UNL     1      13.253   6.499  20.094  0.00  0.00    +0.167 C 
ENDROOT
BRANCH   8   2
ATOM      2  O   UNL     1      15.915   6.467  18.929  0.00  0.00    -0.387 OA
ATOM     31  H   UNL     1      16.617   6.740  18.315  0.00  0.00    +0.210 HD
ENDBRANCH   8   2
BRANCH  10   3
ATOM      3  O   UNL     1      15.167   6.893  21.542  0.00  0.00    -0.387 OA
ATOM     32  H   UNL     1      14.673   6.151  21.929  0.00  0.00    +0.210 HD
ENDBRANCH  10   3
BRANCH   9  12
ATOM     12  C   UNL     1      13.456   9.075  17.953  0.00  0.00    +0.130 C 
BRANCH  12  14
ATOM      4  O   UNL     1      13.376   8.676  15.591  0.00  0.00    -0.276 OA
ATOM      7  N   UNL     1      13.841  10.847  16.259  0.00  0.00    -0.300 N 
ATOM     14  C   UNL     1      13.551   9.499  16.494  0.00  0.00    +0.218 C 
ATOM     17  C   UNL     1      14.044  11.803  17.340  0.00  0.00    +0.132 C 
BRANCH   7  16
ATOM     16  C   UNL     1      13.963  11.399  14.912  0.00  0.00    +0.142 C 
BRANCH  16  19
ATOM     19  C   UNL     1      15.303  12.040  14.685  0.00  0.00    -0.030 A 
ATOM     22  C   UNL     1      15.385  13.405  14.412  0.00  0.00    +0.005 A 
ATOM     23  C   UNL     1      16.463  11.269  14.749  0.00  0.00    +0.005 A 
ATOM     27  C   UNL     1      16.630  14.000  14.202  0.00  0.00    +0.000 A 
ATOM     28  C   UNL     1      17.706  11.864  14.539  0.00  0.00    +0.000 A 
ATOM     29  C   UNL     1      17.790  13.229  14.266  0.00  0.00    +0.000 A 
ENDBRANCH  16  19
ENDBRANCH   7  16
ENDBRANCH  12  14
ENDBRANCH   9  12
BRANCH  11  13
ATOM     13  C   UNL     1      12.027   6.588  20.985  0.00  0.00    +0.138 C 
BRANCH  13   6
ATOM      5  O   UNL     1      10.568   8.884  20.068  0.00  0.00    -0.270 OA
ATOM      6  N   UNL     1      11.948   7.865  21.630  0.00  0.00    -0.309 N 
ATOM     15  C   UNL     1      11.213   8.928  21.113  0.00  0.00    +0.244 C 
ATOM     33  H   UNL     1      12.413   7.953  22.528  0.00  0.00    +0.149 HD
BRANCH  15  18
ATOM     18  C   UNL     1      11.254  10.194  21.888  0.00  0.00    +0.037 A 
ATOM     20  C   UNL     1      10.872  10.204  23.230  0.00  0.00    +0.013 A 
ATOM     21  C   UNL     1      11.677  11.374  21.275  0.00  0.00    +0.013 A 
ATOM     24  C   UNL     1      10.910  11.394  23.957  0.00  0.00    +0.004 A 
ATOM     25  C   UNL     1      11.715  12.563  22.002  0.00  0.00    +0.004 A 
ATOM     26  C   UNL     1      11.332  12.573  23.344  0.00  0.00    -0.050 A 
ATOM     30  C   UNL     1      11.372  13.845  24.122  0.00  0.00    +0.044 C 
ENDBRANCH  15  18
ENDBRANCH  13   6
ENDBRANCH  11  13
TORSDOF 9
ENDMDL
MODEL 10
REMARK VINA RESULT:      -6.3      1.858      4.493
REMARK  Name = 25390222
REMARK  11 active torsions:
REMARK  status: ('A' for Active; 'I' for Inactive)
REMARK    1  A    between atoms: O_2  and  C_8
REMARK    2  A    between atoms: O_3  and  C_10
REMARK    3  A    between atoms: N_6  and  C_13
REMARK    4  A    between atoms: N_7  and  C_16
REMARK    5  A    between atoms: N_7  and  C_17
REMARK    6  A    between atoms: C_9  and  C_12
REMARK    7  A    between atoms: C_11  and  C_13
REMARK    8  A    between atoms: C_12  and  C_14
REMARK    9  A    between atoms: C_15  and  C_18
REMARK   10  A    between atoms: C_16  and  C_19
REMARK   11  A    between atoms: C_26  and  C_30
REMARK                            x       y       z     vdW  Elec       q    Type
REMARK                         _______ _______ _______ _____ _____    ______ ____
ROOT
ATOM      1  O   UNL     1      12.672   7.804  22.095  0.00  0.00    -0.366 OA
ATOM      8  C   UNL     1      11.415   9.689  21.369  0.00  0.00    +0.175 C 
ATOM      9  C   UNL     1      12.568   9.237  22.258  0.00  0.00    +0.159 C 
ATOM     10  C   UNL     1      11.436   8.645  20.272  0.00  0.00    +0.176 C 
ATOM     11  C   UNL     1      11.771   7.386  21.054  0.00  0.00    +0.167 C 
ENDROOT
BRANCH   8   2
ATOM      2  O   UNL     1      10.208   9.589  22.125  0.00  0.00    -0.387 OA
ATOM     31  H   UNL     1       9.881   8.679  22.031  0.00  0.00    +0.210 HD
ENDBRANCH   8   2
BRANCH  10   3
ATOM      3  O   UNL     1      10.207   8.531  19.585  0.00  0.00    -0.387 OA
ATOM     32  H   UNL     1      10.153   7.627  19.232  0.00  0.00    +0.210 HD
ENDBRANCH  10   3
BRANCH   9  12
ATOM     12  C   UNL     1      13.904   9.848  21.858  0.00  0.00    +0.130 C 
BRANCH  12  14
ATOM      4  O   UNL     1      12.766  11.785  21.024  0.00  0.00    -0.276 OA
ATOM      7  N   UNL     1      14.775  11.244  20.000  0.00  0.00    -0.300 N 
ATOM     14  C   UNL     1      13.751  11.047  20.932  0.00  0.00    +0.218 C 
ATOM     17  C   UNL     1      15.930  10.359  19.908  0.00  0.00    +0.132 C 
BRANCH   7  16
ATOM     16  C   UNL     1      14.765  12.351  19.047  0.00  0.00    +0.142 C 
BRANCH  16  19
ATOM     19  C   UNL     1      14.838  11.870  17.626  0.00  0.00    -0.030 A 
ATOM     22  C   UNL     1      13.893  10.963  17.148  0.00  0.00    +0.005 A 
ATOM     23  C   UNL     1      15.851  12.332  16.785  0.00  0.00    +0.005 A 
ATOM     27  C   UNL     1      13.961  10.516  15.827  0.00  0.00    +0.000 A 
ATOM     28  C   UNL     1      15.918  11.885  15.466  0.00  0.00    +0.000 A 
ATOM     29  C   UNL     1      14.974  10.978  14.987  0.00  0.00    +0.000 A 
ENDBRANCH  16  19
ENDBRANCH   7  16
ENDBRANCH  12  14
ENDBRANCH   9  12
BRANCH  11  13
ATOM     13  C   UNL     1      12.429   6.309  20.210  0.00  0.00    +0.138 C 
BRANCH  13   6
ATOM      5  O   UNL     1      14.510   7.335  18.519  0.00  0.00    -0.270 OA
ATOM      6  N   UNL     1      13.839   6.248  20.456  0.00  0.00    -0.309 N 
ATOM     15  C   UNL     1      14.782   6.775  19.579  0.00  0.00    +0.244 C 
ATOM     33  H   UNL     1      14.131   5.847  21.341  0.00  0.00    +0.149 HD
BRANCH  15  18
ATOM     18  C   UNL     1      16.206   6.609  19.966  0.00  0.00    +0.037 A 
ATOM     20  C   UNL     1      16.679   7.175  21.149  0.00  0.00    +0.013 A 
ATOM     21  C   UNL     1      17.071   5.883  19.146  0.00  0.00    +0.013 A 
ATOM     24  C   UNL     1      18.017   7.018  21.512  0.00  0.00    +0.004 A 
ATOM     25  C   UNL     1      18.409   5.726  19.509  0.00  0.00    +0.004 A 
ATOM     26  C   UNL     1      18.881   6.294  20.692  0.00  0.00    -0.050 A 
ATOM     30  C   UNL     1      20.312   6.127  21.081  0.00  0.00    +0.044 C 
ENDBRANCH  15  18
ENDBRANCH  13   6
ENDBRANCH  11  13
TORSDOF 9
ENDMDL
