MODEL 1
REMARK VINA RESULT:      -6.5      0.000      0.000
REMARK  Name = 28962187
REMARK  13 active torsions:
REMARK  status: ('A' for Active; 'I' for Inactive)
REMARK    1  A    between atoms: S_1  and  N_8
REMARK    2  A    between atoms: S_1  and  C_19
REMARK    3  A    between atoms: O_3  and  C_11
REMARK    4  A    between atoms: O_4  and  C_14
REMARK    5  A    between atoms: N_7  and  C_9
REMARK    6  A    between atoms: N_7  and  C_15
REMARK    7  A    between atoms: N_7  and  C_16
REMARK    8  A    between atoms: N_8  and  C_13
REMARK    9  A    between atoms: C_10  and  C_13
REMARK   10  A    between atoms: C_12  and  C_14
REMARK   11  A    between atoms: C_15  and  C_17
REMARK   12  A    between atoms: C_17  and  C_18
REMARK   13  A    between atoms: C_29  and  C_30
REMARK                            x       y       z     vdW  Elec       q    Type
REMARK                         _______ _______ _______ _____ _____    ______ ____
ROOT
ATOM      2  O   UNL     1      13.215   9.571  18.685  0.00  0.00    -0.366 OA
ATOM      9  C   UNL     1      11.777   9.846  20.560  0.00  0.00    +0.118 C 
ATOM     10  C   UNL     1      13.111  10.279  19.940  0.00  0.00    +0.154 C 
ATOM     11  C   UNL     1      11.545   8.472  19.951  0.00  0.00    +0.165 C 
ATOM     12  C   UNL     1      12.080   8.696  18.542  0.00  0.00    +0.174 C 
ENDROOT
BRANCH  11   3
ATOM      3  O   UNL     1      12.304   7.472  20.616  0.00  0.00    -0.388 OA
ATOM     31  H   UNL     1      13.208   7.810  20.721  0.00  0.00    +0.210 HD
ENDBRANCH  11   3
BRANCH   9   7
ATOM      7  N   UNL     1      11.695   9.902  22.010  0.00  0.00    -0.297 NA
ATOM     16  C   UNL     1      10.576   9.092  22.501  0.00  0.00    +0.105 C 
BRANCH   7  15
ATOM     15  C   UNL     1      11.553  11.287  22.471  0.00  0.00    +0.089 C 
BRANCH  15  17
ATOM     17  C   UNL     1      10.721  11.355  23.752  0.00  0.00    +0.050 C 
BRANCH  17  18
ATOM     18  C   UNL     1      10.611  12.769  24.265  0.00  0.00    -0.046 A 
ATOM     20  C   UNL     1      10.192  13.790  23.412  0.00  0.00    +0.003 A 
ATOM     21  C   UNL     1      10.930  13.056  25.592  0.00  0.00    +0.003 A 
ATOM     24  C   UNL     1      10.091  15.098  23.887  0.00  0.00    +0.000 A 
ATOM     25  C   UNL     1      10.829  14.364  26.067  0.00  0.00    +0.000 A 
ATOM     28  C   UNL     1      10.410  15.385  25.214  0.00  0.00    +0.000 A 
ENDBRANCH  17  18
ENDBRANCH  15  17
ENDBRANCH   7  15
ENDBRANCH   9   7
BRANCH  10  13
ATOM     13  C   UNL     1      14.371   9.967  20.740  0.00  0.00    +0.139 C 
BRANCH  13   8
ATOM      8  N   UNL     1      15.132   8.904  20.060  0.00  0.00    -0.187 NA
ATOM     32  H   UNL     1      15.086   8.908  19.033  0.00  0.00    +0.148 HD
BRANCH   8   1
ATOM      1  S   UNL     1      15.437   7.430  20.853  0.00  0.00    +0.058 S 
ATOM      5  O   UNL     1      15.043   6.332  19.990  0.00  0.00    -0.153 OA
ATOM      6  O   UNL     1      14.933   7.509  22.211  0.00  0.00    -0.153 OA
BRANCH   1  19
ATOM     19  C   UNL     1      17.202   7.434  20.957  0.00  0.00    +0.105 A 
ATOM     22  C   UNL     1      17.930   6.338  20.495  0.00  0.00    +0.029 A 
ATOM     23  C   UNL     1      17.866   8.532  21.504  0.00  0.00    +0.029 A 
ATOM     26  C   UNL     1      19.322   6.340  20.579  0.00  0.00    +0.005 A 
ATOM     27  C   UNL     1      19.258   8.534  21.589  0.00  0.00    +0.005 A 
ATOM     29  C   UNL     1      19.986   7.438  21.126  0.00  0.00    -0.050 A 
ATOM     30  C   UNL     1      21.475   7.440  21.216  0.00  0.00    +0.044 C 
ENDBRANCH   1  19
ENDBRANCH   8   1
ENDBRANCH  13   8
ENDBRANCH  10  13
BRANCH  12  14
ATOM     14  C   UNL     1      12.503   7.443  17.797  0.00  0.00    +0.190 C 
BRANCH  14   4
ATOM      4  O   UNL     1      13.882   7.542  17.479  0.00  0.00    -0.392 OA
ATOM     33  H   UNL     1      14.377   7.360  18.296  0.00  0.00    +0.210 HD
ENDBRANCH  14   4
ENDBRANCH  12  14
TORSDOF 11
ENDMDL
MODEL 2
REMARK VINA RESULT:      -6.3      2.869      3.925
REMARK  Name = 28962187
REMARK  13 active torsions:
REMARK  status: ('A' for Active; 'I' for Inactive)
REMARK    1  A    between atoms: S_1  and  N_8
REMARK    2  A    between atoms: S_1  and  C_19
REMARK    3  A    between atoms: O_3  and  C_11
REMARK    4  A    between atoms: O_4  and  C_14
REMARK    5  A    between atoms: N_7  and  C_9
REMARK    6  A    between atoms: N_7  and  C_15
REMARK    7  A    between atoms: N_7  and  C_16
REMARK    8  A    between atoms: N_8  and  C_13
REMARK    9  A    between atoms: C_10  and  C_13
REMARK   10  A    between atoms: C_12  and  C_14
REMARK   11  A    between atoms: C_15  and  C_17
REMARK   12  A    between atoms: C_17  and  C_18
REMARK   13  A    between atoms: C_29  and  C_30
REMARK                            x       y       z     vdW  Elec       q    Type
REMARK                         _______ _______ _______ _____ _____    ______ ____
ROOT
ATOM      2  O   UNL     1      10.526   7.842  20.459  0.00  0.00    -0.366 OA
ATOM      9  C   UNL     1      11.647   9.529  21.707  0.00  0.00    +0.118 C 
ATOM     10  C   UNL     1      10.990   9.207  20.359  0.00  0.00    +0.154 C 
ATOM     11  C   UNL     1      12.083   8.162  22.212  0.00  0.00    +0.165 C 
ATOM     12  C   UNL     1      10.918   7.303  21.735  0.00  0.00    +0.174 C 
ENDROOT
BRANCH  11   3
ATOM      3  O   UNL     1      13.293   7.741  21.597  0.00  0.00    -0.388 OA
ATOM     31  H   UNL     1      13.861   8.523  21.500  0.00  0.00    +0.210 HD
ENDBRANCH  11   3
BRANCH   9   7
ATOM      7  N   UNL     1      12.689  10.542  21.686  0.00  0.00    -0.297 NA
ATOM     16  C   UNL     1      13.498  10.484  22.908  0.00  0.00    +0.105 C 
BRANCH   7  15
ATOM     15  C   UNL     1      12.111  11.881  21.530  0.00  0.00    +0.089 C 
BRANCH  15  17
ATOM     17  C   UNL     1      11.938  12.564  22.887  0.00  0.00    +0.050 C 
BRANCH  17  18
ATOM     18  C   UNL     1      10.864  13.622  22.840  0.00  0.00    -0.046 A 
ATOM     20  C   UNL     1      10.533  14.332  23.995  0.00  0.00    +0.003 A 
ATOM     21  C   UNL     1      10.199  13.888  21.643  0.00  0.00    +0.003 A 
ATOM     24  C   UNL     1       9.539  15.309  23.952  0.00  0.00    +0.000 A 
ATOM     25  C   UNL     1       9.204  14.866  21.601  0.00  0.00    +0.000 A 
ATOM     28  C   UNL     1       8.874  15.576  22.755  0.00  0.00    +0.000 A 
ENDBRANCH  17  18
ENDBRANCH  15  17
ENDBRANCH   7  15
ENDBRANCH   9   7
BRANCH  10  13
ATOM     13  C   UNL     1      11.881   9.292  19.125  0.00  0.00    +0.139 C 
BRANCH  13   8
ATOM      8  N   UNL     1      12.340   7.940  18.758  0.00  0.00    -0.187 NA
ATOM     32  H   UNL     1      11.881   7.163  19.251  0.00  0.00    +0.148 HD
BRANCH   8   1
ATOM      1  S   UNL     1      13.916   7.704  18.162  0.00  0.00    +0.058 S 
ATOM      5  O   UNL     1      13.849   7.361  16.754  0.00  0.00    -0.153 OA
ATOM      6  O   UNL     1      14.651   6.860  19.085  0.00  0.00    -0.153 OA
BRANCH   1  19
ATOM     19  C   UNL     1      14.599   9.329  18.295  0.00  0.00    +0.105 A 
ATOM     22  C   UNL     1      15.221   9.729  19.477  0.00  0.00    +0.029 A 
ATOM     23  C   UNL     1      14.512  10.213  17.218  0.00  0.00    +0.029 A 
ATOM     26  C   UNL     1      15.757  11.013  19.583  0.00  0.00    +0.005 A 
ATOM     27  C   UNL     1      15.049  11.496  17.325  0.00  0.00    +0.005 A 
ATOM     29  C   UNL     1      15.671  11.896  18.507  0.00  0.00    -0.050 A 
ATOM     30  C   UNL     1      16.245  13.268  18.621  0.00  0.00    +0.044 C 
ENDBRANCH   1  19
ENDBRANCH   8   1
ENDBRANCH  13   8
ENDBRANCH  10  13
BRANCH  12  14
ATOM     14  C   UNL     1      11.217   5.822  21.584  0.00  0.00    +0.190 C 
BRANCH  14   4
ATOM      4  O   UNL     1      11.622   5.571  20.248  0.00  0.00    -0.392 OA
ATOM     33  H   UNL     1      12.461   5.083  20.291  0.00  0.00    +0.210 HD
ENDBRANCH  14   4
ENDBRANCH  12  14
TORSDOF 11
ENDMDL
MODEL 3
REMARK VINA RESULT:      -6.2     28.026     30.999
REMARK  Name = 28962187
REMARK  13 active torsions:
REMARK  status: ('A' for Active; 'I' for Inactive)
REMARK    1  A    between atoms: S_1  and  N_8
REMARK    2  A    between atoms: S_1  and  C_19
REMARK    3  A    between atoms: O_3  and  C_11
REMARK    4  A    between atoms: O_4  and  C_14
REMARK    5  A    between atoms: N_7  and  C_9
REMARK    6  A    between atoms: N_7  and  C_15
REMARK    7  A    between atoms: N_7  and  C_16
REMARK    8  A    between atoms: N_8  and  C_13
REMARK    9  A    between atoms: C_10  and  C_13
REMARK   10  A    between atoms: C_12  and  C_14
REMARK   11  A    between atoms: C_15  and  C_17
REMARK   12  A    between atoms: C_17  and  C_18
REMARK   13  A    between atoms: C_29  and  C_30
REMARK                            x       y       z     vdW  Elec       q    Type
REMARK                         _______ _______ _______ _____ _____    ______ ____
ROOT
ATOM      2  O   UNL     1     -18.188   2.736  24.487  0.00  0.00    -0.366 OA
ATOM      9  C   UNL     1     -17.492   2.121  26.678  0.00  0.00    +0.118 C 
ATOM     10  C   UNL     1     -17.571   3.279  25.675  0.00  0.00    +0.154 C 
ATOM     11  C   UNL     1     -17.462   0.893  25.781  0.00  0.00    +0.165 C 
ATOM     12  C   UNL     1     -18.419   1.328  24.677  0.00  0.00    +0.174 C 
ENDROOT
BRANCH  11   3
ATOM      3  O   UNL     1     -16.163   0.667  25.250  0.00  0.00    -0.388 OA
ATOM     31  H   UNL     1     -16.265   0.153  24.432  0.00  0.00    +0.210 HD
ENDBRANCH  11   3
BRANCH   9   7
ATOM      7  N   UNL     1     -16.425   2.196  27.661  0.00  0.00    -0.297 NA
ATOM     16  C   UNL     1     -16.229   0.900  28.318  0.00  0.00    +0.105 C 
BRANCH   7  15
ATOM     15  C   UNL     1     -16.711   3.228  28.663  0.00  0.00    +0.089 C 
BRANCH  15  17
ATOM     17  C   UNL     1     -15.419   3.865  29.177  0.00  0.00    +0.050 C 
BRANCH  17  18
ATOM     18  C   UNL     1     -15.094   3.405  30.576  0.00  0.00    -0.046 A 
ATOM     20  C   UNL     1     -13.895   2.738  30.830  0.00  0.00    +0.003 A 
ATOM     21  C   UNL     1     -15.993   3.644  31.615  0.00  0.00    +0.003 A 
ATOM     24  C   UNL     1     -13.595   2.311  32.124  0.00  0.00    +0.000 A 
ATOM     25  C   UNL     1     -15.692   3.218  32.909  0.00  0.00    +0.000 A 
ATOM     28  C   UNL     1     -14.494   2.551  33.163  0.00  0.00    +0.000 A 
ENDBRANCH  17  18
ENDBRANCH  15  17
ENDBRANCH   7  15
ENDBRANCH   9   7
BRANCH  10  13
ATOM     13  C   UNL     1     -16.249   3.908  25.251  0.00  0.00    +0.139 C 
BRANCH  13   8
ATOM      8  N   UNL     1     -16.030   3.664  23.814  0.00  0.00    -0.187 NA
ATOM     32  H   UNL     1     -15.204   3.098  23.577  0.00  0.00    +0.148 HD
BRANCH   8   1
ATOM      1  S   UNL     1     -16.614   4.769  22.660  0.00  0.00    +0.058 S 
ATOM      5  O   UNL     1     -17.370   5.810  23.332  0.00  0.00    -0.153 OA
ATOM      6  O   UNL     1     -17.206   4.035  21.557  0.00  0.00    -0.153 OA
BRANCH   1  19
ATOM     19  C   UNL     1     -15.116   5.487  22.056  0.00  0.00    +0.105 A 
ATOM     22  C   UNL     1     -13.886   4.933  22.409  0.00  0.00    +0.029 A 
ATOM     23  C   UNL     1     -15.164   6.610  21.229  0.00  0.00    +0.029 A 
ATOM     26  C   UNL     1     -12.704   5.501  21.935  0.00  0.00    +0.005 A 
ATOM     27  C   UNL     1     -13.981   7.177  20.755  0.00  0.00    +0.005 A 
ATOM     29  C   UNL     1     -12.752   6.623  21.108  0.00  0.00    -0.050 A 
ATOM     30  C   UNL     1     -11.487   7.230  20.601  0.00  0.00    +0.044 C 
ENDBRANCH   1  19
ENDBRANCH   8   1
ENDBRANCH  13   8
ENDBRANCH  10  13
BRANCH  12  14
ATOM     14  C   UNL     1     -18.255   0.609  23.351  0.00  0.00    +0.190 C 
BRANCH  14   4
ATOM      4  O   UNL     1     -17.275   1.285  22.581  0.00  0.00    -0.392 OA
ATOM     33  H   UNL     1     -17.399   1.012  21.656  0.00  0.00    +0.210 HD
ENDBRANCH  14   4
ENDBRANCH  12  14
TORSDOF 11
ENDMDL
MODEL 4
REMARK VINA RESULT:      -6.2     28.095     30.199
REMARK  Name = 28962187
REMARK  13 active torsions:
REMARK  status: ('A' for Active; 'I' for Inactive)
REMARK    1  A    between atoms: S_1  and  N_8
REMARK    2  A    between atoms: S_1  and  C_19
REMARK    3  A    between atoms: O_3  and  C_11
REMARK    4  A    between atoms: O_4  and  C_14
REMARK    5  A    between atoms: N_7  and  C_9
REMARK    6  A    between atoms: N_7  and  C_15
REMARK    7  A    between atoms: N_7  and  C_16
REMARK    8  A    between atoms: N_8  and  C_13
REMARK    9  A    between atoms: C_10  and  C_13
REMARK   10  A    between atoms: C_12  and  C_14
REMARK   11  A    between atoms: C_15  and  C_17
REMARK   12  A    between atoms: C_17  and  C_18
REMARK   13  A    between atoms: C_29  and  C_30
REMARK                            x       y       z     vdW  Elec       q    Type
REMARK                         _______ _______ _______ _____ _____    ______ ____
ROOT
ATOM      2  O   UNL     1      -5.201 -10.107  18.288  0.00  0.00    -0.366 OA
ATOM      9  C   UNL     1      -4.337 -11.610  16.658  0.00  0.00    +0.118 C 
ATOM     10  C   UNL     1      -4.781 -10.163  16.906  0.00  0.00    +0.154 C 
ATOM     11  C   UNL     1      -5.135 -12.395  17.688  0.00  0.00    +0.165 C 
ATOM     12  C   UNL     1      -5.109 -11.424  18.862  0.00  0.00    +0.174 C 
ENDROOT
BRANCH  11   3
ATOM      3  O   UNL     1      -6.471 -12.615  17.256  0.00  0.00    -0.388 OA
ATOM     31  H   UNL     1      -7.062 -12.184  17.896  0.00  0.00    +0.210 HD
ENDBRANCH  11   3
BRANCH   9   7
ATOM      7  N   UNL     1      -4.450 -12.089  15.291  0.00  0.00    -0.297 NA
ATOM     16  C   UNL     1      -4.118 -13.515  15.209  0.00  0.00    +0.105 C 
BRANCH   7  15
ATOM     15  C   UNL     1      -3.582 -11.319  14.395  0.00  0.00    +0.089 C 
BRANCH  15  17
ATOM     17  C   UNL     1      -3.702 -11.818  12.954  0.00  0.00    +0.050 C 
BRANCH  17  18
ATOM     18  C   UNL     1      -3.933 -10.679  11.993  0.00  0.00    -0.046 A 
ATOM     20  C   UNL     1      -5.135  -9.971  12.027  0.00  0.00    +0.003 A 
ATOM     21  C   UNL     1      -2.948 -10.335  11.068  0.00  0.00    +0.003 A 
ATOM     24  C   UNL     1      -5.349  -8.918  11.137  0.00  0.00    +0.000 A 
ATOM     25  C   UNL     1      -3.162  -9.282  10.178  0.00  0.00    +0.000 A 
ATOM     28  C   UNL     1      -4.364  -8.574  10.213  0.00  0.00    +0.000 A 
ENDBRANCH  17  18
ENDBRANCH  15  17
ENDBRANCH   7  15
ENDBRANCH   9   7
BRANCH  10  13
ATOM     13  C   UNL     1      -5.940  -9.647  16.060  0.00  0.00    +0.139 C 
BRANCH  13   8
ATOM      8  N   UNL     1      -7.112  -9.416  16.924  0.00  0.00    -0.187 NA
ATOM     32  H   UNL     1      -6.908  -9.077  17.873  0.00  0.00    +0.148 HD
BRANCH   8   1
ATOM      1  S   UNL     1      -8.550 -10.288  16.666  0.00  0.00    +0.058 S 
ATOM      5  O   UNL     1      -8.998 -10.858  17.923  0.00  0.00    -0.153 OA
ATOM      6  O   UNL     1      -8.388 -11.134  15.498  0.00  0.00    -0.153 OA
BRANCH   1  19
ATOM     19  C   UNL     1      -9.677  -9.002  16.219  0.00  0.00    +0.105 A 
ATOM     22  C   UNL     1     -10.304  -9.027  14.974  0.00  0.00    +0.029 A 
ATOM     23  C   UNL     1      -9.935  -7.960  17.110  0.00  0.00    +0.029 A 
ATOM     26  C   UNL     1     -11.192  -8.010  14.620  0.00  0.00    +0.005 A 
ATOM     27  C   UNL     1     -10.823  -6.943  16.756  0.00  0.00    +0.005 A 
ATOM     29  C   UNL     1     -11.450  -6.968  15.511  0.00  0.00    -0.050 A 
ATOM     30  C   UNL     1     -12.399  -5.882  15.132  0.00  0.00    +0.044 C 
ENDBRANCH   1  19
ENDBRANCH   8   1
ENDBRANCH  13   8
ENDBRANCH  10  13
BRANCH  12  14
ATOM     14  C   UNL     1      -6.217 -11.605  19.883  0.00  0.00    +0.190 C 
BRANCH  14   4
ATOM      4  O   UNL     1      -6.958 -10.398  19.974  0.00  0.00    -0.392 OA
ATOM     33  H   UNL     1      -6.611  -9.799  19.292  0.00  0.00    +0.210 HD
ENDBRANCH  14   4
ENDBRANCH  12  14
TORSDOF 11
ENDMDL
MODEL 5
REMARK VINA RESULT:      -6.1     27.493     30.525
REMARK  Name = 28962187
REMARK  13 active torsions:
REMARK  status: ('A' for Active; 'I' for Inactive)
REMARK    1  A    between atoms: S_1  and  N_8
REMARK    2  A    between atoms: S_1  and  C_19
REMARK    3  A    between atoms: O_3  and  C_11
REMARK    4  A    between atoms: O_4  and  C_14
REMARK    5  A    between atoms: N_7  and  C_9
REMARK    6  A    between atoms: N_7  and  C_15
REMARK    7  A    between atoms: N_7  and  C_16
REMARK    8  A    between atoms: N_8  and  C_13
REMARK    9  A    between atoms: C_10  and  C_13
REMARK   10  A    between atoms: C_12  and  C_14
REMARK   11  A    between atoms: C_15  and  C_17
REMARK   12  A    between atoms: C_17  and  C_18
REMARK   13  A    between atoms: C_29  and  C_30
REMARK                            x       y       z     vdW  Elec       q    Type
REMARK                         _______ _______ _______ _____ _____    ______ ____
ROOT
ATOM      2  O   UNL     1     -18.193   4.745  23.133  0.00  0.00    -0.366 OA
ATOM      9  C   UNL     1     -17.822   3.017  24.726  0.00  0.00    +0.118 C 
ATOM     10  C   UNL     1     -17.721   4.527  24.482  0.00  0.00    +0.154 C 
ATOM     11  C   UNL     1     -17.718   2.435  23.324  0.00  0.00    +0.165 C 
ATOM     12  C   UNL     1     -18.501   3.474  22.530  0.00  0.00    +0.174 C 
ENDROOT
BRANCH  11   3
ATOM      3  O   UNL     1     -16.369   2.384  22.880  0.00  0.00    -0.388 OA
ATOM     31  H   UNL     1     -16.258   1.564  22.371  0.00  0.00    +0.210 HD
ENDBRANCH  11   3
BRANCH   9   7
ATOM      7  N   UNL     1     -16.896   2.460  25.697  0.00  0.00    -0.297 NA
ATOM     16  C   UNL     1     -16.822   1.001  25.572  0.00  0.00    +0.105 C 
BRANCH   7  15
ATOM     15  C   UNL     1     -17.287   2.829  27.061  0.00  0.00    +0.089 C 
BRANCH  15  17
ATOM     17  C   UNL     1     -16.125   3.488  27.805  0.00  0.00    +0.050 C 
BRANCH  17  18
ATOM     18  C   UNL     1     -15.606   2.606  28.913  0.00  0.00    -0.046 A 
ATOM     20  C   UNL     1     -16.167   1.346  29.122  0.00  0.00    +0.003 A 
ATOM     21  C   UNL     1     -14.567   3.051  29.731  0.00  0.00    +0.003 A 
ATOM     24  C   UNL     1     -15.688   0.530  30.147  0.00  0.00    +0.000 A 
ATOM     25  C   UNL     1     -14.088   2.235  30.756  0.00  0.00    +0.000 A 
ATOM     28  C   UNL     1     -14.649   0.975  30.965  0.00  0.00    +0.000 A 
ENDBRANCH  17  18
ENDBRANCH  15  17
ENDBRANCH   7  15
ENDBRANCH   9   7
BRANCH  10  13
ATOM     13  C   UNL     1     -16.331   5.145  24.579  0.00  0.00    +0.139 C 
BRANCH  13   8
ATOM      8  N   UNL     1     -15.904   5.602  23.245  0.00  0.00    -0.187 NA
ATOM     32  H   UNL     1     -16.658   5.784  22.571  0.00  0.00    +0.148 HD
BRANCH   8   1
ATOM      1  S   UNL     1     -14.369   5.175  22.646  0.00  0.00    +0.058 S 
ATOM      5  O   UNL     1     -14.528   4.310  21.492  0.00  0.00    -0.153 OA
ATOM      6  O   UNL     1     -13.525   4.765  23.754  0.00  0.00    -0.153 OA
BRANCH   1  19
ATOM     19  C   UNL     1     -13.756   6.733  22.080  0.00  0.00    +0.105 A 
ATOM     22  C   UNL     1     -12.660   6.779  21.219  0.00  0.00    +0.029 A 
ATOM     23  C   UNL     1     -14.367   7.916  22.497  0.00  0.00    +0.029 A 
ATOM     26  C   UNL     1     -12.174   8.009  20.774  0.00  0.00    +0.005 A 
ATOM     27  C   UNL     1     -13.881   9.146  22.051  0.00  0.00    +0.005 A 
ATOM     29  C   UNL     1     -12.785   9.192  21.191  0.00  0.00    -0.050 A 
ATOM     30  C   UNL     1     -12.266  10.507  20.715  0.00  0.00    +0.044 C 
ENDBRANCH   1  19
ENDBRANCH   8   1
ENDBRANCH  13   8
ENDBRANCH  10  13
BRANCH  12  14
ATOM     14  C   UNL     1     -18.188   3.534  21.046  0.00  0.00    +0.190 C 
BRANCH  14   4
ATOM      4  O   UNL     1     -17.183   4.512  20.829  0.00  0.00    -0.392 OA
ATOM     33  H   UNL     1     -16.462   4.077  20.342  0.00  0.00    +0.210 HD
ENDBRANCH  14   4
ENDBRANCH  12  14
TORSDOF 11
ENDMDL
MODEL 6
REMARK VINA RESULT:      -6.1     34.201     36.602
REMARK  Name = 28962187
REMARK  13 active torsions:
REMARK  status: ('A' for Active; 'I' for Inactive)
REMARK    1  A    between atoms: S_1  and  N_8
REMARK    2  A    between atoms: S_1  and  C_19
REMARK    3  A    between atoms: O_3  and  C_11
REMARK    4  A    between atoms: O_4  and  C_14
REMARK    5  A    between atoms: N_7  and  C_9
REMARK    6  A    between atoms: N_7  and  C_15
REMARK    7  A    between atoms: N_7  and  C_16
REMARK    8  A    between atoms: N_8  and  C_13
REMARK    9  A    between atoms: C_10  and  C_13
REMARK   10  A    between atoms: C_12  and  C_14
REMARK   11  A    between atoms: C_15  and  C_17
REMARK   12  A    between atoms: C_17  and  C_18
REMARK   13  A    between atoms: C_29  and  C_30
REMARK                            x       y       z     vdW  Elec       q    Type
REMARK                         _______ _______ _______ _____ _____    ______ ____
ROOT
ATOM      2  O   UNL     1      -2.747 -14.272  -4.925  0.00  0.00    -0.366 OA
ATOM      9  C   UNL     1      -0.465 -13.601  -4.975  0.00  0.00    +0.118 C 
ATOM     10  C   UNL     1      -1.528 -14.338  -4.152  0.00  0.00    +0.154 C 
ATOM     11  C   UNL     1      -1.288 -12.633  -5.811  0.00  0.00    +0.165 C 
ATOM     12  C   UNL     1      -2.511 -13.491  -6.112  0.00  0.00    +0.174 C 
ENDROOT
BRANCH  11   3
ATOM      3  O   UNL     1      -1.662 -11.484  -5.061  0.00  0.00    -0.388 OA
ATOM     31  H   UNL     1      -1.732 -11.751  -4.130  0.00  0.00    +0.210 HD
ENDBRANCH  11   3
BRANCH   9   7
ATOM      7  N   UNL     1       0.624 -13.000  -4.224  0.00  0.00    -0.297 NA
ATOM     16  C   UNL     1       1.496 -12.216  -5.105  0.00  0.00    +0.105 C 
BRANCH   7  15
ATOM     15  C   UNL     1       1.406 -14.026  -3.528  0.00  0.00    +0.089 C 
BRANCH  15  17
ATOM     17  C   UNL     1       1.833 -13.543  -2.141  0.00  0.00    +0.050 C 
BRANCH  17  18
ATOM     18  C   UNL     1       3.035 -14.302  -1.637  0.00  0.00    -0.046 A 
ATOM     20  C   UNL     1       3.296 -15.588  -2.108  0.00  0.00    +0.003 A 
ATOM     21  C   UNL     1       3.884 -13.718  -0.697  0.00  0.00    +0.003 A 
ATOM     24  C   UNL     1       4.407 -16.291  -1.641  0.00  0.00    +0.000 A 
ATOM     25  C   UNL     1       4.996 -14.420  -0.230  0.00  0.00    +0.000 A 
ATOM     28  C   UNL     1       5.256 -15.707  -0.701  0.00  0.00    +0.000 A 
ENDBRANCH  17  18
ENDBRANCH  15  17
ENDBRANCH   7  15
ENDBRANCH   9   7
BRANCH  10  13
ATOM     13  C   UNL     1      -1.839 -13.773  -2.770  0.00  0.00    +0.139 C 
BRANCH  13   8
ATOM      8  N   UNL     1      -1.593 -14.809  -1.751  0.00  0.00    -0.187 NA
ATOM     32  H   UNL     1      -1.711 -15.781  -2.064  0.00  0.00    +0.148 HD
BRANCH   8   1
ATOM      1  S   UNL     1      -1.815 -14.454  -0.102  0.00  0.00    +0.058 S 
ATOM      5  O   UNL     1      -2.887 -15.278   0.425  0.00  0.00    -0.153 OA
ATOM      6  O   UNL     1      -1.848 -13.015   0.074  0.00  0.00    -0.153 OA
BRANCH   1  19
ATOM     19  C   UNL     1      -0.296 -15.025   0.598  0.00  0.00    +0.105 A 
ATOM     22  C   UNL     1       0.219 -16.267   0.227  0.00  0.00    +0.029 A 
ATOM     23  C   UNL     1       0.387 -14.235   1.523  0.00  0.00    +0.029 A 
ATOM     26  C   UNL     1       1.417 -16.719   0.781  0.00  0.00    +0.005 A 
ATOM     27  C   UNL     1       1.585 -14.687   2.077  0.00  0.00    +0.005 A 
ATOM     29  C   UNL     1       2.100 -15.929   1.706  0.00  0.00    -0.050 A 
ATOM     30  C   UNL     1       3.381 -16.412   2.298  0.00  0.00    +0.044 C 
ENDBRANCH   1  19
ENDBRANCH   8   1
ENDBRANCH  13   8
ENDBRANCH  10  13
BRANCH  12  14
ATOM     14  C   UNL     1      -3.772 -12.727  -6.471  0.00  0.00    +0.190 C 
BRANCH  14   4
ATOM      4  O   UNL     1      -3.410 -11.543  -7.162  0.00  0.00    -0.392 OA
ATOM     33  H   UNL     1      -3.835 -10.801  -6.699  0.00  0.00    +0.210 HD
ENDBRANCH  14   4
ENDBRANCH  12  14
TORSDOF 11
ENDMDL
MODEL 7
REMARK VINA RESULT:      -6.0     16.055     20.860
REMARK  Name = 28962187
REMARK  13 active torsions:
REMARK  status: ('A' for Active; 'I' for Inactive)
REMARK    1  A    between atoms: S_1  and  N_8
REMARK    2  A    between atoms: S_1  and  C_19
REMARK    3  A    between atoms: O_3  and  C_11
REMARK    4  A    between atoms: O_4  and  C_14
REMARK    5  A    between atoms: N_7  and  C_9
REMARK    6  A    between atoms: N_7  and  C_15
REMARK    7  A    between atoms: N_7  and  C_16
REMARK    8  A    between atoms: N_8  and  C_13
REMARK    9  A    between atoms: C_10  and  C_13
REMARK   10  A    between atoms: C_12  and  C_14
REMARK   11  A    between atoms: C_15  and  C_17
REMARK   12  A    between atoms: C_17  and  C_18
REMARK   13  A    between atoms: C_29  and  C_30
REMARK                            x       y       z     vdW  Elec       q    Type
REMARK                         _______ _______ _______ _____ _____    ______ ____
ROOT
ATOM      2  O   UNL     1      12.633   7.496   2.151  0.00  0.00    -0.366 OA
ATOM      9  C   UNL     1      13.676   5.500   1.380  0.00  0.00    +0.118 C 
ATOM     10  C   UNL     1      12.350   6.111   1.849  0.00  0.00    +0.154 C 
ATOM     11  C   UNL     1      14.717   6.377   2.060  0.00  0.00    +0.165 C 
ATOM     12  C   UNL     1      14.040   7.740   1.966  0.00  0.00    +0.174 C 
ENDROOT
BRANCH  11   3
ATOM      3  O   UNL     1      14.901   6.008   3.420  0.00  0.00    -0.388 OA
ATOM     31  H   UNL     1      14.298   6.549   3.956  0.00  0.00    +0.210 HD
ENDBRANCH  11   3
BRANCH   9   7
ATOM      7  N   UNL     1      13.835   4.072   1.593  0.00  0.00    -0.297 NA
ATOM     16  C   UNL     1      15.196   3.643   1.258  0.00  0.00    +0.105 C 
BRANCH   7  15
ATOM     15  C   UNL     1      12.860   3.315   0.802  0.00  0.00    +0.089 C 
BRANCH  15  17
ATOM     17  C   UNL     1      13.256   3.288  -0.675  0.00  0.00    +0.050 C 
BRANCH  17  18
ATOM     18  C   UNL     1      12.052   3.422  -1.573  0.00  0.00    -0.046 A 
ATOM     20  C   UNL     1      11.782   2.442  -2.529  0.00  0.00    +0.003 A 
ATOM     21  C   UNL     1      11.208   4.525  -1.448  0.00  0.00    +0.003 A 
ATOM     24  C   UNL     1      10.668   2.566  -3.359  0.00  0.00    +0.000 A 
ATOM     25  C   UNL     1      10.094   4.649  -2.279  0.00  0.00    +0.000 A 
ATOM     28  C   UNL     1       9.825   3.670  -3.235  0.00  0.00    +0.000 A 
ENDBRANCH  17  18
ENDBRANCH  15  17
ENDBRANCH   7  15
ENDBRANCH   9   7
BRANCH  10  13
ATOM     13  C   UNL     1      11.716   5.498   3.093  0.00  0.00    +0.139 C 
BRANCH  13   8
ATOM      8  N   UNL     1      11.736   6.484   4.189  0.00  0.00    -0.187 NA
ATOM     32  H   UNL     1      12.462   6.344   4.903  0.00  0.00    +0.148 HD
BRANCH   8   1
ATOM      1  S   UNL     1      10.311   7.301   4.631  0.00  0.00    +0.058 S 
ATOM      5  O   UNL     1       9.250   6.949   3.705  0.00  0.00    -0.153 OA
ATOM      6  O   UNL     1      10.622   8.694   4.887  0.00  0.00    -0.153 OA
BRANCH   1  19
ATOM     19  C   UNL     1       9.939   6.560   6.192  0.00  0.00    +0.105 A 
ATOM     22  C   UNL     1       9.399   7.332   7.219  0.00  0.00    +0.029 A 
ATOM     23  C   UNL     1      10.189   5.202   6.397  0.00  0.00    +0.029 A 
ATOM     26  C   UNL     1       9.108   6.748   8.452  0.00  0.00    +0.005 A 
ATOM     27  C   UNL     1       9.898   4.618   7.630  0.00  0.00    +0.005 A 
ATOM     29  C   UNL     1       9.358   5.391   8.658  0.00  0.00    -0.050 A 
ATOM     30  C   UNL     1       9.047   4.767   9.976  0.00  0.00    +0.044 C 
ENDBRANCH   1  19
ENDBRANCH   8   1
ENDBRANCH  13   8
ENDBRANCH  10  13
BRANCH  12  14
ATOM     14  C   UNL     1      14.508   8.772   2.976  0.00  0.00    +0.190 C 
BRANCH  14   4
ATOM      4  O   UNL     1      13.702   8.671   4.139  0.00  0.00    -0.392 OA
ATOM     33  H   UNL     1      13.246   7.814   4.097  0.00  0.00    +0.210 HD
ENDBRANCH  14   4
ENDBRANCH  12  14
TORSDOF 11
ENDMDL
MODEL 8
REMARK VINA RESULT:      -5.9     15.658     18.927
REMARK  Name = 28962187
REMARK  13 active torsions:
REMARK  status: ('A' for Active; 'I' for Inactive)
REMARK    1  A    between atoms: S_1  and  N_8
REMARK    2  A    between atoms: S_1  and  C_19
REMARK    3  A    between atoms: O_3  and  C_11
REMARK    4  A    between atoms: O_4  and  C_14
REMARK    5  A    between atoms: N_7  and  C_9
REMARK    6  A    between atoms: N_7  and  C_15
REMARK    7  A    between atoms: N_7  and  C_16
REMARK    8  A    between atoms: N_8  and  C_13
REMARK    9  A    between atoms: C_10  and  C_13
REMARK   10  A    between atoms: C_12  and  C_14
REMARK   11  A    between atoms: C_15  and  C_17
REMARK   12  A    between atoms: C_17  and  C_18
REMARK   13  A    between atoms: C_29  and  C_30
REMARK                            x       y       z     vdW  Elec       q    Type
REMARK                         _______ _______ _______ _____ _____    ______ ____
ROOT
ATOM      2  O   UNL     1      14.318   7.492   0.688  0.00  0.00    -0.366 OA
ATOM      9  C   UNL     1      13.334   5.361   1.075  0.00  0.00    +0.118 C 
ATOM     10  C   UNL     1      13.127   6.873   1.221  0.00  0.00    +0.154 C 
ATOM     11  C   UNL     1      14.849   5.220   1.082  0.00  0.00    +0.165 C 
ATOM     12  C   UNL     1      15.250   6.465   0.300  0.00  0.00    +0.174 C 
ENDROOT
BRANCH  11   3
ATOM      3  O   UNL     1      15.371   5.275   2.403  0.00  0.00    -0.388 OA
ATOM     31  H   UNL     1      14.666   5.607   2.984  0.00  0.00    +0.210 HD
ENDBRANCH  11   3
BRANCH   9   7
ATOM      7  N   UNL     1      12.630   4.521   2.029  0.00  0.00    -0.297 NA
ATOM     16  C   UNL     1      12.741   3.106   1.662  0.00  0.00    +0.105 C 
BRANCH   7  15
ATOM     15  C   UNL     1      11.218   4.907   2.120  0.00  0.00    +0.089 C 
BRANCH  15  17
ATOM     17  C   UNL     1      10.663   4.625   3.517  0.00  0.00    +0.050 C 
BRANCH  17  18
ATOM     18  C   UNL     1       9.723   5.715   3.969  0.00  0.00    -0.046 A 
ATOM     20  C   UNL     1       8.915   5.519   5.089  0.00  0.00    +0.003 A 
ATOM     21  C   UNL     1       9.660   6.918   3.266  0.00  0.00    +0.003 A 
ATOM     24  C   UNL     1       8.045   6.527   5.507  0.00  0.00    +0.000 A 
ATOM     25  C   UNL     1       8.790   7.925   3.683  0.00  0.00    +0.000 A 
ATOM     28  C   UNL     1       7.982   7.729   4.803  0.00  0.00    +0.000 A 
ENDBRANCH  17  18
ENDBRANCH  15  17
ENDBRANCH   7  15
ENDBRANCH   9   7
BRANCH  10  13
ATOM     13  C   UNL     1      12.936   7.404   2.637  0.00  0.00    +0.139 C 
BRANCH  13   8
ATOM      8  N   UNL     1      14.057   8.299   2.979  0.00  0.00    -0.187 NA
ATOM     32  H   UNL     1      14.663   8.575   2.196  0.00  0.00    +0.148 HD
BRANCH   8   1
ATOM      1  S   UNL     1      14.713   8.286   4.549  0.00  0.00    +0.058 S 
ATOM      5  O   UNL     1      15.372   9.554   4.803  0.00  0.00    -0.153 OA
ATOM      6  O   UNL     1      15.427   7.039   4.754  0.00  0.00    -0.153 OA
BRANCH   1  19
ATOM     19  C   UNL     1      13.257   8.218   5.548  0.00  0.00    +0.105 A 
ATOM     22  C   UNL     1      12.432   9.336   5.654  0.00  0.00    +0.029 A 
ATOM     23  C   UNL     1      12.936   7.046   6.234  0.00  0.00    +0.029 A 
ATOM     26  C   UNL     1      11.284   9.284   6.445  0.00  0.00    +0.005 A 
ATOM     27  C   UNL     1      11.788   6.993   7.025  0.00  0.00    +0.005 A 
ATOM     29  C   UNL     1      10.962   8.112   7.131  0.00  0.00    -0.050 A 
ATOM     30  C   UNL     1       9.735   8.055   7.976  0.00  0.00    +0.044 C 
ENDBRANCH   1  19
ENDBRANCH   8   1
ENDBRANCH  13   8
ENDBRANCH  10  13
BRANCH  12  14
ATOM     14  C   UNL     1      16.667   6.957   0.537  0.00  0.00    +0.190 C 
BRANCH  14   4
ATOM      4  O   UNL     1      16.742   7.529   1.833  0.00  0.00    -0.392 OA
ATOM     33  H   UNL     1      17.549   8.070   1.860  0.00  0.00    +0.210 HD
ENDBRANCH  14   4
ENDBRANCH  12  14
TORSDOF 11
ENDMDL
MODEL 9
REMARK VINA RESULT:      -5.8      4.150      6.802
REMARK  Name = 28962187
REMARK  13 active torsions:
REMARK  status: ('A' for Active; 'I' for Inactive)
REMARK    1  A    between atoms: S_1  and  N_8
REMARK    2  A    between atoms: S_1  and  C_19
REMARK    3  A    between atoms: O_3  and  C_11
REMARK    4  A    between atoms: O_4  and  C_14
REMARK    5  A    between atoms: N_7  and  C_9
REMARK    6  A    between atoms: N_7  and  C_15
REMARK    7  A    between atoms: N_7  and  C_16
REMARK    8  A    between atoms: N_8  and  C_13
REMARK    9  A    between atoms: C_10  and  C_13
REMARK   10  A    between atoms: C_12  and  C_14
REMARK   11  A    between atoms: C_15  and  C_17
REMARK   12  A    between atoms: C_17  and  C_18
REMARK   13  A    between atoms: C_29  and  C_30
REMARK                            x       y       z     vdW  Elec       q    Type
REMARK                         _______ _______ _______ _____ _____    ______ ____
ROOT
ATOM      2  O   UNL     1      11.400   8.135  20.488  0.00  0.00    -0.366 OA
ATOM      9  C   UNL     1      13.691   8.768  20.597  0.00  0.00    +0.118 C 
ATOM     10  C   UNL     1      12.385   8.949  19.813  0.00  0.00    +0.154 C 
ATOM     11  C   UNL     1      13.520   7.399  21.237  0.00  0.00    +0.165 C 
ATOM     12  C   UNL     1      12.034   7.429  21.571  0.00  0.00    +0.174 C 
ENDROOT
BRANCH  11   3
ATOM      3  O   UNL     1      13.801   6.354  20.316  0.00  0.00    -0.388 OA
ATOM     31  H   UNL     1      13.039   5.751  20.314  0.00  0.00    +0.210 HD
ENDBRANCH  11   3
BRANCH   9   7
ATOM      7  N   UNL     1      14.921   8.951  19.845  0.00  0.00    -0.297 NA
ATOM     16  C   UNL     1      15.948   8.001  20.285  0.00  0.00    +0.105 C 
BRANCH   7  15
ATOM     15  C   UNL     1      15.416  10.324  19.982  0.00  0.00    +0.089 C 
BRANCH  15  17
ATOM     17  C   UNL     1      16.596  10.387  20.953  0.00  0.00    +0.050 C 
BRANCH  17  18
ATOM     18  C   UNL     1      17.749  11.167  20.372  0.00  0.00    -0.046 A 
ATOM     20  C   UNL     1      17.507  12.194  19.460  0.00  0.00    +0.003 A 
ATOM     21  C   UNL     1      19.058  10.861  20.745  0.00  0.00    +0.003 A 
ATOM     24  C   UNL     1      18.573  12.916  18.922  0.00  0.00    +0.000 A 
ATOM     25  C   UNL     1      20.124  11.582  20.208  0.00  0.00    +0.000 A 
ATOM     28  C   UNL     1      19.882  12.609  19.295  0.00  0.00    +0.000 A 
ENDBRANCH  17  18
ENDBRANCH  15  17
ENDBRANCH   7  15
ENDBRANCH   9   7
BRANCH  10  13
ATOM     13  C   UNL     1      12.400   8.519  18.350  0.00  0.00    +0.139 C 
BRANCH  13   8
ATOM      8  N   UNL     1      12.705   9.685  17.501  0.00  0.00    -0.187 NA
ATOM     32  H   UNL     1      12.207  10.553  17.737  0.00  0.00    +0.148 HD
BRANCH   8   1
ATOM      1  S   UNL     1      13.229   9.461  15.898  0.00  0.00    +0.058 S 
ATOM      5  O   UNL     1      12.155   9.814  14.989  0.00  0.00    -0.153 OA
ATOM      6  O   UNL     1      13.882   8.170  15.788  0.00  0.00    -0.153 OA
BRANCH   1  19
ATOM     19  C   UNL     1      14.491  10.691  15.755  0.00  0.00    +0.105 A 
ATOM     22  C   UNL     1      14.555  11.733  16.678  0.00  0.00    +0.029 A 
ATOM     23  C   UNL     1      15.420  10.620  14.716  0.00  0.00    +0.029 A 
ATOM     26  C   UNL     1      15.549  12.706  16.564  0.00  0.00    +0.005 A 
ATOM     27  C   UNL     1      16.413  11.593  14.602  0.00  0.00    +0.005 A 
ATOM     29  C   UNL     1      16.478  12.635  15.526  0.00  0.00    -0.050 A 
ATOM     30  C   UNL     1      17.540  13.675  15.405  0.00  0.00    +0.044 C 
ENDBRANCH   1  19
ENDBRANCH   8   1
ENDBRANCH  13   8
ENDBRANCH  10  13
BRANCH  12  14
ATOM     14  C   UNL     1      11.375   6.072  21.738  0.00  0.00    +0.190 C 
BRANCH  14   4
ATOM      4  O   UNL     1      11.251   5.462  20.463  0.00  0.00    -0.392 OA
ATOM     33  H   UNL     1      11.564   4.546  20.554  0.00  0.00    +0.210 HD
ENDBRANCH  14   4
ENDBRANCH  12  14
TORSDOF 11
ENDMDL
MODEL 10
REMARK VINA RESULT:      -5.7     25.981     29.186
REMARK  Name = 28962187
REMARK  13 active torsions:
REMARK  status: ('A' for Active; 'I' for Inactive)
REMARK    1  A    between atoms: S_1  and  N_8
REMARK    2  A    between atoms: S_1  and  C_19
REMARK    3  A    between atoms: O_3  and  C_11
REMARK    4  A    between atoms: O_4  and  C_14
REMARK    5  A    between atoms: N_7  and  C_9
REMARK    6  A    between atoms: N_7  and  C_15
REMARK    7  A    between atoms: N_7  and  C_16
REMARK    8  A    between atoms: N_8  and  C_13
REMARK    9  A    between atoms: C_10  and  C_13
REMARK   10  A    between atoms: C_12  and  C_14
REMARK   11  A    between atoms: C_15  and  C_17
REMARK   12  A    between atoms: C_17  and  C_18
REMARK   13  A    between atoms: C_29  and  C_30
REMARK                            x       y       z     vdW  Elec       q    Type
REMARK                         _______ _______ _______ _____ _____    ______ ____
ROOT
ATOM      2  O   UNL     1     -16.308   5.514  22.772  0.00  0.00    -0.366 OA
ATOM      9  C   UNL     1     -14.217   6.363  22.018  0.00  0.00    +0.118 C 
ATOM     10  C   UNL     1     -15.720   6.310  21.719  0.00  0.00    +0.154 C 
ATOM     11  C   UNL     1     -13.981   5.090  22.816  0.00  0.00    +0.165 C 
ATOM     12  C   UNL     1     -15.263   5.031  23.637  0.00  0.00    +0.174 C 
ENDROOT
BRANCH  11   3
ATOM      3  O   UNL     1     -13.883   3.953  21.967  0.00  0.00    -0.388 OA
ATOM     31  H   UNL     1     -12.991   3.949  21.584  0.00  0.00    +0.210 HD
ENDBRANCH  11   3
BRANCH   9   7
ATOM      7  N   UNL     1     -13.341   6.548  20.873  0.00  0.00    -0.297 NA
ATOM     16  C   UNL     1     -11.957   6.203  21.214  0.00  0.00    +0.105 C 
BRANCH   7  15
ATOM     15  C   UNL     1     -13.409   7.928  20.383  0.00  0.00    +0.089 C 
BRANCH  15  17
ATOM     17  C   UNL     1     -12.097   8.668  20.648  0.00  0.00    +0.050 C 
BRANCH  17  18
ATOM     18  C   UNL     1     -11.391   9.020  19.363  0.00  0.00    -0.046 A 
ATOM     20  C   UNL     1     -11.391   8.119  18.298  0.00  0.00    +0.003 A 
ATOM     21  C   UNL     1     -10.736  10.245  19.239  0.00  0.00    +0.003 A 
ATOM     24  C   UNL     1     -10.737   8.444  17.109  0.00  0.00    +0.000 A 
ATOM     25  C   UNL     1     -10.082  10.570  18.050  0.00  0.00    +0.000 A 
ATOM     28  C   UNL     1     -10.082   9.669  16.986  0.00  0.00    +0.000 A 
ENDBRANCH  17  18
ENDBRANCH  15  17
ENDBRANCH   7  15
ENDBRANCH   9   7
BRANCH  10  13
ATOM     13  C   UNL     1     -16.132   5.679  20.393  0.00  0.00    +0.139 C 
BRANCH  13   8
ATOM      8  N   UNL     1     -17.393   6.288  19.933  0.00  0.00    -0.187 NA
ATOM     32  H   UNL     1     -18.211   6.133  20.536  0.00  0.00    +0.148 HD
BRANCH   8   1
ATOM      1  S   UNL     1     -17.650   6.571  18.275  0.00  0.00    +0.058 S 
ATOM      5  O   UNL     1     -18.985   7.105  18.081  0.00  0.00    -0.153 OA
ATOM      6  O   UNL     1     -17.212   5.411  17.522  0.00  0.00    -0.153 OA
BRANCH   1  19
ATOM     19  C   UNL     1     -16.493   7.866  17.946  0.00  0.00    +0.105 A 
ATOM     22  C   UNL     1     -15.528   7.703  16.953  0.00  0.00    +0.029 A 
ATOM     23  C   UNL     1     -16.542   9.050  18.684  0.00  0.00    +0.029 A 
ATOM     26  C   UNL     1     -14.612   8.724  16.695  0.00  0.00    +0.005 A 
ATOM     27  C   UNL     1     -15.627  10.071  18.426  0.00  0.00    +0.005 A 
ATOM     29  C   UNL     1     -14.662   9.908  17.433  0.00  0.00    -0.050 A 
ATOM     30  C   UNL     1     -13.684  10.999  17.157  0.00  0.00    +0.044 C 
ENDBRANCH   1  19
ENDBRANCH   8   1
ENDBRANCH  13   8
ENDBRANCH  10  13
BRANCH  12  14
ATOM     14  C   UNL     1     -15.641   3.657  24.161  0.00  0.00    +0.190 C 
BRANCH  14   4
ATOM      4  O   UNL     1     -16.082   2.858  23.075  0.00  0.00    -0.392 OA
ATOM     33  H   UNL     1     -15.897   1.933  23.307  0.00  0.00    +0.210 HD
ENDBRANCH  14   4
ENDBRANCH  12  14
TORSDOF 11
ENDMDL
