MODEL 1
REMARK VINA RESULT:      -6.7      0.000      0.000
REMARK  Name = 51138084
REMARK  10 active torsions:
REMARK  status: ('A' for Active; 'I' for Inactive)
REMARK    1  A    between atoms: N_4  and  C_22
REMARK    2  A    between atoms: N_5  and  C_23
REMARK    3  A    between atoms: C_6  and  C_10
REMARK    4  A    between atoms: C_8  and  C_17
REMARK    5  A    between atoms: C_10  and  C_13
REMARK    6  A    between atoms: C_13  and  C_20
REMARK    7  A    between atoms: C_13  and  C_21
REMARK    8  A    between atoms: C_22  and  C_24
REMARK    9  A    between atoms: C_23  and  C_25
REMARK   10  A    between atoms: C_26  and  C_30
REMARK                            x       y       z     vdW  Elec       q    Type
REMARK                         _______ _______ _______ _____ _____    ______ ____
ROOT
ATOM      3  N   UNL     1     -13.003   9.336  21.354  0.00  0.00    -0.299 NA
ATOM      4  N   UNL     1     -10.732  11.482  17.387  0.00  0.00    -0.335 N 
ATOM      6  C   UNL     1     -12.263   8.257  20.687  0.00  0.00    +0.085 C 
ATOM      7  C   UNL     1     -11.629   8.613  19.339  0.00  0.00    -0.021 A 
ATOM      8  C   UNL     1     -12.191  10.478  21.748  0.00  0.00    +0.145 C 
ATOM      9  C   UNL     1     -11.411   9.937  18.860  0.00  0.00    +0.008 A 
ATOM     11  C   UNL     1     -12.263  11.600  20.714  0.00  0.00    +0.065 C 
ATOM     12  C   UNL     1     -11.658  11.248  19.396  0.00  0.00    -0.020 A 
ATOM     14  C   UNL     1     -10.807  10.128  17.611  0.00  0.00    +0.050 A 
ATOM     15  C   UNL     1     -11.234  12.165  18.455  0.00  0.00    +0.091 A 
ATOM     16  C   UNL     1     -11.144   7.563  18.519  0.00  0.00    +0.006 A 
ATOM     18  C   UNL     1     -10.378   9.078  16.797  0.00  0.00    +0.026 A 
ATOM     19  C   UNL     1     -10.545   7.787  17.280  0.00  0.00    +0.002 A 
ATOM     31  H   UNL     1     -13.803   9.629  20.794  0.00  0.00    +0.123 HD
ENDROOT
BRANCH   8  17
ATOM      2  O   UNL     1     -13.931  10.665  23.370  0.00  0.00    -0.274 OA
ATOM      5  N   UNL     1     -11.913  11.761  23.750  0.00  0.00    -0.309 N 
ATOM     17  C   UNL     1     -12.787  10.959  23.036  0.00  0.00    +0.231 C 
ATOM     32  H   UNL     1     -10.977  11.932  23.392  0.00  0.00    +0.149 HD
BRANCH   5  23
ATOM     23  C   UNL     1     -12.253  12.371  25.014  0.00  0.00    +0.146 C 
BRANCH  23  25
ATOM      1  S   UNL     1     -12.831  11.601  27.621  0.00  0.00    -0.100 S 
ATOM     25  C   UNL     1     -11.921  11.478  26.175  0.00  0.00    +0.007 A 
ATOM     27  C   UNL     1     -10.938  10.516  26.264  0.00  0.00    +0.013 A 
ATOM     28  C   UNL     1     -10.933   9.873  27.535  0.00  0.00    +0.008 A 
ATOM     29  C   UNL     1     -11.910  10.367  28.370  0.00  0.00    +0.045 A 
ENDBRANCH  23  25
ENDBRANCH   5  23
ENDBRANCH   8  17
BRANCH   6  10
ATOM     10  C   UNL     1     -13.275   7.102  20.577  0.00  0.00    +0.026 C 
BRANCH  10  13
ATOM     13  C   UNL     1     -14.715   7.584  20.382  0.00  0.00    -0.015 C 
ATOM     20  C   UNL     1     -15.673   6.606  21.066  0.00  0.00    +0.007 C 
ATOM     21  C   UNL     1     -15.092   7.729  18.906  0.00  0.00    +0.007 C 
ENDBRANCH  10  13
ENDBRANCH   6  10
BRANCH   4  22
ATOM     22  C   UNL     1     -10.183  12.111  16.205  0.00  0.00    +0.210 C 
BRANCH  22  24
ATOM     24  C   UNL     1      -8.925  12.814  16.488  0.00  0.00    -0.081 C 
ATOM     26  C   UNL     1      -7.898  13.390  16.722  0.00  0.00    -0.104 C 
ATOM     30  C   UNL     1      -6.647  14.091  17.005  0.00  0.00    +0.106 C 
ENDBRANCH  22  24
ENDBRANCH   4  22
TORSDOF 7
ENDMDL
MODEL 2
REMARK VINA RESULT:      -6.6     19.422     22.137
REMARK  Name = 51138084
REMARK  10 active torsions:
REMARK  status: ('A' for Active; 'I' for Inactive)
REMARK    1  A    between atoms: N_4  and  C_22
REMARK    2  A    between atoms: N_5  and  C_23
REMARK    3  A    between atoms: C_6  and  C_10
REMARK    4  A    between atoms: C_8  and  C_17
REMARK    5  A    between atoms: C_10  and  C_13
REMARK    6  A    between atoms: C_13  and  C_20
REMARK    7  A    between atoms: C_13  and  C_21
REMARK    8  A    between atoms: C_22  and  C_24
REMARK    9  A    between atoms: C_23  and  C_25
REMARK   10  A    between atoms: C_26  and  C_30
REMARK                            x       y       z     vdW  Elec       q    Type
REMARK                         _______ _______ _______ _____ _____    ______ ____
ROOT
ATOM      3  N   UNL     1      -6.901 -11.050  16.489  0.00  0.00    -0.299 NA
ATOM      4  N   UNL     1      -3.783 -10.275  12.593  0.00  0.00    -0.335 N 
ATOM      6  C   UNL     1      -5.564 -10.890  17.075  0.00  0.00    +0.085 C 
ATOM      7  C   UNL     1      -4.401 -10.824  16.080  0.00  0.00    -0.021 A 
ATOM      8  C   UNL     1      -7.339  -9.936  15.659  0.00  0.00    +0.145 C 
ATOM      9  C   UNL     1      -4.529 -10.567  14.685  0.00  0.00    +0.008 A 
ATOM     11  C   UNL     1      -7.087 -10.210  14.177  0.00  0.00    +0.065 C 
ATOM     12  C   UNL     1      -5.642 -10.298  13.816  0.00  0.00    -0.020 A 
ATOM     14  C   UNL     1      -3.381 -10.519  13.884  0.00  0.00    +0.050 A 
ATOM     15  C   UNL     1      -5.139 -10.134  12.540  0.00  0.00    +0.091 A 
ATOM     16  C   UNL     1      -3.078 -10.949  16.575  0.00  0.00    +0.006 A 
ATOM     18  C   UNL     1      -2.089 -10.691  14.384  0.00  0.00    +0.026 A 
ATOM     19  C   UNL     1      -1.955 -10.895  15.750  0.00  0.00    +0.002 A 
ATOM     31  H   UNL     1      -6.976 -11.934  15.988  0.00  0.00    +0.123 HD
ENDROOT
BRANCH   8  17
ATOM      2  O   UNL     1      -9.628 -10.412  15.185  0.00  0.00    -0.274 OA
ATOM      5  N   UNL     1      -9.114  -8.994  16.959  0.00  0.00    -0.309 N 
ATOM     17  C   UNL     1      -8.814  -9.827  15.894  0.00  0.00    +0.231 C 
ATOM     32  H   UNL     1      -8.363  -8.568  17.494  0.00  0.00    +0.149 HD
BRANCH   5  23
ATOM     23  C   UNL     1     -10.465  -8.702  17.378  0.00  0.00    +0.146 C 
BRANCH  23  25
ATOM      1  S   UNL     1     -12.747  -7.942  15.985  0.00  0.00    -0.100 S 
ATOM     25  C   UNL     1     -11.126  -7.695  16.481  0.00  0.00    +0.007 A 
ATOM     27  C   UNL     1     -10.598  -6.533  15.961  0.00  0.00    +0.013 A 
ATOM     28  C   UNL     1     -11.537  -5.837  15.147  0.00  0.00    +0.008 A 
ATOM     29  C   UNL     1     -12.746  -6.493  15.074  0.00  0.00    +0.045 A 
ENDBRANCH  23  25
ENDBRANCH   5  23
ENDBRANCH   8  17
BRANCH   6  10
ATOM     10  C   UNL     1      -5.430 -12.063  18.063  0.00  0.00    +0.026 C 
BRANCH  10  13
ATOM     13  C   UNL     1      -5.994 -11.744  19.451  0.00  0.00    -0.015 C 
ATOM     20  C   UNL     1      -7.342 -12.449  19.623  0.00  0.00    +0.007 C 
ATOM     21  C   UNL     1      -6.162 -10.242  19.687  0.00  0.00    +0.007 C 
ENDBRANCH  10  13
ENDBRANCH   6  10
BRANCH   4  22
ATOM     22  C   UNL     1      -2.909 -10.160  11.446  0.00  0.00    +0.210 C 
BRANCH  22  24
ATOM     24  C   UNL     1      -3.661 -10.022  10.192  0.00  0.00    -0.081 C 
ATOM     26  C   UNL     1      -4.274  -9.908   9.166  0.00  0.00    -0.104 C 
ATOM     30  C   UNL     1      -5.023  -9.770   7.918  0.00  0.00    +0.106 C 
ENDBRANCH  22  24
ENDBRANCH   4  22
TORSDOF 7
ENDMDL
MODEL 3
REMARK VINA RESULT:      -6.5     23.081     26.387
REMARK  Name = 51138084
REMARK  10 active torsions:
REMARK  status: ('A' for Active; 'I' for Inactive)
REMARK    1  A    between atoms: N_4  and  C_22
REMARK    2  A    between atoms: N_5  and  C_23
REMARK    3  A    between atoms: C_6  and  C_10
REMARK    4  A    between atoms: C_8  and  C_17
REMARK    5  A    between atoms: C_10  and  C_13
REMARK    6  A    between atoms: C_13  and  C_20
REMARK    7  A    between atoms: C_13  and  C_21
REMARK    8  A    between atoms: C_22  and  C_24
REMARK    9  A    between atoms: C_23  and  C_25
REMARK   10  A    between atoms: C_26  and  C_30
REMARK                            x       y       z     vdW  Elec       q    Type
REMARK                         _______ _______ _______ _____ _____    ______ ____
ROOT
ATOM      3  N   UNL     1      12.782   8.592  20.609  0.00  0.00    -0.299 NA
ATOM      4  N   UNL     1      17.675   9.246  21.673  0.00  0.00    -0.335 N 
ATOM      6  C   UNL     1      13.451   7.356  20.182  0.00  0.00    +0.085 C 
ATOM      7  C   UNL     1      14.982   7.372  20.231  0.00  0.00    -0.021 A 
ATOM      8  C   UNL     1      12.990   8.946  22.006  0.00  0.00    +0.145 C 
ATOM      9  C   UNL     1      15.769   8.317  20.948  0.00  0.00    +0.008 A 
ATOM     11  C   UNL     1      14.116   9.966  22.164  0.00  0.00    +0.065 C 
ATOM     12  C   UNL     1      15.462   9.444  21.789  0.00  0.00    -0.020 A 
ATOM     14  C   UNL     1      17.166   8.214  20.922  0.00  0.00    +0.050 A 
ATOM     15  C   UNL     1      16.661   9.988  22.203  0.00  0.00    +0.091 A 
ATOM     16  C   UNL     1      15.692   6.331  19.581  0.00  0.00    +0.006 A 
ATOM     18  C   UNL     1      17.848   7.206  20.237  0.00  0.00    +0.026 A 
ATOM     19  C   UNL     1      17.084   6.255  19.575  0.00  0.00    +0.002 A 
ATOM     31  H   UNL     1      13.023   9.368  19.993  0.00  0.00    +0.123 HD
ENDROOT
BRANCH   8  17
ATOM      2  O   UNL     1      10.621   9.232  21.970  0.00  0.00    -0.274 OA
ATOM      5  N   UNL     1      11.893  10.539  23.417  0.00  0.00    -0.309 N 
ATOM     17  C   UNL     1      11.700   9.567  22.450  0.00  0.00    +0.231 C 
ATOM     32  H   UNL     1      12.830  10.731  23.760  0.00  0.00    +0.149 HD
BRANCH   5  23
ATOM     23  C   UNL     1      10.813  11.305  23.995  0.00  0.00    +0.146 C 
BRANCH  23  25
ATOM      1  S   UNL     1      10.344  14.014  24.394  0.00  0.00    -0.100 S 
ATOM     25  C   UNL     1      10.710  12.675  23.390  0.00  0.00    +0.007 A 
ATOM     27  C   UNL     1      10.874  13.046  22.074  0.00  0.00    +0.013 A 
ATOM     28  C   UNL     1      10.696  14.447  21.886  0.00  0.00    +0.008 A 
ATOM     29  C   UNL     1      10.403  15.094  23.066  0.00  0.00    +0.045 A 
ENDBRANCH  23  25
ENDBRANCH   5  23
ENDBRANCH   8  17
BRANCH   6  10
ATOM     10  C   UNL     1      12.907   7.088  18.768  0.00  0.00    +0.026 C 
BRANCH  10  13
ATOM     13  C   UNL     1      12.898   8.339  17.883  0.00  0.00    -0.015 C 
ATOM     20  C   UNL     1      11.503   8.522  17.280  0.00  0.00    +0.007 C 
ATOM     21  C   UNL     1      13.940   8.275  16.764  0.00  0.00    +0.007 C 
ENDBRANCH  10  13
ENDBRANCH   6  10
BRANCH   4  22
ATOM     22  C   UNL     1      19.080   9.512  21.897  0.00  0.00    +0.210 C 
BRANCH  22  24
ATOM     24  C   UNL     1      19.592  10.559  21.003  0.00  0.00    -0.081 C 
ATOM     26  C   UNL     1      20.009  11.416  20.273  0.00  0.00    -0.104 C 
ATOM     30  C   UNL     1      20.517  12.458  19.384  0.00  0.00    +0.106 C 
ENDBRANCH  22  24
ENDBRANCH   4  22
TORSDOF 7
ENDMDL
MODEL 4
REMARK VINA RESULT:      -6.5     21.908     26.204
REMARK  Name = 51138084
REMARK  10 active torsions:
REMARK  status: ('A' for Active; 'I' for Inactive)
REMARK    1  A    between atoms: N_4  and  C_22
REMARK    2  A    between atoms: N_5  and  C_23
REMARK    3  A    between atoms: C_6  and  C_10
REMARK    4  A    between atoms: C_8  and  C_17
REMARK    5  A    between atoms: C_10  and  C_13
REMARK    6  A    between atoms: C_13  and  C_20
REMARK    7  A    between atoms: C_13  and  C_21
REMARK    8  A    between atoms: C_22  and  C_24
REMARK    9  A    between atoms: C_23  and  C_25
REMARK   10  A    between atoms: C_26  and  C_30
REMARK                            x       y       z     vdW  Elec       q    Type
REMARK                         _______ _______ _______ _____ _____    ______ ____
ROOT
ATOM      3  N   UNL     1      13.763   9.125  18.522  0.00  0.00    -0.299 NA
ATOM      4  N   UNL     1      11.672  12.308  21.838  0.00  0.00    -0.335 N 
ATOM      6  C   UNL     1      12.809   8.321  19.297  0.00  0.00    +0.085 C 
ATOM      7  C   UNL     1      12.168   9.020  20.501  0.00  0.00    -0.021 A 
ATOM      8  C   UNL     1      13.187  10.289  17.865  0.00  0.00    +0.145 C 
ATOM      9  C   UNL     1      12.157  10.427  20.721  0.00  0.00    +0.008 A 
ATOM     11  C   UNL     1      13.393  11.558  18.691  0.00  0.00    +0.065 C 
ATOM     12  C   UNL     1      12.660  11.559  19.991  0.00  0.00    -0.020 A 
ATOM     14  C   UNL     1      11.524  10.941  21.860  0.00  0.00    +0.050 A 
ATOM     15  C   UNL     1      12.347  12.690  20.717  0.00  0.00    +0.091 A 
ATOM     16  C   UNL     1      11.460   8.232  21.444  0.00  0.00    +0.006 A 
ATOM     18  C   UNL     1      10.871  10.144  22.802  0.00  0.00    +0.026 A 
ATOM     19  C   UNL     1      10.839   8.776  22.567  0.00  0.00    +0.002 A 
ATOM     31  H   UNL     1      14.568   9.384  19.092  0.00  0.00    +0.123 HD
ENDROOT
BRANCH   8  17
ATOM      2  O   UNL     1      14.429   9.448  16.010  0.00  0.00    -0.274 OA
ATOM      5  N   UNL     1      13.996  11.732  16.135  0.00  0.00    -0.309 N 
ATOM     17  C   UNL     1      13.932  10.420  16.571  0.00  0.00    +0.231 C 
ATOM     32  H   UNL     1      13.535  12.465  16.667  0.00  0.00    +0.149 HD
BRANCH   5  23
ATOM     23  C   UNL     1      14.679  12.131  14.926  0.00  0.00    +0.146 C 
BRANCH  23  25
ATOM      1  S   UNL     1      16.690  13.361  16.396  0.00  0.00    -0.100 S 
ATOM     25  C   UNL     1      16.152  12.318  15.149  0.00  0.00    +0.007 A 
ATOM     27  C   UNL     1      17.202  11.748  14.463  0.00  0.00    +0.013 A 
ATOM     28  C   UNL     1      18.464  12.172  14.969  0.00  0.00    +0.008 A 
ATOM     29  C   UNL     1      18.331  13.051  16.021  0.00  0.00    +0.045 A 
ENDBRANCH  23  25
ENDBRANCH   5  23
ENDBRANCH   8  17
BRANCH   6  10
ATOM     10  C   UNL     1      13.595   7.060  19.695  0.00  0.00    +0.026 C 
BRANCH  10  13
ATOM     13  C   UNL     1      15.030   7.363  20.138  0.00  0.00    -0.015 C 
ATOM     20  C   UNL     1      15.982   6.353  19.493  0.00  0.00    +0.007 C 
ATOM     21  C   UNL     1      15.196   7.332  21.658  0.00  0.00    +0.007 C 
ENDBRANCH  10  13
ENDBRANCH   6  10
BRANCH   4  22
ATOM     22  C   UNL     1      11.173  13.225  22.839  0.00  0.00    +0.210 C 
BRANCH  22  24
ATOM     24  C   UNL     1      10.052  14.031  22.339  0.00  0.00    -0.081 C 
ATOM     26  C   UNL     1       9.136  14.689  21.927  0.00  0.00    -0.104 C 
ATOM     30  C   UNL     1       8.021  15.491  21.428  0.00  0.00    +0.106 C 
ENDBRANCH  22  24
ENDBRANCH   4  22
TORSDOF 7
ENDMDL
MODEL 5
REMARK VINA RESULT:      -6.4     24.167     27.519
REMARK  Name = 51138084
REMARK  10 active torsions:
REMARK  status: ('A' for Active; 'I' for Inactive)
REMARK    1  A    between atoms: N_4  and  C_22
REMARK    2  A    between atoms: N_5  and  C_23
REMARK    3  A    between atoms: C_6  and  C_10
REMARK    4  A    between atoms: C_8  and  C_17
REMARK    5  A    between atoms: C_10  and  C_13
REMARK    6  A    between atoms: C_13  and  C_20
REMARK    7  A    between atoms: C_13  and  C_21
REMARK    8  A    between atoms: C_22  and  C_24
REMARK    9  A    between atoms: C_23  and  C_25
REMARK   10  A    between atoms: C_26  and  C_30
REMARK                            x       y       z     vdW  Elec       q    Type
REMARK                         _______ _______ _______ _____ _____    ______ ____
ROOT
ATOM      3  N   UNL     1      14.679   9.808  19.837  0.00  0.00    -0.299 NA
ATOM      4  N   UNL     1      19.084   8.043  21.564  0.00  0.00    -0.335 N 
ATOM      6  C   UNL     1      14.706   8.384  19.477  0.00  0.00    +0.085 C 
ATOM      7  C   UNL     1      16.029   7.654  19.731  0.00  0.00    -0.021 A 
ATOM      8  C   UNL     1      14.852  10.080  21.257  0.00  0.00    +0.145 C 
ATOM      9  C   UNL     1      17.079   8.128  20.569  0.00  0.00    +0.008 A 
ATOM     11  C   UNL     1      16.302  10.427  21.588  0.00  0.00    +0.065 C 
ATOM     12  C   UNL     1      17.257   9.299  21.385  0.00  0.00    -0.020 A 
ATOM     14  C   UNL     1      18.236   7.356  20.728  0.00  0.00    +0.050 A 
ATOM     15  C   UNL     1      18.504   9.208  21.970  0.00  0.00    +0.091 A 
ATOM     16  C   UNL     1      16.216   6.370  19.159  0.00  0.00    +0.006 A 
ATOM     18  C   UNL     1      18.420   6.113  20.119  0.00  0.00    +0.026 A 
ATOM     19  C   UNL     1      17.381   5.625  19.339  0.00  0.00    +0.002 A 
ATOM     31  H   UNL     1      15.346  10.338  19.277  0.00  0.00    +0.123 HD
ENDROOT
BRANCH   8  17
ATOM      2  O   UNL     1      14.459  12.346  21.889  0.00  0.00    -0.274 OA
ATOM      5  N   UNL     1      12.641  10.988  21.374  0.00  0.00    -0.309 N 
ATOM     17  C   UNL     1      13.986  11.270  21.538  0.00  0.00    +0.231 C 
ATOM     32  H   UNL     1      12.353  10.064  21.062  0.00  0.00    +0.149 HD
BRANCH   5  23
ATOM     23  C   UNL     1      11.595  11.957  21.605  0.00  0.00    +0.146 C 
BRANCH  23  25
ATOM      1  S   UNL     1      11.156  13.732  23.697  0.00  0.00    -0.100 S 
ATOM     25  C   UNL     1      11.320  12.147  23.069  0.00  0.00    +0.007 A 
ATOM     27  C   UNL     1      11.170  11.186  24.044  0.00  0.00    +0.013 A 
ATOM     28  C   UNL     1      10.918  11.759  25.324  0.00  0.00    +0.008 A 
ATOM     29  C   UNL     1      10.885  13.135  25.279  0.00  0.00    +0.045 A 
ENDBRANCH  23  25
ENDBRANCH   5  23
ENDBRANCH   8  17
BRANCH   6  10
ATOM     10  C   UNL     1      14.288   8.350  17.996  0.00  0.00    +0.026 C 
BRANCH  10  13
ATOM     13  C   UNL     1      12.916   7.705  17.776  0.00  0.00    -0.015 C 
ATOM     20  C   UNL     1      11.906   8.786  17.383  0.00  0.00    +0.007 C 
ATOM     21  C   UNL     1      12.415   6.953  19.010  0.00  0.00    +0.007 C 
ENDBRANCH  10  13
ENDBRANCH   6  10
BRANCH   4  22
ATOM     22  C   UNL     1      20.398   7.600  21.981  0.00  0.00    +0.210 C 
BRANCH  22  24
ATOM     24  C   UNL     1      20.472   7.386  23.432  0.00  0.00    -0.081 C 
ATOM     26  C   UNL     1      20.532   7.210  24.618  0.00  0.00    -0.104 C 
ATOM     30  C   UNL     1      20.605   6.997  26.062  0.00  0.00    +0.106 C 
ENDBRANCH  22  24
ENDBRANCH   4  22
TORSDOF 7
ENDMDL
MODEL 6
REMARK VINA RESULT:      -6.3     20.152     23.542
REMARK  Name = 51138084
REMARK  10 active torsions:
REMARK  status: ('A' for Active; 'I' for Inactive)
REMARK    1  A    between atoms: N_4  and  C_22
REMARK    2  A    between atoms: N_5  and  C_23
REMARK    3  A    between atoms: C_6  and  C_10
REMARK    4  A    between atoms: C_8  and  C_17
REMARK    5  A    between atoms: C_10  and  C_13
REMARK    6  A    between atoms: C_13  and  C_20
REMARK    7  A    between atoms: C_13  and  C_21
REMARK    8  A    between atoms: C_22  and  C_24
REMARK    9  A    between atoms: C_23  and  C_25
REMARK   10  A    between atoms: C_26  and  C_30
REMARK                            x       y       z     vdW  Elec       q    Type
REMARK                         _______ _______ _______ _____ _____    ______ ____
ROOT
ATOM      3  N   UNL     1      -6.554  -9.387  10.783  0.00  0.00    -0.299 NA
ATOM      4  N   UNL     1      -4.214 -10.529  15.110  0.00  0.00    -0.335 N 
ATOM      6  C   UNL     1      -5.329 -10.100  10.397  0.00  0.00    +0.085 C 
ATOM      7  C   UNL     1      -4.343 -10.399  11.531  0.00  0.00    -0.021 A 
ATOM      8  C   UNL     1      -7.424 -10.120  11.692  0.00  0.00    +0.145 C 
ATOM      9  C   UNL     1      -4.653 -10.354  12.920  0.00  0.00    +0.008 A 
ATOM     11  C   UNL     1      -7.194  -9.704  13.144  0.00  0.00    +0.065 C 
ATOM     12  C   UNL     1      -5.846 -10.065  13.671  0.00  0.00    -0.020 A 
ATOM     14  C   UNL     1      -3.661 -10.663  13.859  0.00  0.00    +0.050 A 
ATOM     15  C   UNL     1      -5.528 -10.176  15.009  0.00  0.00    +0.091 A 
ATOM     16  C   UNL     1      -3.034 -10.829  11.196  0.00  0.00    +0.006 A 
ATOM     18  C   UNL     1      -2.364 -11.040  13.509  0.00  0.00    +0.026 A 
ATOM     19  C   UNL     1      -2.069 -11.131  12.155  0.00  0.00    +0.002 A 
ATOM     31  H   UNL     1      -6.336  -8.460  11.148  0.00  0.00    +0.123 HD
ENDROOT
BRANCH   8  17
ATOM      2  O   UNL     1      -9.785  -9.980  12.008  0.00  0.00    -0.274 OA
ATOM      5  N   UNL     1      -8.859  -9.145  10.042  0.00  0.00    -0.309 N 
ATOM     17  C   UNL     1      -8.818  -9.745  11.289  0.00  0.00    +0.231 C 
ATOM     32  H   UNL     1      -7.995  -8.981   9.533  0.00  0.00    +0.149 HD
BRANCH   5  23
ATOM     23  C   UNL     1     -10.084  -8.711   9.413  0.00  0.00    +0.146 C 
BRANCH  23  25
ATOM      1  S   UNL     1     -11.450  -6.300   9.621  0.00  0.00    -0.100 S 
ATOM     25  C   UNL     1     -10.089  -7.231   9.157  0.00  0.00    +0.007 A 
ATOM     27  C   UNL     1      -9.111  -6.459   8.570  0.00  0.00    +0.013 A 
ATOM     28  C   UNL     1      -9.483  -5.086   8.500  0.00  0.00    +0.008 A 
ATOM     29  C   UNL     1     -10.732  -4.860   9.036  0.00  0.00    +0.045 A 
ENDBRANCH  23  25
ENDBRANCH   5  23
ENDBRANCH   8  17
BRANCH   6  10
ATOM     10  C   UNL     1      -4.708  -9.233   9.287  0.00  0.00    +0.026 C 
BRANCH  10  13
ATOM     13  C   UNL     1      -4.846  -9.855   7.894  0.00  0.00    -0.015 C 
ATOM     20  C   UNL     1      -6.218  -9.499   7.316  0.00  0.00    +0.007 C 
ATOM     21  C   UNL     1      -4.670 -11.375   7.908  0.00  0.00    +0.007 C 
ENDBRANCH  10  13
ENDBRANCH   6  10
BRANCH   4  22
ATOM     22  C   UNL     1      -3.525 -10.745  16.364  0.00  0.00    +0.210 C 
BRANCH  22  24
ATOM     24  C   UNL     1      -4.449 -10.760  17.506  0.00  0.00    -0.081 C 
ATOM     26  C   UNL     1      -5.202 -10.773  18.440  0.00  0.00    -0.104 C 
ATOM     30  C   UNL     1      -6.122 -10.789  19.576  0.00  0.00    +0.106 C 
ENDBRANCH  22  24
ENDBRANCH   4  22
TORSDOF 7
ENDMDL
MODEL 7
REMARK VINA RESULT:      -6.2     27.514     32.159
REMARK  Name = 51138084
REMARK  10 active torsions:
REMARK  status: ('A' for Active; 'I' for Inactive)
REMARK    1  A    between atoms: N_4  and  C_22
REMARK    2  A    between atoms: N_5  and  C_23
REMARK    3  A    between atoms: C_6  and  C_10
REMARK    4  A    between atoms: C_8  and  C_17
REMARK    5  A    between atoms: C_10  and  C_13
REMARK    6  A    between atoms: C_13  and  C_20
REMARK    7  A    between atoms: C_13  and  C_21
REMARK    8  A    between atoms: C_22  and  C_24
REMARK    9  A    between atoms: C_23  and  C_25
REMARK   10  A    between atoms: C_26  and  C_30
REMARK                            x       y       z     vdW  Elec       q    Type
REMARK                         _______ _______ _______ _____ _____    ______ ____
ROOT
ATOM      3  N   UNL     1      15.324   6.333   2.414  0.00  0.00    -0.299 NA
ATOM      4  N   UNL     1      10.967   6.901   4.904  0.00  0.00    -0.335 N 
ATOM      6  C   UNL     1      14.332   5.553   1.663  0.00  0.00    +0.085 C 
ATOM      7  C   UNL     1      12.955   5.413   2.319  0.00  0.00    -0.021 A 
ATOM      8  C   UNL     1      14.983   7.737   2.596  0.00  0.00    +0.145 C 
ATOM      9  C   UNL     1      12.466   6.225   3.382  0.00  0.00    +0.008 A 
ATOM     11  C   UNL     1      14.337   7.984   3.958  0.00  0.00    +0.065 C 
ATOM     12  C   UNL     1      13.005   7.334   4.123  0.00  0.00    -0.020 A 
ATOM     14  C   UNL     1      11.179   6.001   3.886  0.00  0.00    +0.050 A 
ATOM     15  C   UNL     1      12.054   7.710   5.051  0.00  0.00    +0.091 A 
ATOM     16  C   UNL     1      12.048   4.457   1.794  0.00  0.00    +0.006 A 
ATOM     18  C   UNL     1      10.318   5.023   3.385  0.00  0.00    +0.026 A 
ATOM     19  C   UNL     1      10.771   4.260   2.318  0.00  0.00    +0.002 A 
ATOM     31  H   UNL     1      15.539   5.887   3.306  0.00  0.00    +0.123 HD
ENDROOT
BRANCH   8  17
ATOM      2  O   UNL     1      16.376   9.598   2.056  0.00  0.00    -0.274 OA
ATOM      5  N   UNL     1      17.335   7.720   3.042  0.00  0.00    -0.309 N 
ATOM     17  C   UNL     1      16.289   8.470   2.532  0.00  0.00    +0.231 C 
ATOM     32  H   UNL     1      17.154   6.798   3.430  0.00  0.00    +0.149 HD
BRANCH   5  23
ATOM     23  C   UNL     1      18.701   8.188   3.075  0.00  0.00    +0.146 C 
BRANCH  23  25
ATOM      1  S   UNL     1      18.419   8.994   5.719  0.00  0.00    -0.100 S 
ATOM     25  C   UNL     1      19.263   8.184   4.468  0.00  0.00    +0.007 A 
ATOM     27  C   UNL     1      20.422   7.595   4.923  0.00  0.00    +0.013 A 
ATOM     28  C   UNL     1      20.620   7.812   6.317  0.00  0.00    +0.008 A 
ATOM     29  C   UNL     1      19.605   8.558   6.874  0.00  0.00    +0.045 A 
ENDBRANCH  23  25
ENDBRANCH   5  23
ENDBRANCH   8  17
BRANCH   6  10
ATOM     10  C   UNL     1      15.011   4.194   1.418  0.00  0.00    +0.026 C 
BRANCH  10  13
ATOM     13  C   UNL     1      15.357   3.954  -0.055  0.00  0.00    -0.015 C 
ATOM     20  C   UNL     1      16.374   5.003  -0.513  0.00  0.00    +0.007 C 
ATOM     21  C   UNL     1      14.126   3.996  -0.963  0.00  0.00    +0.007 C 
ENDBRANCH  10  13
ENDBRANCH   6  10
BRANCH   4  22
ATOM     22  C   UNL     1       9.764   7.003   5.701  0.00  0.00    +0.210 C 
BRANCH  22  24
ATOM     24  C   UNL     1       9.733   6.009   6.781  0.00  0.00    -0.081 C 
ATOM     26  C   UNL     1       9.705   5.195   7.664  0.00  0.00    -0.104 C 
ATOM     30  C   UNL     1       9.673   4.207   8.740  0.00  0.00    +0.106 C 
ENDBRANCH  22  24
ENDBRANCH   4  22
TORSDOF 7
ENDMDL
MODEL 8
REMARK VINA RESULT:      -6.1     26.372     31.170
REMARK  Name = 51138084
REMARK  10 active torsions:
REMARK  status: ('A' for Active; 'I' for Inactive)
REMARK    1  A    between atoms: N_4  and  C_22
REMARK    2  A    between atoms: N_5  and  C_23
REMARK    3  A    between atoms: C_6  and  C_10
REMARK    4  A    between atoms: C_8  and  C_17
REMARK    5  A    between atoms: C_10  and  C_13
REMARK    6  A    between atoms: C_13  and  C_20
REMARK    7  A    between atoms: C_13  and  C_21
REMARK    8  A    between atoms: C_22  and  C_24
REMARK    9  A    between atoms: C_23  and  C_25
REMARK   10  A    between atoms: C_26  and  C_30
REMARK                            x       y       z     vdW  Elec       q    Type
REMARK                         _______ _______ _______ _____ _____    ______ ____
ROOT
ATOM      3  N   UNL     1      11.783   5.802   4.647  0.00  0.00    -0.299 NA
ATOM      4  N   UNL     1      15.407   9.313   4.853  0.00  0.00    -0.335 N 
ATOM      6  C   UNL     1      11.254   6.870   5.506  0.00  0.00    +0.085 C 
ATOM      7  C   UNL     1      12.242   7.980   5.879  0.00  0.00    -0.021 A 
ATOM      8  C   UNL     1      12.192   6.236   3.319  0.00  0.00    +0.145 C 
ATOM      9  C   UNL     1      13.475   8.238   5.214  0.00  0.00    +0.008 A 
ATOM     11  C   UNL     1      13.696   6.495   3.253  0.00  0.00    +0.065 C 
ATOM     12  C   UNL     1      14.150   7.642   4.092  0.00  0.00    -0.020 A 
ATOM     14  C   UNL     1      14.285   9.295   5.646  0.00  0.00    +0.050 A 
ATOM     15  C   UNL     1      15.335   8.328   3.912  0.00  0.00    +0.091 A 
ATOM     16  C   UNL     1      11.890   8.882   6.915  0.00  0.00    +0.006 A 
ATOM     18  C   UNL     1      13.940  10.145   6.699  0.00  0.00    +0.026 A 
ATOM     19  C   UNL     1      12.718   9.928   7.320  0.00  0.00    +0.002 A 
ATOM     31  H   UNL     1      12.532   5.295   5.116  0.00  0.00    +0.123 HD
ENDROOT
BRANCH   8  17
ATOM      2  O   UNL     1      10.713   4.927   1.981  0.00  0.00    -0.274 OA
ATOM      5  N   UNL     1      12.943   4.284   2.154  0.00  0.00    -0.309 N 
ATOM     17  C   UNL     1      11.850   5.095   2.410  0.00  0.00    +0.231 C 
ATOM     32  H   UNL     1      13.850   4.521   2.547  0.00  0.00    +0.149 HD
BRANCH   5  23
ATOM     23  C   UNL     1      12.875   3.103   1.326  0.00  0.00    +0.146 C 
BRANCH  23  25
ATOM      1  S   UNL     1      14.594   4.297  -0.501  0.00  0.00    -0.100 S 
ATOM     25  C   UNL     1      13.184   3.407  -0.112  0.00  0.00    +0.007 A 
ATOM     27  C   UNL     1      12.465   3.061  -1.235  0.00  0.00    +0.013 A 
ATOM     28  C   UNL     1      13.080   3.533  -2.430  0.00  0.00    +0.008 A 
ATOM     29  C   UNL     1      14.245   4.222  -2.176  0.00  0.00    +0.045 A 
ENDBRANCH  23  25
ENDBRANCH   5  23
ENDBRANCH   8  17
BRANCH   6  10
ATOM     10  C   UNL     1      10.697   6.136   6.740  0.00  0.00    +0.026 C 
BRANCH  10  13
ATOM     13  C   UNL     1       9.180   6.284   6.889  0.00  0.00    -0.015 C 
ATOM     20  C   UNL     1       8.576   6.689   5.542  0.00  0.00    +0.007 C 
ATOM     21  C   UNL     1       8.791   7.308   7.958  0.00  0.00    +0.007 C 
ENDBRANCH  10  13
ENDBRANCH   6  10
BRANCH   4  22
ATOM     22  C   UNL     1      16.508  10.245   4.971  0.00  0.00    +0.210 C 
BRANCH  22  24
ATOM     24  C   UNL     1      17.656   9.656   5.671  0.00  0.00    -0.081 C 
ATOM     26  C   UNL     1      18.597   9.173   6.241  0.00  0.00    -0.104 C 
ATOM     30  C   UNL     1      19.740   8.585   6.936  0.00  0.00    +0.106 C 
ENDBRANCH  22  24
ENDBRANCH   4  22
TORSDOF 7
ENDMDL
MODEL 9
REMARK VINA RESULT:      -6.1     40.164     42.201
REMARK  Name = 51138084
REMARK  10 active torsions:
REMARK  status: ('A' for Active; 'I' for Inactive)
REMARK    1  A    between atoms: N_4  and  C_22
REMARK    2  A    between atoms: N_5  and  C_23
REMARK    3  A    between atoms: C_6  and  C_10
REMARK    4  A    between atoms: C_8  and  C_17
REMARK    5  A    between atoms: C_10  and  C_13
REMARK    6  A    between atoms: C_13  and  C_20
REMARK    7  A    between atoms: C_13  and  C_21
REMARK    8  A    between atoms: C_22  and  C_24
REMARK    9  A    between atoms: C_23  and  C_25
REMARK   10  A    between atoms: C_26  and  C_30
REMARK                            x       y       z     vdW  Elec       q    Type
REMARK                         _______ _______ _______ _____ _____    ______ ____
ROOT
ATOM      3  N   UNL     1      19.269  -7.241  -0.347  0.00  0.00    -0.299 NA
ATOM      4  N   UNL     1      21.842  -8.397   3.842  0.00  0.00    -0.335 N 
ATOM      6  C   UNL     1      20.200  -6.125  -0.131  0.00  0.00    +0.085 C 
ATOM      7  C   UNL     1      20.976  -6.147   1.190  0.00  0.00    -0.021 A 
ATOM      8  C   UNL     1      19.899  -8.550  -0.442  0.00  0.00    +0.145 C 
ATOM      9  C   UNL     1      21.124  -7.284   2.035  0.00  0.00    +0.008 A 
ATOM     11  C   UNL     1      19.859  -9.290   0.893  0.00  0.00    +0.065 C 
ATOM     12  C   UNL     1      20.673  -8.648   1.966  0.00  0.00    -0.020 A 
ATOM     14  C   UNL     1      21.873  -7.175   3.214  0.00  0.00    +0.050 A 
ATOM     15  C   UNL     1      21.130  -9.291   3.099  0.00  0.00    +0.091 A 
ATOM     16  C   UNL     1      21.674  -4.978   1.586  0.00  0.00    +0.006 A 
ATOM     18  C   UNL     1      22.515  -6.000   3.609  0.00  0.00    +0.026 A 
ATOM     19  C   UNL     1      22.413  -4.902   2.765  0.00  0.00    +0.002 A 
ATOM     31  H   UNL     1      18.529  -7.239   0.355  0.00  0.00    +0.123 HD
ENDROOT
BRANCH   8  17
ATOM      2  O   UNL     1      19.377 -10.448  -1.791  0.00  0.00    -0.274 OA
ATOM      5  N   UNL     1      18.021  -8.560  -1.925  0.00  0.00    -0.309 N 
ATOM     17  C   UNL     1      19.084  -9.306  -1.448  0.00  0.00    +0.231 C 
ATOM     32  H   UNL     1      17.856  -7.626  -1.562  0.00  0.00    +0.149 HD
BRANCH   5  23
ATOM     23  C   UNL     1      17.095  -9.050  -2.921  0.00  0.00    +0.146 C 
BRANCH  23  25
ATOM      1  S   UNL     1      16.484  -6.424  -3.590  0.00  0.00    -0.100 S 
ATOM     25  C   UNL     1      16.033  -8.040  -3.245  0.00  0.00    +0.007 A 
ATOM     27  C   UNL     1      14.669  -8.221  -3.312  0.00  0.00    +0.013 A 
ATOM     28  C   UNL     1      13.986  -7.018  -3.650  0.00  0.00    +0.008 A 
ATOM     29  C   UNL     1      14.852  -5.962  -3.829  0.00  0.00    +0.045 A 
ENDBRANCH  23  25
ENDBRANCH   5  23
ENDBRANCH   8  17
BRANCH   6  10
ATOM     10  C   UNL     1      19.335  -4.862  -0.287  0.00  0.00    +0.026 C 
BRANCH  10  13
ATOM     13  C   UNL     1      19.445  -4.229  -1.678  0.00  0.00    -0.015 C 
ATOM     20  C   UNL     1      20.885  -3.766  -1.910  0.00  0.00    +0.007 C 
ATOM     21  C   UNL     1      18.487  -3.051  -1.866  0.00  0.00    +0.007 C 
ENDBRANCH  10  13
ENDBRANCH   6  10
BRANCH   4  22
ATOM     22  C   UNL     1      22.483  -8.714   5.100  0.00  0.00    +0.210 C 
BRANCH  22  24
ATOM     24  C   UNL     1      22.153 -10.068   5.561  0.00  0.00    -0.081 C 
ATOM     26  C   UNL     1      21.881 -11.175   5.939  0.00  0.00    -0.104 C 
ATOM     30  C   UNL     1      21.552 -12.523   6.399  0.00  0.00    +0.106 C 
ENDBRANCH  22  24
ENDBRANCH   4  22
TORSDOF 7
ENDMDL
MODEL 10
REMARK VINA RESULT:      -6.1     28.367     29.832
REMARK  Name = 51138084
REMARK  10 active torsions:
REMARK  status: ('A' for Active; 'I' for Inactive)
REMARK    1  A    between atoms: N_4  and  C_22
REMARK    2  A    between atoms: N_5  and  C_23
REMARK    3  A    between atoms: C_6  and  C_10
REMARK    4  A    between atoms: C_8  and  C_17
REMARK    5  A    between atoms: C_10  and  C_13
REMARK    6  A    between atoms: C_13  and  C_20
REMARK    7  A    between atoms: C_13  and  C_21
REMARK    8  A    between atoms: C_22  and  C_24
REMARK    9  A    between atoms: C_23  and  C_25
REMARK   10  A    between atoms: C_26  and  C_30
REMARK                            x       y       z     vdW  Elec       q    Type
REMARK                         _______ _______ _______ _____ _____    ______ ____
ROOT
ATOM      3  N   UNL     1       6.287  -7.979  35.017  0.00  0.00    -0.299 NA
ATOM      4  N   UNL     1       6.566 -12.314  32.440  0.00  0.00    -0.335 N 
ATOM      6  C   UNL     1       6.210  -7.605  33.598  0.00  0.00    +0.085 C 
ATOM      7  C   UNL     1       6.457  -8.734  32.594  0.00  0.00    -0.021 A 
ATOM      8  C   UNL     1       5.275  -8.933  35.450  0.00  0.00    +0.145 C 
ATOM      9  C   UNL     1       6.415 -10.125  32.897  0.00  0.00    +0.008 A 
ATOM     11  C   UNL     1       5.816 -10.362  35.449  0.00  0.00    +0.065 C 
ATOM     12  C   UNL     1       6.149 -10.882  34.091  0.00  0.00    -0.020 A 
ATOM     14  C   UNL     1       6.648 -11.061  31.881  0.00  0.00    +0.050 A 
ATOM     15  C   UNL     1       6.261 -12.219  33.766  0.00  0.00    +0.091 A 
ATOM     16  C   UNL     1       6.671  -8.397  31.233  0.00  0.00    +0.006 A 
ATOM     18  C   UNL     1       6.903 -10.706  30.555  0.00  0.00    +0.026 A 
ATOM     19  C   UNL     1       6.898  -9.353  30.244  0.00  0.00    +0.002 A 
ATOM     31  H   UNL     1       7.224  -8.301  35.258  0.00  0.00    +0.123 HD
ENDROOT
BRANCH   8  17
ATOM      2  O   UNL     1       4.535  -9.352  37.680  0.00  0.00    -0.274 OA
ATOM      5  N   UNL     1       5.118  -7.182  37.074  0.00  0.00    -0.309 N 
ATOM     17  C   UNL     1       4.939  -8.537  36.856  0.00  0.00    +0.231 C 
ATOM     32  H   UNL     1       5.474  -6.592  36.327  0.00  0.00    +0.149 HD
BRANCH   5  23
ATOM     23  C   UNL     1       4.842  -6.541  38.339  0.00  0.00    +0.146 C 
BRANCH  23  25
ATOM      1  S   UNL     1       4.934  -4.113  39.687  0.00  0.00    -0.100 S 
ATOM     25  C   UNL     1       5.368  -5.136  38.383  0.00  0.00    +0.007 A 
ATOM     27  C   UNL     1       6.196  -4.502  37.483  0.00  0.00    +0.013 A 
ATOM     28  C   UNL     1       6.477  -3.159  37.868  0.00  0.00    +0.008 A 
ATOM     29  C   UNL     1       5.853  -2.818  39.048  0.00  0.00    +0.045 A 
ENDBRANCH  23  25
ENDBRANCH   5  23
ENDBRANCH   8  17
BRANCH   6  10
ATOM     10  C   UNL     1       7.214  -6.448  33.447  0.00  0.00    +0.026 C 
BRANCH  10  13
ATOM     13  C   UNL     1       8.448  -6.606  34.340  0.00  0.00    -0.015 C 
ATOM     20  C   UNL     1       8.836  -5.240  34.912  0.00  0.00    +0.007 C 
ATOM     21  C   UNL     1       9.640  -7.212  33.596  0.00  0.00    +0.007 C 
ENDBRANCH  10  13
ENDBRANCH   6  10
BRANCH   4  22
ATOM     22  C   UNL     1       6.753 -13.564  31.736  0.00  0.00    +0.210 C 
BRANCH  22  24
ATOM     24  C   UNL     1       5.716 -13.784  30.720  0.00  0.00    -0.081 C 
ATOM     26  C   UNL     1       4.871 -13.965  29.887  0.00  0.00    -0.104 C 
ATOM     30  C   UNL     1       3.840 -14.183  28.874  0.00  0.00    +0.106 C 
ENDBRANCH  22  24
ENDBRANCH   4  22
TORSDOF 7
ENDMDL
