MODEL 1
REMARK VINA RESULT:      -7.5      0.000      0.000
REMARK  Name = 40533465
REMARK  2 active torsions:
REMARK  status: ('A' for Active; 'I' for Inactive)
REMARK    1  A    between atoms: N_5  and  C_20
REMARK    2  A    between atoms: C_17  and  C_19
REMARK                            x       y       z     vdW  Elec       q    Type
REMARK                         _______ _______ _______ _____ _____    ______ ____
ROOT
ATOM      1  O   UNL     1      13.935  11.100  22.828  0.00  0.00    -0.267 OA
ATOM      2  O   UNL     1      12.214   9.467  17.529  0.00  0.00    -0.252 OA
ATOM      3  N   UNL     1      13.886   8.322  18.646  0.00  0.00    -0.284 N 
ATOM      4  N   UNL     1      13.523   9.087  21.726  0.00  0.00    -0.311 N 
ATOM      5  N   UNL     1      14.354  10.362  17.559  0.00  0.00    -0.269 N 
ATOM      7  C   UNL     1      15.373   7.742  20.579  0.00  0.00    +0.027 C 
ATOM      8  C   UNL     1      13.058   6.919  20.530  0.00  0.00    +0.054 C 
ATOM      9  C   UNL     1      14.495   6.533  20.874  0.00  0.00    +0.018 C 
ATOM     10  C   UNL     1      15.277   8.147  19.094  0.00  0.00    +0.114 C 
ATOM     11  C   UNL     1      14.962   8.887  21.512  0.00  0.00    +0.130 C 
ATOM     12  C   UNL     1      12.970   7.240  19.028  0.00  0.00    +0.119 C 
ATOM     13  C   UNL     1      12.596   8.116  21.339  0.00  0.00    +0.027 A 
ATOM     14  C   UNL     1      11.299   8.261  21.653  0.00  0.00    +0.022 A 
ATOM     15  C   UNL     1      13.143  10.242  22.436  0.00  0.00    +0.259 A 
ATOM     16  C   UNL     1      13.394   9.405  17.884  0.00  0.00    +0.306 C 
ATOM     17  C   UNL     1      11.676  10.397  22.737  0.00  0.00    +0.048 A 
ATOM     18  C   UNL     1      10.835   9.423  22.357  0.00  0.00    +0.015 A 
ATOM     30  H   UNL     1      15.313  10.054  17.434  0.00  0.00    +0.156 HD
ENDROOT
BRANCH  17  19
ATOM      6  N   UNL     1      10.531  12.673  25.495  0.00  0.00    -0.263 NA
ATOM     19  C   UNL     1      11.160  11.593  23.426  0.00  0.00    +0.005 A 
ATOM     21  C   UNL     1      10.821  12.740  22.715  0.00  0.00    +0.011 A 
ATOM     22  C   UNL     1      10.999  11.611  24.801  0.00  0.00    +0.119 A 
ATOM     25  C   UNL     1      10.337  13.852  23.394  0.00  0.00    +0.020 A 
ATOM     26  C   UNL     1      10.212  13.770  24.771  0.00  0.00    +0.111 A 
ENDBRANCH  17  19
BRANCH   5  20
ATOM     20  C   UNL     1      14.146  11.750  17.358  0.00  0.00    +0.035 A 
ATOM     23  C   UNL     1      14.403  12.319  16.111  0.00  0.00    +0.023 A 
ATOM     24  C   UNL     1      13.685  12.545  18.406  0.00  0.00    +0.023 A 
ATOM     27  C   UNL     1      14.200  13.685  15.913  0.00  0.00    +0.002 A 
ATOM     28  C   UNL     1      13.482  13.911  18.209  0.00  0.00    +0.002 A 
ATOM     29  C   UNL     1      13.739  14.480  16.962  0.00  0.00    +0.000 A 
ENDBRANCH   5  20
TORSDOF 2
ENDMDL
MODEL 2
REMARK VINA RESULT:      -7.4     14.085     17.799
REMARK  Name = 40533465
REMARK  2 active torsions:
REMARK  status: ('A' for Active; 'I' for Inactive)
REMARK    1  A    between atoms: N_5  and  C_20
REMARK    2  A    between atoms: C_17  and  C_19
REMARK                            x       y       z     vdW  Elec       q    Type
REMARK                         _______ _______ _______ _____ _____    ______ ____
ROOT
ATOM      1  O   UNL     1      10.798   7.096   2.269  0.00  0.00    -0.267 OA
ATOM      2  O   UNL     1      13.385   6.322   7.408  0.00  0.00    -0.252 OA
ATOM      3  N   UNL     1      11.499   7.647   7.209  0.00  0.00    -0.284 N 
ATOM      4  N   UNL     1      10.118   6.750   4.472  0.00  0.00    -0.311 N 
ATOM      5  N   UNL     1      13.616   8.479   6.585  0.00  0.00    -0.269 N 
ATOM      7  C   UNL     1       9.529   8.676   6.050  0.00  0.00    +0.027 C 
ATOM      8  C   UNL     1       9.398   6.358   6.854  0.00  0.00    +0.054 C 
ATOM      9  C   UNL     1       8.617   7.664   6.731  0.00  0.00    +0.018 C 
ATOM     10  C   UNL     1      10.814   8.905   6.872  0.00  0.00    +0.114 C 
ATOM     11  C   UNL     1       9.838   8.183   4.631  0.00  0.00    +0.130 C 
ATOM     12  C   UNL     1      10.630   6.591   7.745  0.00  0.00    +0.119 C 
ATOM     13  C   UNL     1       9.835   5.843   5.496  0.00  0.00    +0.027 A 
ATOM     14  C   UNL     1       9.983   4.525   5.287  0.00  0.00    +0.022 A 
ATOM     15  C   UNL     1      10.575   6.330   3.208  0.00  0.00    +0.259 A 
ATOM     16  C   UNL     1      12.884   7.401   7.081  0.00  0.00    +0.306 C 
ATOM     17  C   UNL     1      10.770   4.850   3.017  0.00  0.00    +0.048 A 
ATOM     18  C   UNL     1      10.464   4.025   4.031  0.00  0.00    +0.015 A 
ATOM     30  H   UNL     1      13.289   9.416   6.796  0.00  0.00    +0.156 HD
ENDROOT
BRANCH  17  19
ATOM      6  N   UNL     1      10.952   3.836  -0.593  0.00  0.00    -0.263 NA
ATOM     19  C   UNL     1      11.295   4.306   1.753  0.00  0.00    +0.005 A 
ATOM     21  C   UNL     1      12.575   3.763   1.683  0.00  0.00    +0.011 A 
ATOM     22  C   UNL     1      10.532   4.319   0.598  0.00  0.00    +0.119 A 
ATOM     25  C   UNL     1      13.042   3.256   0.475  0.00  0.00    +0.020 A 
ATOM     26  C   UNL     1      12.201   3.317  -0.624  0.00  0.00    +0.111 A 
ENDBRANCH  17  19
BRANCH   5  20
ATOM     20  C   UNL     1      14.804   8.425   5.814  0.00  0.00    +0.035 A 
ATOM     23  C   UNL     1      14.815   7.744   4.597  0.00  0.00    +0.023 A 
ATOM     24  C   UNL     1      15.962   9.052   6.273  0.00  0.00    +0.023 A 
ATOM     27  C   UNL     1      15.985   7.690   3.839  0.00  0.00    +0.002 A 
ATOM     28  C   UNL     1      17.132   8.998   5.515  0.00  0.00    +0.002 A 
ATOM     29  C   UNL     1      17.143   8.317   4.298  0.00  0.00    +0.000 A 
ENDBRANCH   5  20
TORSDOF 2
ENDMDL
MODEL 3
REMARK VINA RESULT:      -7.4      2.808      6.263
REMARK  Name = 40533465
REMARK  2 active torsions:
REMARK  status: ('A' for Active; 'I' for Inactive)
REMARK    1  A    between atoms: N_5  and  C_20
REMARK    2  A    between atoms: C_17  and  C_19
REMARK                            x       y       z     vdW  Elec       q    Type
REMARK                         _______ _______ _______ _____ _____    ______ ____
ROOT
ATOM      1  O   UNL     1      14.460  11.957  20.382  0.00  0.00    -0.267 OA
ATOM      2  O   UNL     1      15.383   6.413  18.925  0.00  0.00    -0.252 OA
ATOM      3  N   UNL     1      13.618   7.008  20.298  0.00  0.00    -0.284 N 
ATOM      4  N   UNL     1      13.151  10.124  19.776  0.00  0.00    -0.311 N 
ATOM      5  N   UNL     1      15.808   6.852  21.163  0.00  0.00    -0.269 N 
ATOM      7  C   UNL     1      12.072   8.572  21.501  0.00  0.00    +0.027 C 
ATOM      8  C   UNL     1      11.751   8.141  19.103  0.00  0.00    +0.054 C 
ATOM      9  C   UNL     1      11.018   8.332  20.429  0.00  0.00    +0.018 C 
ATOM     10  C   UNL     1      13.043   7.377  21.601  0.00  0.00    +0.114 C 
ATOM     11  C   UNL     1      12.807   9.880  21.183  0.00  0.00    +0.130 C 
ATOM     12  C   UNL     1      12.650   6.897  19.200  0.00  0.00    +0.119 C 
ATOM     13  C   UNL     1      12.590   9.356  18.754  0.00  0.00    +0.027 A 
ATOM     14  C   UNL     1      12.821   9.672  17.470  0.00  0.00    +0.022 A 
ATOM     15  C   UNL     1      13.978  11.232  19.510  0.00  0.00    +0.259 A 
ATOM     16  C   UNL     1      14.982   6.739  20.045  0.00  0.00    +0.306 C 
ATOM     17  C   UNL     1      14.252  11.538  18.061  0.00  0.00    +0.048 A 
ATOM     18  C   UNL     1      13.670  10.776  17.122  0.00  0.00    +0.015 A 
ATOM     30  H   UNL     1      15.413   6.635  22.072  0.00  0.00    +0.156 HD
ENDROOT
BRANCH  17  19
ATOM      6  N   UNL     1      15.411  14.956  17.025  0.00  0.00    -0.263 NA
ATOM     19  C   UNL     1      15.147  12.640  17.670  0.00  0.00    +0.005 A 
ATOM     21  C   UNL     1      16.522  12.448  17.570  0.00  0.00    +0.011 A 
ATOM     22  C   UNL     1      14.647  13.901  17.390  0.00  0.00    +0.119 A 
ATOM     25  C   UNL     1      17.341  13.508  17.198  0.00  0.00    +0.020 A 
ATOM     26  C   UNL     1      16.743  14.731  16.939  0.00  0.00    +0.111 A 
ENDBRANCH  17  19
BRANCH   5  20
ATOM     20  C   UNL     1      17.175   7.226  21.183  0.00  0.00    +0.035 A 
ATOM     23  C   UNL     1      18.156   6.299  20.835  0.00  0.00    +0.023 A 
ATOM     24  C   UNL     1      17.538   8.521  21.552  0.00  0.00    +0.023 A 
ATOM     27  C   UNL     1      19.502   6.667  20.856  0.00  0.00    +0.002 A 
ATOM     28  C   UNL     1      18.883   8.890  21.574  0.00  0.00    +0.002 A 
ATOM     29  C   UNL     1      19.865   7.962  21.225  0.00  0.00    +0.000 A 
ENDBRANCH   5  20
TORSDOF 2
ENDMDL
MODEL 4
REMARK VINA RESULT:      -6.7     16.688     19.665
REMARK  Name = 40533465
REMARK  2 active torsions:
REMARK  status: ('A' for Active; 'I' for Inactive)
REMARK    1  A    between atoms: N_5  and  C_20
REMARK    2  A    between atoms: C_17  and  C_19
REMARK                            x       y       z     vdW  Elec       q    Type
REMARK                         _______ _______ _______ _____ _____    ______ ____
ROOT
ATOM      1  O   UNL     1      11.967   7.455   3.464  0.00  0.00    -0.267 OA
ATOM      2  O   UNL     1       9.304   4.888  -1.010  0.00  0.00    -0.252 OA
ATOM      3  N   UNL     1      11.599   5.179  -0.996  0.00  0.00    -0.284 N 
ATOM      4  N   UNL     1      12.376   5.631   2.070  0.00  0.00    -0.311 N 
ATOM      5  N   UNL     1      10.168   6.975  -1.537  0.00  0.00    -0.269 N 
ATOM      7  C   UNL     1      13.827   5.803  -0.031  0.00  0.00    +0.027 C 
ATOM      8  C   UNL     1      12.796   3.654   0.567  0.00  0.00    +0.054 C 
ATOM      9  C   UNL     1      14.120   4.328   0.212  0.00  0.00    +0.018 C 
ATOM     10  C   UNL     1      12.816   5.985  -1.181  0.00  0.00    +0.114 C 
ATOM     11  C   UNL     1      13.323   6.426   1.277  0.00  0.00    +0.130 C 
ATOM     12  C   UNL     1      11.833   3.777  -0.626  0.00  0.00    +0.119 C 
ATOM     13  C   UNL     1      12.170   4.276   1.800  0.00  0.00    +0.027 A 
ATOM     14  C   UNL     1      11.395   3.540   2.611  0.00  0.00    +0.022 A 
ATOM     15  C   UNL     1      11.779   6.273   3.172  0.00  0.00    +0.259 A 
ATOM     16  C   UNL     1      10.273   5.635  -1.165  0.00  0.00    +0.306 C 
ATOM     17  C   UNL     1      10.882   5.430   4.039  0.00  0.00    +0.048 A 
ATOM     18  C   UNL     1      10.738   4.130   3.742  0.00  0.00    +0.015 A 
ATOM     30  H   UNL     1      10.912   7.373  -2.100  0.00  0.00    +0.156 HD
ENDROOT
BRANCH  17  19
ATOM      6  N   UNL     1      10.165   6.630   7.524  0.00  0.00    -0.263 NA
ATOM     19  C   UNL     1      10.164   6.012   5.187  0.00  0.00    +0.005 A 
ATOM     21  C   UNL     1       8.861   6.481   5.054  0.00  0.00    +0.011 A 
ATOM     22  C   UNL     1      10.766   6.109   6.430  0.00  0.00    +0.119 A 
ATOM     25  C   UNL     1       8.210   7.025   6.156  0.00  0.00    +0.020 A 
ATOM     26  C   UNL     1       8.898   7.077   7.357  0.00  0.00    +0.111 A 
ENDBRANCH  17  19
BRANCH   5  20
ATOM     20  C   UNL     1       9.112   7.869  -1.233  0.00  0.00    +0.035 A 
ATOM     23  C   UNL     1       8.119   8.122  -2.179  0.00  0.00    +0.023 A 
ATOM     24  C   UNL     1       9.065   8.494   0.013  0.00  0.00    +0.023 A 
ATOM     27  C   UNL     1       7.080   9.003  -1.880  0.00  0.00    +0.002 A 
ATOM     28  C   UNL     1       8.025   9.375   0.312  0.00  0.00    +0.002 A 
ATOM     29  C   UNL     1       7.032   9.629  -0.635  0.00  0.00    +0.000 A 
ENDBRANCH   5  20
TORSDOF 2
ENDMDL
MODEL 5
REMARK VINA RESULT:      -6.6     13.936     16.604
REMARK  Name = 40533465
REMARK  2 active torsions:
REMARK  status: ('A' for Active; 'I' for Inactive)
REMARK    1  A    between atoms: N_5  and  C_20
REMARK    2  A    between atoms: C_17  and  C_19
REMARK                            x       y       z     vdW  Elec       q    Type
REMARK                         _______ _______ _______ _____ _____    ______ ____
ROOT
ATOM      1  O   UNL     1      13.902   7.274   7.017  0.00  0.00    -0.267 OA
ATOM      2  O   UNL     1       9.693   6.826   3.043  0.00  0.00    -0.252 OA
ATOM      3  N   UNL     1       9.373   6.078   5.209  0.00  0.00    -0.284 N 
ATOM      4  N   UNL     1      11.590   7.573   6.957  0.00  0.00    -0.311 N 
ATOM      5  N   UNL     1      10.587   4.777   3.661  0.00  0.00    -0.269 N 
ATOM      7  C   UNL     1       9.946   5.729   7.624  0.00  0.00    +0.027 C 
ATOM      8  C   UNL     1       9.095   7.908   6.874  0.00  0.00    +0.054 C 
ATOM      9  C   UNL     1       9.016   6.876   7.997  0.00  0.00    +0.018 C 
ATOM     10  C   UNL     1       9.526   5.087   6.286  0.00  0.00    +0.114 C 
ATOM     11  C   UNL     1      11.385   6.257   7.578  0.00  0.00    +0.130 C 
ATOM     12  C   UNL     1       8.594   7.270   5.567  0.00  0.00    +0.119 C 
ATOM     13  C   UNL     1      10.511   8.418   6.688  0.00  0.00    +0.027 A 
ATOM     14  C   UNL     1      10.729   9.662   6.234  0.00  0.00    +0.022 A 
ATOM     15  C   UNL     1      12.923   7.976   6.755  0.00  0.00    +0.259 A 
ATOM     16  C   UNL     1       9.883   5.957   3.898  0.00  0.00    +0.306 C 
ATOM     17  C   UNL     1      13.134   9.362   6.207  0.00  0.00    +0.048 A 
ATOM     18  C   UNL     1      12.061  10.136   5.985  0.00  0.00    +0.015 A 
ATOM     30  H   UNL     1      10.310   3.945   4.171  0.00  0.00    +0.156 HD
ENDROOT
BRANCH  17  19
ATOM      6  N   UNL     1      16.385  11.205   6.572  0.00  0.00    -0.263 NA
ATOM     19  C   UNL     1      14.485   9.867   5.906  0.00  0.00    +0.005 A 
ATOM     21  C   UNL     1      15.136   9.515   4.727  0.00  0.00    +0.011 A 
ATOM     22  C   UNL     1      15.147  10.705   6.787  0.00  0.00    +0.119 A 
ATOM     25  C   UNL     1      16.411  10.008   4.471  0.00  0.00    +0.020 A 
ATOM     26  C   UNL     1      16.987  10.841   5.416  0.00  0.00    +0.111 A 
ENDBRANCH  17  19
BRANCH   5  20
ATOM     20  C   UNL     1      11.662   4.587   2.756  0.00  0.00    +0.035 A 
ATOM     23  C   UNL     1      11.832   3.354   2.126  0.00  0.00    +0.023 A 
ATOM     24  C   UNL     1      12.548   5.631   2.497  0.00  0.00    +0.023 A 
ATOM     27  C   UNL     1      12.890   3.167   1.236  0.00  0.00    +0.002 A 
ATOM     28  C   UNL     1      13.606   5.444   1.608  0.00  0.00    +0.002 A 
ATOM     29  C   UNL     1      13.776   4.212   0.977  0.00  0.00    +0.000 A 
ENDBRANCH   5  20
TORSDOF 2
ENDMDL
MODEL 6
REMARK VINA RESULT:      -6.5     27.956     29.548
REMARK  Name = 40533465
REMARK  2 active torsions:
REMARK  status: ('A' for Active; 'I' for Inactive)
REMARK    1  A    between atoms: N_5  and  C_20
REMARK    2  A    between atoms: C_17  and  C_19
REMARK                            x       y       z     vdW  Elec       q    Type
REMARK                         _______ _______ _______ _____ _____    ______ ____
ROOT
ATOM      1  O   UNL     1      -7.500  -8.816  16.920  0.00  0.00    -0.267 OA
ATOM      2  O   UNL     1      -5.312 -12.989  13.529  0.00  0.00    -0.252 OA
ATOM      3  N   UNL     1      -4.348 -12.483  15.570  0.00  0.00    -0.284 N 
ATOM      4  N   UNL     1      -6.614 -10.952  17.221  0.00  0.00    -0.311 N 
ATOM      5  N   UNL     1      -3.939 -11.126  13.685  0.00  0.00    -0.269 N 
ATOM      7  C   UNL     1      -4.154 -11.353  17.799  0.00  0.00    +0.027 C 
ATOM      8  C   UNL     1      -5.671 -13.267  17.529  0.00  0.00    +0.054 C 
ATOM      9  C   UNL     1      -4.657 -12.623  18.472  0.00  0.00    +0.018 C 
ATOM     10  C   UNL     1      -3.488 -11.669  16.445  0.00  0.00    +0.114 C 
ATOM     11  C   UNL     1      -5.330 -10.380  17.646  0.00  0.00    +0.130 C 
ATOM     12  C   UNL     1      -4.965 -13.649  16.216  0.00  0.00    +0.119 C 
ATOM     13  C   UNL     1      -6.829 -12.332  17.238  0.00  0.00    +0.027 A 
ATOM     14  C   UNL     1      -8.046 -12.826  16.964  0.00  0.00    +0.022 A 
ATOM     15  C   UNL     1      -7.640 -10.040  16.908  0.00  0.00    +0.259 A 
ATOM     16  C   UNL     1      -4.593 -12.245  14.200  0.00  0.00    +0.306 C 
ATOM     17  C   UNL     1      -8.984 -10.627  16.566  0.00  0.00    +0.048 A 
ATOM     18  C   UNL     1      -9.136 -11.959  16.617  0.00  0.00    +0.015 A 
ATOM     30  H   UNL     1      -3.045 -10.868  14.088  0.00  0.00    +0.156 HD
ENDROOT
BRANCH  17  19
ATOM      6  N   UNL     1     -11.329  -8.632  14.415  0.00  0.00    -0.263 NA
ATOM     19  C   UNL     1     -10.113  -9.768  16.170  0.00  0.00    +0.005 A 
ATOM     21  C   UNL     1     -11.012  -9.284  17.116  0.00  0.00    +0.011 A 
ATOM     22  C   UNL     1     -10.315  -9.417  14.846  0.00  0.00    +0.119 A 
ATOM     25  C   UNL     1     -12.068  -8.475  16.712  0.00  0.00    +0.020 A 
ATOM     26  C   UNL     1     -12.182  -8.181  15.363  0.00  0.00    +0.111 A 
ENDBRANCH  17  19
BRANCH   5  20
ATOM     20  C   UNL     1      -4.375 -10.291  12.626  0.00  0.00    +0.035 A 
ATOM     23  C   UNL     1      -3.564 -10.106  11.506  0.00  0.00    +0.023 A 
ATOM     24  C   UNL     1      -5.614  -9.656  12.703  0.00  0.00    +0.023 A 
ATOM     27  C   UNL     1      -3.992  -9.283  10.464  0.00  0.00    +0.002 A 
ATOM     28  C   UNL     1      -6.043  -8.833  11.660  0.00  0.00    +0.002 A 
ATOM     29  C   UNL     1      -5.232  -8.648  10.541  0.00  0.00    +0.000 A 
ENDBRANCH   5  20
TORSDOF 2
ENDMDL
MODEL 7
REMARK VINA RESULT:      -6.3     27.915     29.943
REMARK  Name = 40533465
REMARK  2 active torsions:
REMARK  status: ('A' for Active; 'I' for Inactive)
REMARK    1  A    between atoms: N_5  and  C_20
REMARK    2  A    between atoms: C_17  and  C_19
REMARK                            x       y       z     vdW  Elec       q    Type
REMARK                         _______ _______ _______ _____ _____    ______ ____
ROOT
ATOM      1  O   UNL     1      -6.526 -12.012  12.787  0.00  0.00    -0.267 OA
ATOM      2  O   UNL     1      -6.798  -9.666  18.090  0.00  0.00    -0.252 OA
ATOM      3  N   UNL     1      -6.920 -11.957  17.791  0.00  0.00    -0.284 N 
ATOM      4  N   UNL     1      -5.674 -12.502  14.901  0.00  0.00    -0.311 N 
ATOM      5  N   UNL     1      -8.807 -10.596  17.399  0.00  0.00    -0.269 N 
ATOM      7  C   UNL     1      -6.837 -14.112  16.515  0.00  0.00    +0.027 C 
ATOM      8  C   UNL     1      -4.746 -13.010  17.188  0.00  0.00    +0.054 C 
ATOM      9  C   UNL     1      -5.437 -14.365  17.061  0.00  0.00    +0.018 C 
ATOM     10  C   UNL     1      -7.642 -13.195  17.458  0.00  0.00    +0.114 C 
ATOM     11  C   UNL     1      -6.715 -13.518  15.106  0.00  0.00    +0.130 C 
ATOM     12  C   UNL     1      -5.521 -12.142  18.195  0.00  0.00    +0.119 C 
ATOM     13  C   UNL     1      -4.669 -12.299  15.849  0.00  0.00    +0.027 A 
ATOM     14  C   UNL     1      -3.660 -11.454  15.589  0.00  0.00    +0.022 A 
ATOM     15  C   UNL     1      -5.679 -11.831  13.663  0.00  0.00    +0.259 A 
ATOM     16  C   UNL     1      -7.466 -10.654  17.775  0.00  0.00    +0.306 C 
ATOM     17  C   UNL     1      -4.557 -10.859  13.417  0.00  0.00    +0.048 A 
ATOM     18  C   UNL     1      -3.609 -10.720  14.357  0.00  0.00    +0.015 A 
ATOM     30  H   UNL     1      -9.401 -11.387  17.627  0.00  0.00    +0.156 HD
ENDROOT
BRANCH  17  19
ATOM      6  N   UNL     1      -5.505  -8.408  10.735  0.00  0.00    -0.263 NA
ATOM     19  C   UNL     1      -4.494 -10.063  12.179  0.00  0.00    +0.005 A 
ATOM     21  C   UNL     1      -3.422 -10.187  11.300  0.00  0.00    +0.011 A 
ATOM     22  C   UNL     1      -5.499  -9.168  11.854  0.00  0.00    +0.119 A 
ATOM     25  C   UNL     1      -3.392  -9.422  10.139  0.00  0.00    +0.020 A 
ATOM     26  C   UNL     1      -4.447  -8.556   9.904  0.00  0.00    +0.111 A 
ENDBRANCH  17  19
BRANCH   5  20
ATOM     20  C   UNL     1      -9.467  -9.532  16.735  0.00  0.00    +0.035 A 
ATOM     23  C   UNL     1      -9.642  -9.576  15.352  0.00  0.00    +0.023 A 
ATOM     24  C   UNL     1      -9.939  -8.441  17.465  0.00  0.00    +0.023 A 
ATOM     27  C   UNL     1     -10.290  -8.527  14.699  0.00  0.00    +0.002 A 
ATOM     28  C   UNL     1     -10.587  -7.393  16.811  0.00  0.00    +0.002 A 
ATOM     29  C   UNL     1     -10.763  -7.437  15.428  0.00  0.00    +0.000 A 
ENDBRANCH   5  20
TORSDOF 2
ENDMDL
MODEL 8
REMARK VINA RESULT:      -6.1     27.899     30.447
REMARK  Name = 40533465
REMARK  2 active torsions:
REMARK  status: ('A' for Active; 'I' for Inactive)
REMARK    1  A    between atoms: N_5  and  C_20
REMARK    2  A    between atoms: C_17  and  C_19
REMARK                            x       y       z     vdW  Elec       q    Type
REMARK                         _______ _______ _______ _____ _____    ______ ____
ROOT
ATOM      1  O   UNL     1      -5.595 -13.057  15.721  0.00  0.00    -0.267 OA
ATOM      2  O   UNL     1      -9.764  -9.300  17.206  0.00  0.00    -0.252 OA
ATOM      3  N   UNL     1      -9.755 -11.460  18.035  0.00  0.00    -0.284 N 
ATOM      4  N   UNL     1      -6.756 -12.496  17.664  0.00  0.00    -0.311 N 
ATOM      5  N   UNL     1     -10.526 -11.020  15.849  0.00  0.00    -0.269 N 
ATOM      7  C   UNL     1      -8.843 -13.761  18.435  0.00  0.00    +0.027 C 
ATOM      8  C   UNL     1      -8.006 -11.868  19.759  0.00  0.00    +0.054 C 
ATOM      9  C   UNL     1      -8.421 -13.336  19.835  0.00  0.00    +0.018 C 
ATOM     10  C   UNL     1     -10.020 -12.904  17.926  0.00  0.00    +0.114 C 
ATOM     11  C   UNL     1      -7.626 -13.669  17.506  0.00  0.00    +0.130 C 
ATOM     12  C   UNL     1      -9.217 -11.023  19.329  0.00  0.00    +0.119 C 
ATOM     13  C   UNL     1      -6.864 -11.665  18.781  0.00  0.00    +0.027 A 
ATOM     14  C   UNL     1      -5.981 -10.672  18.968  0.00  0.00    +0.022 A 
ATOM     15  C   UNL     1      -5.746 -12.323  16.699  0.00  0.00    +0.259 A 
ATOM     16  C   UNL     1      -9.994 -10.499  17.028  0.00  0.00    +0.306 C 
ATOM     17  C   UNL     1      -4.796 -11.175  16.914  0.00  0.00    +0.048 A 
ATOM     18  C   UNL     1      -4.937 -10.422  18.016  0.00  0.00    +0.015 A 
ATOM     30  H   UNL     1     -11.123 -11.838  15.916  0.00  0.00    +0.156 HD
ENDROOT
BRANCH  17  19
ATOM      6  N   UNL     1      -3.109 -10.388  13.653  0.00  0.00    -0.263 NA
ATOM     19  C   UNL     1      -3.736 -10.868  15.938  0.00  0.00    +0.005 A 
ATOM     21  C   UNL     1      -2.405 -10.766  16.333  0.00  0.00    +0.011 A 
ATOM     22  C   UNL     1      -4.032 -10.672  14.600  0.00  0.00    +0.119 A 
ATOM     25  C   UNL     1      -1.427 -10.475  15.388  0.00  0.00    +0.020 A 
ATOM     26  C   UNL     1      -1.826 -10.297  14.074  0.00  0.00    +0.111 A 
ENDBRANCH  17  19
BRANCH   5  20
ATOM     20  C   UNL     1     -10.345 -10.524  14.534  0.00  0.00    +0.035 A 
ATOM     23  C   UNL     1      -9.146 -10.758  13.861  0.00  0.00    +0.023 A 
ATOM     24  C   UNL     1     -11.364  -9.802  13.914  0.00  0.00    +0.023 A 
ATOM     27  C   UNL     1      -8.967 -10.269  12.567  0.00  0.00    +0.002 A 
ATOM     28  C   UNL     1     -11.185  -9.313  12.620  0.00  0.00    +0.002 A 
ATOM     29  C   UNL     1      -9.987  -9.547  11.947  0.00  0.00    +0.000 A 
ENDBRANCH   5  20
TORSDOF 2
ENDMDL
MODEL 9
REMARK VINA RESULT:      -6.1     23.044     24.900
REMARK  Name = 40533465
REMARK  2 active torsions:
REMARK  status: ('A' for Active; 'I' for Inactive)
REMARK    1  A    between atoms: N_5  and  C_20
REMARK    2  A    between atoms: C_17  and  C_19
REMARK                            x       y       z     vdW  Elec       q    Type
REMARK                         _______ _______ _______ _____ _____    ______ ____
ROOT
ATOM      1  O   UNL     1      -5.943  10.389   4.150  0.00  0.00    -0.267 OA
ATOM      2  O   UNL     1      -1.174   9.090   1.103  0.00  0.00    -0.252 OA
ATOM      3  N   UNL     1      -1.175  10.823   2.637  0.00  0.00    -0.284 N 
ATOM      4  N   UNL     1      -3.653  10.244   4.568  0.00  0.00    -0.311 N 
ATOM      5  N   UNL     1      -2.122  11.119   0.496  0.00  0.00    -0.269 N 
ATOM      7  C   UNL     1      -2.102  12.276   4.457  0.00  0.00    +0.027 C 
ATOM      8  C   UNL     1      -1.179  10.067   5.009  0.00  0.00    +0.054 C 
ATOM      9  C   UNL     1      -1.256  11.520   5.473  0.00  0.00    +0.018 C 
ATOM     10  C   UNL     1      -1.475  12.204   3.049  0.00  0.00    +0.114 C 
ATOM     11  C   UNL     1      -3.525  11.705   4.479  0.00  0.00    +0.130 C 
ATOM     12  C   UNL     1      -0.477  10.012   3.641  0.00  0.00    +0.119 C 
ATOM     13  C   UNL     1      -2.559   9.444   4.904  0.00  0.00    +0.027 A 
ATOM     14  C   UNL     1      -2.723   8.127   5.100  0.00  0.00    +0.022 A 
ATOM     15  C   UNL     1      -4.947   9.711   4.409  0.00  0.00    +0.259 A 
ATOM     16  C   UNL     1      -1.480  10.253   1.380  0.00  0.00    +0.306 C 
ATOM     17  C   UNL     1      -5.092   8.224   4.594  0.00  0.00    +0.048 A 
ATOM     18  C   UNL     1      -4.009   7.510   4.936  0.00  0.00    +0.015 A 
ATOM     30  H   UNL     1      -1.913  12.109   0.561  0.00  0.00    +0.156 HD
ENDROOT
BRANCH  17  19
ATOM      6  N   UNL     1      -8.518   7.471   3.256  0.00  0.00    -0.263 NA
ATOM     19  C   UNL     1      -6.389   7.554   4.398  0.00  0.00    +0.005 A 
ATOM     21  C   UNL     1      -6.725   6.415   5.124  0.00  0.00    +0.011 A 
ATOM     22  C   UNL     1      -7.311   8.036   3.485  0.00  0.00    +0.119 A 
ATOM     25  C   UNL     1      -7.957   5.805   4.916  0.00  0.00    +0.020 A 
ATOM     26  C   UNL     1      -8.810   6.366   3.980  0.00  0.00    +0.111 A 
ENDBRANCH  17  19
BRANCH   5  20
ATOM     20  C   UNL     1      -3.044  10.773  -0.523  0.00  0.00    +0.035 A 
ATOM     23  C   UNL     1      -4.299  10.267  -0.185  0.00  0.00    +0.023 A 
ATOM     24  C   UNL     1      -2.697  10.939  -1.864  0.00  0.00    +0.023 A 
ATOM     27  C   UNL     1      -5.206   9.926  -1.188  0.00  0.00    +0.002 A 
ATOM     28  C   UNL     1      -3.604  10.598  -2.867  0.00  0.00    +0.002 A 
ATOM     29  C   UNL     1      -4.859  10.092  -2.528  0.00  0.00    +0.000 A 
ENDBRANCH   5  20
TORSDOF 2
ENDMDL
MODEL 10
REMARK VINA RESULT:      -6.1     27.563     30.005
REMARK  Name = 40533465
REMARK  2 active torsions:
REMARK  status: ('A' for Active; 'I' for Inactive)
REMARK    1  A    between atoms: N_5  and  C_20
REMARK    2  A    between atoms: C_17  and  C_19
REMARK                            x       y       z     vdW  Elec       q    Type
REMARK                         _______ _______ _______ _____ _____    ______ ____
ROOT
ATOM      1  O   UNL     1      -7.570 -12.544  12.923  0.00  0.00    -0.267 OA
ATOM      2  O   UNL     1      -3.431 -10.216  16.262  0.00  0.00    -0.252 OA
ATOM      3  N   UNL     1      -2.940 -11.900  14.754  0.00  0.00    -0.284 N 
ATOM      4  N   UNL     1      -5.349 -11.888  12.656  0.00  0.00    -0.311 N 
ATOM      5  N   UNL     1      -3.938 -12.406  16.831  0.00  0.00    -0.269 N 
ATOM      7  C   UNL     1      -3.393 -13.520  12.895  0.00  0.00    +0.027 C 
ATOM      8  C   UNL     1      -2.954 -11.158  12.377  0.00  0.00    +0.054 C 
ATOM      9  C   UNL     1      -2.671 -12.590  11.928  0.00  0.00    +0.018 C 
ATOM     10  C   UNL     1      -2.894 -13.312  14.340  0.00  0.00    +0.114 C 
ATOM     11  C   UNL     1      -4.902 -13.282  12.771  0.00  0.00    +0.130 C 
ATOM     12  C   UNL     1      -2.375 -10.950  13.788  0.00  0.00    +0.119 C 
ATOM     13  C   UNL     1      -4.441 -10.862  12.383  0.00  0.00    +0.027 A 
ATOM     14  C   UNL     1      -4.884  -9.614  12.160  0.00  0.00    +0.022 A 
ATOM     15  C   UNL     1      -6.736 -11.660  12.722  0.00  0.00    +0.259 A 
ATOM     16  C   UNL     1      -3.448 -11.416  15.980  0.00  0.00    +0.306 C 
ATOM     17  C   UNL     1      -7.199 -10.243  12.509  0.00  0.00    +0.048 A 
ATOM     18  C   UNL     1      -6.283  -9.303  12.231  0.00  0.00    +0.015 A 
ATOM     30  H   UNL     1      -3.508 -13.324  16.792  0.00  0.00    +0.156 HD
ENDROOT
BRANCH  17  19
ATOM      6  N   UNL     1     -10.488  -9.205  13.992  0.00  0.00    -0.263 NA
ATOM     19  C   UNL     1      -8.624  -9.882  12.610  0.00  0.00    +0.005 A 
ATOM     21  C   UNL     1      -9.442  -9.867  11.485  0.00  0.00    +0.011 A 
ATOM     22  C   UNL     1      -9.190  -9.545  13.828  0.00  0.00    +0.119 A 
ATOM     25  C   UNL     1     -10.783  -9.522  11.613  0.00  0.00    +0.020 A 
ATOM     26  C   UNL     1     -11.253  -9.202  12.876  0.00  0.00    +0.111 A 
ENDBRANCH  17  19
BRANCH   5  20
ATOM     20  C   UNL     1      -4.981 -12.280  17.782  0.00  0.00    +0.035 A 
ATOM     23  C   UNL     1      -4.759 -11.584  18.970  0.00  0.00    +0.023 A 
ATOM     24  C   UNL     1      -6.228 -12.850  17.530  0.00  0.00    +0.023 A 
ATOM     27  C   UNL     1      -5.785 -11.459  19.907  0.00  0.00    +0.002 A 
ATOM     28  C   UNL     1      -7.254 -12.726  18.467  0.00  0.00    +0.002 A 
ATOM     29  C   UNL     1      -7.032 -12.030  19.655  0.00  0.00    +0.000 A 
ENDBRANCH   5  20
TORSDOF 2
ENDMDL
