MODEL 1
REMARK VINA RESULT:      -8.1      0.000      0.000
REMARK  Name = 11912772
REMARK  5 active torsions:
REMARK  status: ('A' for Active; 'I' for Inactive)
REMARK    1  A    between atoms: O_3  and  C_14
REMARK    2  A    between atoms: O_3  and  C_23
REMARK    3  A    between atoms: N_7  and  C_13
REMARK    4  A    between atoms: N_8  and  C_17
REMARK    5  A    between atoms: C_25  and  C_28
REMARK                            x       y       z     vdW  Elec       q    Type
REMARK                         _______ _______ _______ _____ _____    ______ ____
ROOT
ATOM      1  O   UNL     1     -11.319  -9.501  16.431  0.00  0.00    -0.368 OA
ATOM      2  O   UNL     1      -9.835  -6.883  15.832  0.00  0.00    -0.368 OA
ATOM     11  C   UNL     1      -9.871  -7.715  17.011  0.00  0.00    +0.173 C 
ATOM     12  C   UNL     1     -11.286  -8.246  17.130  0.00  0.00    +0.192 C 
ATOM     13  C   UNL     1      -9.033  -8.953  16.797  0.00  0.00    +0.130 C 
ATOM     14  C   UNL     1     -12.094  -7.187  16.418  0.00  0.00    +0.235 C 
ATOM     15  C   UNL     1      -9.987  -9.863  16.040  0.00  0.00    +0.185 C 
ATOM     16  C   UNL     1     -11.164  -6.774  15.300  0.00  0.00    +0.207 C 
ENDROOT
BRANCH  13   7
ATOM      7  N   UNL     1      -8.677  -9.545  18.068  0.00  0.00    -0.306 N 
ATOM      9  N   UNL     1      -6.559 -10.123  17.313  0.00  0.00    -0.214 NA
ATOM     10  N   UNL     1      -7.267 -10.632  19.559  0.00  0.00    -0.223 NA
ATOM     24  C   UNL     1      -7.447 -10.125  18.325  0.00  0.00    +0.216 A 
ATOM     25  C   UNL     1      -5.371 -10.697  17.597  0.00  0.00    +0.076 A 
ATOM     26  C   UNL     1      -6.057 -11.189  19.774  0.00  0.00    +0.116 A 
ATOM     27  C   UNL     1      -5.061 -11.251  18.822  0.00  0.00    +0.048 A 
ATOM     35  H   UNL     1      -9.331  -9.496  18.840  0.00  0.00    +0.149 HD
BRANCH  25  28
ATOM      5  O   UNL     1      -4.152 -10.481  12.863  0.00  0.00    -0.453 OA
ATOM      6  O   UNL     1      -1.801 -10.681  13.351  0.00  0.00    -0.453 OA
ATOM     28  C   UNL     1      -4.415 -10.695  16.515  0.00  0.00    +0.004 A 
ATOM     29  C   UNL     1      -4.860 -10.578  15.197  0.00  0.00    +0.059 A 
ATOM     30  C   UNL     1      -3.043 -10.813  16.800  0.00  0.00    +0.014 A 
ATOM     31  C   UNL     1      -3.909 -10.583  14.197  0.00  0.00    +0.167 A 
ATOM     32  C   UNL     1      -2.566 -10.698  14.476  0.00  0.00    +0.166 A 
ATOM     33  C   UNL     1      -2.100 -10.814  15.769  0.00  0.00    +0.050 A 
ATOM     34  C   UNL     1      -2.813 -10.543  12.332  0.00  0.00    +0.466 C 
ENDBRANCH  25  28
ENDBRANCH  13   7
BRANCH  14   3
ATOM      3  O   UNL     1     -13.332  -7.656  15.933  0.00  0.00    -0.442 OA
BRANCH   3  23
ATOM      4  O   UNL     1     -13.260  -8.683  13.880  0.00  0.00    -0.226 OA
ATOM      8  N   UNL     1     -13.922  -6.470  14.097  0.00  0.00    -0.278 N 
ATOM     23  C   UNL     1     -13.486  -7.691  14.565  0.00  0.00    +0.401 C 
ATOM     36  H   UNL     1     -14.025  -5.720  14.773  0.00  0.00    +0.152 HD
BRANCH   8  17
ATOM     17  C   UNL     1     -14.178  -6.192  12.701  0.00  0.00    +0.076 C 
ATOM     18  C   UNL     1     -15.233  -5.091  12.543  0.00  0.00    +0.022 C 
ATOM     19  C   UNL     1     -12.883  -5.828  11.966  0.00  0.00    +0.022 C 
ATOM     20  C   UNL     1     -14.703  -3.711  12.932  0.00  0.00    +0.002 C 
ATOM     21  C   UNL     1     -12.357  -4.448  12.356  0.00  0.00    +0.002 C 
ATOM     22  C   UNL     1     -13.421  -3.368  12.180  0.00  0.00    +0.000 C 
ENDBRANCH   8  17
ENDBRANCH   3  23
ENDBRANCH  14   3
TORSDOF 5
ENDMDL
MODEL 2
REMARK VINA RESULT:      -8.0      5.670      9.267
REMARK  Name = 11912772
REMARK  5 active torsions:
REMARK  status: ('A' for Active; 'I' for Inactive)
REMARK    1  A    between atoms: O_3  and  C_14
REMARK    2  A    between atoms: O_3  and  C_23
REMARK    3  A    between atoms: N_7  and  C_13
REMARK    4  A    between atoms: N_8  and  C_17
REMARK    5  A    between atoms: C_25  and  C_28
REMARK                            x       y       z     vdW  Elec       q    Type
REMARK                         _______ _______ _______ _____ _____    ______ ____
ROOT
ATOM      1  O   UNL     1      -5.058  -9.052  10.334  0.00  0.00    -0.368 OA
ATOM      2  O   UNL     1      -6.322 -11.813  10.773  0.00  0.00    -0.368 OA
ATOM     11  C   UNL     1      -4.962 -11.351  10.907  0.00  0.00    +0.173 C 
ATOM     12  C   UNL     1      -4.729 -10.344   9.799  0.00  0.00    +0.192 C 
ATOM     13  C   UNL     1      -4.813 -10.541  12.173  0.00  0.00    +0.130 C 
ATOM     14  C   UNL     1      -5.719 -10.782   8.745  0.00  0.00    +0.235 C 
ATOM     15  C   UNL     1      -5.309  -9.171  11.742  0.00  0.00    +0.185 C 
ATOM     16  C   UNL     1      -6.889 -11.246   9.582  0.00  0.00    +0.207 C 
ENDROOT
BRANCH  13   7
ATOM      7  N   UNL     1      -3.422 -10.471  12.564  0.00  0.00    -0.306 N 
ATOM      9  N   UNL     1      -3.946 -10.676  14.817  0.00  0.00    -0.214 NA
ATOM     10  N   UNL     1      -1.662 -10.461  14.080  0.00  0.00    -0.223 NA
ATOM     24  C   UNL     1      -2.991 -10.539  13.878  0.00  0.00    +0.216 A 
ATOM     25  C   UNL     1      -3.491 -10.739  16.086  0.00  0.00    +0.076 A 
ATOM     26  C   UNL     1      -1.278 -10.531  15.371  0.00  0.00    +0.116 A 
ATOM     27  C   UNL     1      -2.156 -10.671  16.426  0.00  0.00    +0.048 A 
ATOM     35  H   UNL     1      -2.706 -10.420  11.849  0.00  0.00    +0.149 HD
BRANCH  25  28
ATOM      5  O   UNL     1      -8.069 -10.276  17.752  0.00  0.00    -0.453 OA
ATOM      6  O   UNL     1      -7.503 -11.250  19.883  0.00  0.00    -0.453 OA
ATOM     28  C   UNL     1      -4.512 -10.887  17.096  0.00  0.00    +0.004 A 
ATOM     29  C   UNL     1      -5.816 -10.465  16.831  0.00  0.00    +0.059 A 
ATOM     30  C   UNL     1      -4.182 -11.455  18.339  0.00  0.00    +0.014 A 
ATOM     31  C   UNL     1      -6.756 -10.627  17.828  0.00  0.00    +0.167 A 
ATOM     32  C   UNL     1      -6.433 -11.183  19.045  0.00  0.00    +0.166 A 
ATOM     33  C   UNL     1      -5.153 -11.608  19.332  0.00  0.00    +0.050 A 
ATOM     34  C   UNL     1      -8.537 -10.674  19.057  0.00  0.00    +0.466 C 
ENDBRANCH  25  28
ENDBRANCH  13   7
BRANCH  14   3
ATOM      3  O   UNL     1      -6.080  -9.754   7.852  0.00  0.00    -0.442 OA
BRANCH   3  23
ATOM      4  O   UNL     1      -6.495  -9.371   5.626  0.00  0.00    -0.226 OA
ATOM      8  N   UNL     1      -5.154 -11.134   6.314  0.00  0.00    -0.278 N 
ATOM     23  C   UNL     1      -5.956 -10.030   6.508  0.00  0.00    +0.401 C 
ATOM     36  H   UNL     1      -4.809 -11.613   7.141  0.00  0.00    +0.152 HD
BRANCH   8  17
ATOM     17  C   UNL     1      -4.834 -11.674   5.011  0.00  0.00    +0.076 C 
ATOM     18  C   UNL     1      -3.385 -12.172   4.963  0.00  0.00    +0.022 C 
ATOM     19  C   UNL     1      -5.816 -12.782   4.618  0.00  0.00    +0.022 C 
ATOM     20  C   UNL     1      -3.180 -13.454   5.769  0.00  0.00    +0.002 C 
ATOM     21  C   UNL     1      -5.607 -14.063   5.425  0.00  0.00    +0.002 C 
ATOM     22  C   UNL     1      -4.160 -14.545   5.352  0.00  0.00    +0.000 C 
ENDBRANCH   8  17
ENDBRANCH   3  23
ENDBRANCH  14   3
TORSDOF 5
ENDMDL
MODEL 3
REMARK VINA RESULT:      -7.9      1.546      2.112
REMARK  Name = 11912772
REMARK  5 active torsions:
REMARK  status: ('A' for Active; 'I' for Inactive)
REMARK    1  A    between atoms: O_3  and  C_14
REMARK    2  A    between atoms: O_3  and  C_23
REMARK    3  A    between atoms: N_7  and  C_13
REMARK    4  A    between atoms: N_8  and  C_17
REMARK    5  A    between atoms: C_25  and  C_28
REMARK                            x       y       z     vdW  Elec       q    Type
REMARK                         _______ _______ _______ _____ _____    ______ ____
ROOT
ATOM      1  O   UNL     1     -11.516  -8.761  15.175  0.00  0.00    -0.368 OA
ATOM      2  O   UNL     1     -10.592  -5.942  15.953  0.00  0.00    -0.368 OA
ATOM     11  C   UNL     1     -10.879  -7.109  16.751  0.00  0.00    +0.173 C 
ATOM     12  C   UNL     1     -12.058  -7.806  16.101  0.00  0.00    +0.192 C 
ATOM     13  C   UNL     1      -9.753  -8.107  16.632  0.00  0.00    +0.130 C 
ATOM     14  C   UNL     1     -12.757  -6.671  15.390  0.00  0.00    +0.235 C 
ATOM     15  C   UNL     1     -10.091  -8.825  15.336  0.00  0.00    +0.185 C 
ATOM     16  C   UNL     1     -11.596  -5.817  14.934  0.00  0.00    +0.207 C 
ENDROOT
BRANCH  13   7
ATOM      7  N   UNL     1      -9.784  -9.035  17.742  0.00  0.00    -0.306 N 
ATOM      9  N   UNL     1      -7.689  -9.885  17.214  0.00  0.00    -0.214 NA
ATOM     10  N   UNL     1      -8.936 -10.717  19.101  0.00  0.00    -0.223 NA
ATOM     24  C   UNL     1      -8.758  -9.917  18.032  0.00  0.00    +0.216 A 
ATOM     25  C   UNL     1      -6.708 -10.758  17.525  0.00  0.00    +0.076 A 
ATOM     26  C   UNL     1      -7.916 -11.564  19.353  0.00  0.00    +0.116 A 
ATOM     27  C   UNL     1      -6.767 -11.630  18.593  0.00  0.00    +0.048 A 
ATOM     35  H   UNL     1     -10.569  -9.018  18.383  0.00  0.00    +0.149 HD
BRANCH  25  28
ATOM      5  O   UNL     1      -1.891 -10.765  16.663  0.00  0.00    -0.453 OA
ATOM      6  O   UNL     1      -2.211 -10.636  14.279  0.00  0.00    -0.453 OA
ATOM     28  C   UNL     1      -5.559 -10.726  16.651  0.00  0.00    +0.004 A 
ATOM     29  C   UNL     1      -4.273 -10.769  17.195  0.00  0.00    +0.059 A 
ATOM     30  C   UNL     1      -5.745 -10.650  15.260  0.00  0.00    +0.014 A 
ATOM     31  C   UNL     1      -3.207 -10.734  16.320  0.00  0.00    +0.167 A 
ATOM     32  C   UNL     1      -3.390 -10.660  14.958  0.00  0.00    +0.166 A 
ATOM     33  C   UNL     1      -4.649 -10.617  14.396  0.00  0.00    +0.050 A 
ATOM     34  C   UNL     1      -1.265 -10.704  15.366  0.00  0.00    +0.466 C 
ENDBRANCH  25  28
ENDBRANCH  13   7
BRANCH  14   3
ATOM      3  O   UNL     1     -13.559  -7.094  14.311  0.00  0.00    -0.442 OA
BRANCH   3  23
ATOM      4  O   UNL     1     -15.205  -5.516  14.042  0.00  0.00    -0.226 OA
ATOM      8  N   UNL     1     -13.630  -5.907  12.384  0.00  0.00    -0.278 N 
ATOM     23  C   UNL     1     -14.224  -6.111  13.612  0.00  0.00    +0.401 C 
ATOM     36  H   UNL     1     -12.848  -6.505  12.138  0.00  0.00    +0.152 HD
BRANCH   8  17
ATOM     17  C   UNL     1     -14.099  -4.938  11.418  0.00  0.00    +0.076 C 
ATOM     18  C   UNL     1     -13.643  -3.523  11.792  0.00  0.00    +0.022 C 
ATOM     19  C   UNL     1     -13.649  -5.311  10.002  0.00  0.00    +0.022 C 
ATOM     20  C   UNL     1     -12.144  -3.316  11.576  0.00  0.00    +0.002 C 
ATOM     21  C   UNL     1     -12.151  -5.100   9.789  0.00  0.00    +0.002 C 
ATOM     22  C   UNL     1     -11.723  -3.682  10.157  0.00  0.00    +0.000 C 
ENDBRANCH   8  17
ENDBRANCH   3  23
ENDBRANCH  14   3
TORSDOF 5
ENDMDL
MODEL 4
REMARK VINA RESULT:      -7.9     26.574     29.257
REMARK  Name = 11912772
REMARK  5 active torsions:
REMARK  status: ('A' for Active; 'I' for Inactive)
REMARK    1  A    between atoms: O_3  and  C_14
REMARK    2  A    between atoms: O_3  and  C_23
REMARK    3  A    between atoms: N_7  and  C_13
REMARK    4  A    between atoms: N_8  and  C_17
REMARK    5  A    between atoms: C_25  and  C_28
REMARK                            x       y       z     vdW  Elec       q    Type
REMARK                         _______ _______ _______ _____ _____    ______ ____
ROOT
ATOM      1  O   UNL     1      13.632   8.247  16.315  0.00  0.00    -0.368 OA
ATOM      2  O   UNL     1      14.162  10.641  18.159  0.00  0.00    -0.368 OA
ATOM     11  C   UNL     1      13.192   9.575  18.230  0.00  0.00    +0.173 C 
ATOM     12  C   UNL     1      12.762   9.279  16.807  0.00  0.00    +0.192 C 
ATOM     13  C   UNL     1      13.858   8.298  18.683  0.00  0.00    +0.130 C 
ATOM     14  C   UNL     1      13.006  10.597  16.110  0.00  0.00    +0.235 C 
ATOM     15  C   UNL     1      14.453   7.766  17.390  0.00  0.00    +0.185 C 
ATOM     16  C   UNL     1      14.256  11.095  16.801  0.00  0.00    +0.207 C 
ENDROOT
BRANCH  13   7
ATOM      7  N   UNL     1      12.873   7.373  19.200  0.00  0.00    -0.306 N 
ATOM      9  N   UNL     1      12.310   8.800  20.943  0.00  0.00    -0.214 NA
ATOM     10  N   UNL     1      11.226   6.664  20.677  0.00  0.00    -0.223 NA
ATOM     24  C   UNL     1      12.102   7.624  20.322  0.00  0.00    +0.216 A 
ATOM     25  C   UNL     1      11.542   9.011  22.033  0.00  0.00    +0.076 A 
ATOM     26  C   UNL     1      10.493   6.941  21.775  0.00  0.00    +0.116 A 
ATOM     27  C   UNL     1      10.609   8.109  22.500  0.00  0.00    +0.048 A 
ATOM     35  H   UNL     1      12.686   6.513  18.698  0.00  0.00    +0.149 HD
BRANCH  25  28
ATOM      5  O   UNL     1      10.512  12.370  25.440  0.00  0.00    -0.453 OA
ATOM      6  O   UNL     1      12.273  13.831  24.681  0.00  0.00    -0.453 OA
ATOM     28  C   UNL     1      11.760  10.273  22.701  0.00  0.00    +0.004 A 
ATOM     29  C   UNL     1      10.949  10.636  23.779  0.00  0.00    +0.059 A 
ATOM     30  C   UNL     1      12.787  11.125  22.259  0.00  0.00    +0.014 A 
ATOM     31  C   UNL     1      11.195  11.851  24.384  0.00  0.00    +0.167 A 
ATOM     32  C   UNL     1      12.201  12.686  23.950  0.00  0.00    +0.166 A 
ATOM     33  C   UNL     1      13.015  12.350  22.889  0.00  0.00    +0.050 A 
ATOM     34  C   UNL     1      11.200  13.625  25.624  0.00  0.00    +0.466 C 
ENDBRANCH  25  28
ENDBRANCH  13   7
BRANCH  14   3
ATOM      3  O   UNL     1      13.185  10.471  14.718  0.00  0.00    -0.442 OA
BRANCH   3  23
ATOM      4  O   UNL     1      14.068  12.362  13.757  0.00  0.00    -0.226 OA
ATOM      8  N   UNL     1      11.819  11.836  13.535  0.00  0.00    -0.278 N 
ATOM     23  C   UNL     1      13.108  11.630  13.977  0.00  0.00    +0.401 C 
ATOM     36  H   UNL     1      11.111  11.171  13.831  0.00  0.00    +0.152 HD
BRANCH   8  17
ATOM     17  C   UNL     1      11.418  12.970  12.731  0.00  0.00    +0.076 C 
ATOM     18  C   UNL     1      11.309  12.585  11.252  0.00  0.00    +0.022 C 
ATOM     19  C   UNL     1      10.108  13.574  13.246  0.00  0.00    +0.022 C 
ATOM     20  C   UNL     1      10.099  11.696  10.966  0.00  0.00    +0.002 C 
ATOM     21  C   UNL     1       8.900  12.684  12.957  0.00  0.00    +0.002 C 
ATOM     22  C   UNL     1       8.806  12.324  11.477  0.00  0.00    +0.000 C 
ENDBRANCH   8  17
ENDBRANCH   3  23
ENDBRANCH  14   3
TORSDOF 5
ENDMDL
MODEL 5
REMARK VINA RESULT:      -7.8     28.359     31.433
REMARK  Name = 11912772
REMARK  5 active torsions:
REMARK  status: ('A' for Active; 'I' for Inactive)
REMARK    1  A    between atoms: O_3  and  C_14
REMARK    2  A    between atoms: O_3  and  C_23
REMARK    3  A    between atoms: N_7  and  C_13
REMARK    4  A    between atoms: N_8  and  C_17
REMARK    5  A    between atoms: C_25  and  C_28
REMARK                            x       y       z     vdW  Elec       q    Type
REMARK                         _______ _______ _______ _____ _____    ______ ____
ROOT
ATOM      1  O   UNL     1      11.084  12.925  24.366  0.00  0.00    -0.368 OA
ATOM      2  O   UNL     1      13.894  12.211  23.364  0.00  0.00    -0.368 OA
ATOM     11  C   UNL     1      12.730  11.394  23.612  0.00  0.00    +0.173 C 
ATOM     12  C   UNL     1      12.045  11.967  24.837  0.00  0.00    +0.192 C 
ATOM     13  C   UNL     1      11.720  11.585  22.506  0.00  0.00    +0.130 C 
ATOM     14  C   UNL     1      13.186  12.633  25.569  0.00  0.00    +0.235 C 
ATOM     15  C   UNL     1      11.006  12.856  22.934  0.00  0.00    +0.185 C 
ATOM     16  C   UNL     1      14.029  13.163  24.431  0.00  0.00    +0.207 C 
ENDROOT
BRANCH  13   7
ATOM      7  N   UNL     1      10.793  10.474  22.475  0.00  0.00    -0.306 N 
ATOM      9  N   UNL     1      12.451   8.985  21.824  0.00  0.00    -0.214 NA
ATOM     10  N   UNL     1      10.178   8.257  22.157  0.00  0.00    -0.223 NA
ATOM     24  C   UNL     1      11.157   9.182  22.138  0.00  0.00    +0.216 A 
ATOM     25  C   UNL     1      12.771   7.714  21.499  0.00  0.00    +0.076 A 
ATOM     26  C   UNL     1      10.568   7.010  21.823  0.00  0.00    +0.116 A 
ATOM     27  C   UNL     1      11.862   6.676  21.482  0.00  0.00    +0.048 A 
ATOM     35  H   UNL     1       9.832  10.620  22.763  0.00  0.00    +0.149 HD
BRANCH  25  28
ATOM      5  O   UNL     1      16.344   5.672  18.852  0.00  0.00    -0.453 OA
ATOM      6  O   UNL     1      18.063   6.795  20.113  0.00  0.00    -0.453 OA
ATOM     28  C   UNL     1      14.158   7.498  21.164  0.00  0.00    +0.004 A 
ATOM     29  C   UNL     1      14.492   6.640  20.113  0.00  0.00    +0.059 A 
ATOM     30  C   UNL     1      15.161   8.153  21.900  0.00  0.00    +0.014 A 
ATOM     31  C   UNL     1      15.831   6.465  19.831  0.00  0.00    +0.167 A 
ATOM     32  C   UNL     1      16.813   7.106  20.552  0.00  0.00    +0.166 A 
ATOM     33  C   UNL     1      16.510   7.958  21.593  0.00  0.00    +0.050 A 
ATOM     34  C   UNL     1      17.758   5.887  19.034  0.00  0.00    +0.466 C 
ENDBRANCH  25  28
ENDBRANCH  13   7
BRANCH  14   3
ATOM      3  O   UNL     1      12.771  13.657  26.443  0.00  0.00    -0.442 OA
BRANCH   3  23
ATOM      4  O   UNL     1      13.960  15.179  27.686  0.00  0.00    -0.226 OA
ATOM      8  N   UNL     1      14.130  12.900  28.089  0.00  0.00    -0.278 N 
ATOM     23  C   UNL     1      13.654  14.018  27.437  0.00  0.00    +0.401 C 
ATOM     36  H   UNL     1      13.825  11.994  27.746  0.00  0.00    +0.152 HD
BRANCH   8  17
ATOM     17  C   UNL     1      15.075  12.952  29.182  0.00  0.00    +0.076 C 
ATOM     18  C   UNL     1      15.005  11.677  30.030  0.00  0.00    +0.022 C 
ATOM     19  C   UNL     1      16.497  13.201  28.669  0.00  0.00    +0.022 C 
ATOM     20  C   UNL     1      15.593  10.463  29.311  0.00  0.00    +0.002 C 
ATOM     21  C   UNL     1      17.082  11.985  27.952  0.00  0.00    +0.002 C 
ATOM     22  C   UNL     1      17.012  10.731  28.820  0.00  0.00    +0.000 C 
ENDBRANCH   8  17
ENDBRANCH   3  23
ENDBRANCH  14   3
TORSDOF 5
ENDMDL
MODEL 6
REMARK VINA RESULT:      -7.8     28.157     31.566
REMARK  Name = 11912772
REMARK  5 active torsions:
REMARK  status: ('A' for Active; 'I' for Inactive)
REMARK    1  A    between atoms: O_3  and  C_14
REMARK    2  A    between atoms: O_3  and  C_23
REMARK    3  A    between atoms: N_7  and  C_13
REMARK    4  A    between atoms: N_8  and  C_17
REMARK    5  A    between atoms: C_25  and  C_28
REMARK                            x       y       z     vdW  Elec       q    Type
REMARK                         _______ _______ _______ _____ _____    ______ ____
ROOT
ATOM      1  O   UNL     1      12.839  10.304  18.017  0.00  0.00    -0.368 OA
ATOM      2  O   UNL     1      13.858   7.929  16.363  0.00  0.00    -0.368 OA
ATOM     11  C   UNL     1      13.157   9.131  15.981  0.00  0.00    +0.173 C 
ATOM     12  C   UNL     1      12.169   9.435  17.089  0.00  0.00    +0.192 C 
ATOM     13  C   UNL     1      14.101  10.309  16.000  0.00  0.00    +0.130 C 
ATOM     14  C   UNL     1      11.916   8.070  17.684  0.00  0.00    +0.235 C 
ATOM     15  C   UNL     1      14.106  10.696  17.470  0.00  0.00    +0.185 C 
ATOM     16  C   UNL     1      13.274   7.415  17.569  0.00  0.00    +0.207 C 
ENDROOT
BRANCH  13   7
ATOM      7  N   UNL     1      13.572  11.391  15.198  0.00  0.00    -0.306 N 
ATOM      9  N   UNL     1      15.659  11.877  14.305  0.00  0.00    -0.214 NA
ATOM     10  N   UNL     1      13.705  13.137  13.672  0.00  0.00    -0.223 NA
ATOM     24  C   UNL     1      14.346  12.169  14.355  0.00  0.00    +0.216 A 
ATOM     25  C   UNL     1      16.384  12.655  13.474  0.00  0.00    +0.076 A 
ATOM     26  C   UNL     1      14.490  13.876  12.861  0.00  0.00    +0.116 A 
ATOM     27  C   UNL     1      15.848  13.678  12.719  0.00  0.00    +0.048 A 
ATOM     35  H   UNL     1      12.574  11.571  15.201  0.00  0.00    +0.149 HD
BRANCH  25  28
ATOM      5  O   UNL     1      20.646  11.367  15.504  0.00  0.00    -0.453 OA
ATOM      6  O   UNL     1      21.797  11.442  13.388  0.00  0.00    -0.453 OA
ATOM     28  C   UNL     1      17.793  12.344  13.416  0.00  0.00    +0.004 A 
ATOM     29  C   UNL     1      18.476  12.003  14.586  0.00  0.00    +0.059 A 
ATOM     30  C   UNL     1      18.464  12.389  12.182  0.00  0.00    +0.014 A 
ATOM     31  C   UNL     1      19.821  11.715  14.480  0.00  0.00    +0.167 A 
ATOM     32  C   UNL     1      20.479  11.759  13.271  0.00  0.00    +0.166 A 
ATOM     33  C   UNL     1      19.827  12.092  12.102  0.00  0.00    +0.050 A 
ATOM     34  C   UNL     1      21.896  11.194  14.806  0.00  0.00    +0.466 C 
ENDBRANCH  25  28
ENDBRANCH  13   7
BRANCH  14   3
ATOM      3  O   UNL     1      11.460   8.114  19.017  0.00  0.00    -0.442 OA
BRANCH   3  23
ATOM      4  O   UNL     1      11.795   6.211  20.259  0.00  0.00    -0.226 OA
ATOM      8  N   UNL     1      13.245   8.017  20.407  0.00  0.00    -0.278 N 
ATOM     23  C   UNL     1      12.142   7.341  19.930  0.00  0.00    +0.401 C 
ATOM     36  H   UNL     1      13.387   8.968  20.081  0.00  0.00    +0.152 HD
BRANCH   8  17
ATOM     17  C   UNL     1      14.162   7.468  21.381  0.00  0.00    +0.076 C 
ATOM     18  C   UNL     1      15.222   6.591  20.705  0.00  0.00    +0.022 C 
ATOM     19  C   UNL     1      14.810   8.579  22.214  0.00  0.00    +0.022 C 
ATOM     20  C   UNL     1      16.238   7.409  19.908  0.00  0.00    +0.002 C 
ATOM     21  C   UNL     1      15.826   9.393  21.414  0.00  0.00    +0.002 C 
ATOM     22  C   UNL     1      16.876   8.500  20.761  0.00  0.00    +0.000 C 
ENDBRANCH   8  17
ENDBRANCH   3  23
ENDBRANCH  14   3
TORSDOF 5
ENDMDL
MODEL 7
REMARK VINA RESULT:      -7.8      4.479      7.673
REMARK  Name = 11912772
REMARK  5 active torsions:
REMARK  status: ('A' for Active; 'I' for Inactive)
REMARK    1  A    between atoms: O_3  and  C_14
REMARK    2  A    between atoms: O_3  and  C_23
REMARK    3  A    between atoms: N_7  and  C_13
REMARK    4  A    between atoms: N_8  and  C_17
REMARK    5  A    between atoms: C_25  and  C_28
REMARK                            x       y       z     vdW  Elec       q    Type
REMARK                         _______ _______ _______ _____ _____    ______ ____
ROOT
ATOM      1  O   UNL     1      -4.298  -9.235   9.836  0.00  0.00    -0.368 OA
ATOM      2  O   UNL     1      -5.928 -11.768  10.421  0.00  0.00    -0.368 OA
ATOM     11  C   UNL     1      -4.547 -11.437  10.679  0.00  0.00    +0.173 C 
ATOM     12  C   UNL     1      -4.065 -10.613   9.502  0.00  0.00    +0.192 C 
ATOM     13  C   UNL     1      -4.452 -10.490  11.851  0.00  0.00    +0.130 C 
ATOM     14  C   UNL     1      -4.970 -11.079   8.385  0.00  0.00    +0.235 C 
ATOM     15  C   UNL     1      -4.725  -9.143  11.203  0.00  0.00    +0.185 C 
ATOM     16  C   UNL     1      -6.278 -11.305   9.108  0.00  0.00    +0.207 C 
ENDROOT
BRANCH  13   7
ATOM      7  N   UNL     1      -3.118 -10.515  12.411  0.00  0.00    -0.306 N 
ATOM      9  N   UNL     1      -3.930 -10.606  14.585  0.00  0.00    -0.214 NA
ATOM     10  N   UNL     1      -1.562 -10.593  14.134  0.00  0.00    -0.223 NA
ATOM     24  C   UNL     1      -2.859 -10.575  13.770  0.00  0.00    +0.216 A 
ATOM     25  C   UNL     1      -3.641 -10.663  15.902  0.00  0.00    +0.076 A 
ATOM     26  C   UNL     1      -1.347 -10.651  15.465  0.00  0.00    +0.116 A 
ATOM     27  C   UNL     1      -2.356 -10.688  16.405  0.00  0.00    +0.048 A 
ATOM     35  H   UNL     1      -2.318 -10.544  11.790  0.00  0.00    +0.149 HD
BRANCH  25  28
ATOM      5  O   UNL     1      -8.364  -9.900  16.932  0.00  0.00    -0.453 OA
ATOM      6  O   UNL     1      -8.119 -10.744  19.176  0.00  0.00    -0.453 OA
ATOM     28  C   UNL     1      -4.786 -10.699  16.780  0.00  0.00    +0.004 A 
ATOM     29  C   UNL     1      -6.025 -10.244  16.322  0.00  0.00    +0.059 A 
ATOM     30  C   UNL     1      -4.644 -11.191  18.089  0.00  0.00    +0.014 A 
ATOM     31  C   UNL     1      -7.090 -10.298  17.198  0.00  0.00    +0.167 A 
ATOM     32  C   UNL     1      -6.950 -10.780  18.480  0.00  0.00    +0.166 A 
ATOM     33  C   UNL     1      -5.738 -11.234  18.956  0.00  0.00    +0.050 A 
ATOM     34  C   UNL     1      -9.011 -10.187  18.188  0.00  0.00    +0.466 C 
ENDBRANCH  25  28
ENDBRANCH  13   7
BRANCH  14   3
ATOM      3  O   UNL     1      -5.097 -10.144   7.338  0.00  0.00    -0.442 OA
BRANCH   3  23
ATOM      4  O   UNL     1      -6.810 -10.881   5.999  0.00  0.00    -0.226 OA
ATOM      8  N   UNL     1      -6.953  -8.862   7.133  0.00  0.00    -0.278 N 
ATOM     23  C   UNL     1      -6.338 -10.037   6.752  0.00  0.00    +0.401 C 
ATOM     36  H   UNL     1      -6.426  -8.231   7.728  0.00  0.00    +0.152 HD
BRANCH   8  17
ATOM     17  C   UNL     1      -8.267  -8.463   6.682  0.00  0.00    +0.076 C 
ATOM     18  C   UNL     1      -9.362  -9.086   7.557  0.00  0.00    +0.022 C 
ATOM     19  C   UNL     1      -8.394  -6.936   6.638  0.00  0.00    +0.022 C 
ATOM     20  C   UNL     1      -9.425  -8.459   8.950  0.00  0.00    +0.002 C 
ATOM     21  C   UNL     1      -8.459  -6.314   8.032  0.00  0.00    +0.002 C 
ATOM     22  C   UNL     1      -9.562  -6.942   8.879  0.00  0.00    +0.000 C 
ENDBRANCH   8  17
ENDBRANCH   3  23
ENDBRANCH  14   3
TORSDOF 5
ENDMDL
MODEL 8
REMARK VINA RESULT:      -7.7     27.958     29.849
REMARK  Name = 11912772
REMARK  5 active torsions:
REMARK  status: ('A' for Active; 'I' for Inactive)
REMARK    1  A    between atoms: O_3  and  C_14
REMARK    2  A    between atoms: O_3  and  C_23
REMARK    3  A    between atoms: N_7  and  C_13
REMARK    4  A    between atoms: N_8  and  C_17
REMARK    5  A    between atoms: C_25  and  C_28
REMARK                            x       y       z     vdW  Elec       q    Type
REMARK                         _______ _______ _______ _____ _____    ______ ____
ROOT
ATOM      1  O   UNL     1      12.907   9.993  14.911  0.00  0.00    -0.368 OA
ATOM      2  O   UNL     1      15.786  10.997  15.249  0.00  0.00    -0.368 OA
ATOM     11  C   UNL     1      14.652  11.025  16.141  0.00  0.00    +0.173 C 
ATOM     12  C   UNL     1      13.427  11.279  15.285  0.00  0.00    +0.192 C 
ATOM     13  C   UNL     1      14.415   9.650  16.719  0.00  0.00    +0.130 C 
ATOM     14  C   UNL     1      14.004  12.017  14.099  0.00  0.00    +0.235 C 
ATOM     15  C   UNL     1      13.621   8.968  15.617  0.00  0.00    +0.185 C 
ATOM     16  C   UNL     1      15.346  11.342  13.927  0.00  0.00    +0.207 C 
ENDROOT
BRANCH  13   7
ATOM      7  N   UNL     1      13.622   9.742  17.925  0.00  0.00    -0.306 N 
ATOM      9  N   UNL     1      15.143   8.472  19.135  0.00  0.00    -0.214 NA
ATOM     10  N   UNL     1      13.141   9.336  20.161  0.00  0.00    -0.223 NA
ATOM     24  C   UNL     1      13.985   9.159  19.127  0.00  0.00    +0.216 A 
ATOM     25  C   UNL     1      15.466   7.915  20.322  0.00  0.00    +0.076 A 
ATOM     26  C   UNL     1      13.526   8.753  21.316  0.00  0.00    +0.116 A 
ATOM     27  C   UNL     1      14.689   8.024  21.457  0.00  0.00    +0.048 A 
ATOM     35  H   UNL     1      12.778  10.303  17.925  0.00  0.00    +0.149 HD
BRANCH  25  28
ATOM      5  O   UNL     1      19.860   6.826  22.179  0.00  0.00    -0.453 OA
ATOM      6  O   UNL     1      20.280   5.164  20.486  0.00  0.00    -0.453 OA
ATOM     28  C   UNL     1      16.708   7.180  20.336  0.00  0.00    +0.004 A 
ATOM     29  C   UNL     1      17.655   7.439  21.330  0.00  0.00    +0.059 A 
ATOM     30  C   UNL     1      16.953   6.211  19.349  0.00  0.00    +0.014 A 
ATOM     31  C   UNL     1      18.828   6.712  21.301  0.00  0.00    +0.167 A 
ATOM     32  C   UNL     1      19.068   5.762  20.333  0.00  0.00    +0.166 A 
ATOM     33  C   UNL     1      18.149   5.488  19.342  0.00  0.00    +0.050 A 
ATOM     34  C   UNL     1      20.777   5.842  21.659  0.00  0.00    +0.466 C 
ENDBRANCH  25  28
ENDBRANCH  13   7
BRANCH  14   3
ATOM      3  O   UNL     1      13.210  11.922  12.939  0.00  0.00    -0.442 OA
BRANCH   3  23
ATOM      4  O   UNL     1      12.315  14.017  13.227  0.00  0.00    -0.226 OA
ATOM      8  N   UNL     1      11.174  12.372  12.055  0.00  0.00    -0.278 N 
ATOM     23  C   UNL     1      12.233  12.879  12.778  0.00  0.00    +0.401 C 
ATOM     36  H   UNL     1      11.220  11.394  11.783  0.00  0.00    +0.152 HD
BRANCH   8  17
ATOM     17  C   UNL     1       9.993  13.135  11.721  0.00  0.00    +0.076 C 
ATOM     18  C   UNL     1      10.210  13.956  10.444  0.00  0.00    +0.022 C 
ATOM     19  C   UNL     1       8.767  12.225  11.593  0.00  0.00    +0.022 C 
ATOM     20  C   UNL     1      10.251  13.085   9.188  0.00  0.00    +0.002 C 
ATOM     21  C   UNL     1       8.810  11.357  10.336  0.00  0.00    +0.002 C 
ATOM     22  C   UNL     1       9.016  12.197   9.078  0.00  0.00    +0.000 C 
ENDBRANCH   8  17
ENDBRANCH   3  23
ENDBRANCH  14   3
TORSDOF 5
ENDMDL
MODEL 9
REMARK VINA RESULT:      -7.6     29.228     33.399
REMARK  Name = 11912772
REMARK  5 active torsions:
REMARK  status: ('A' for Active; 'I' for Inactive)
REMARK    1  A    between atoms: O_3  and  C_14
REMARK    2  A    between atoms: O_3  and  C_23
REMARK    3  A    between atoms: N_7  and  C_13
REMARK    4  A    between atoms: N_8  and  C_17
REMARK    5  A    between atoms: C_25  and  C_28
REMARK                            x       y       z     vdW  Elec       q    Type
REMARK                         _______ _______ _______ _____ _____    ______ ____
ROOT
ATOM      1  O   UNL     1      19.720   7.995  22.760  0.00  0.00    -0.368 OA
ATOM      2  O   UNL     1      19.567   6.456  20.110  0.00  0.00    -0.368 OA
ATOM     11  C   UNL     1      18.635   6.570  21.206  0.00  0.00    +0.173 C 
ATOM     12  C   UNL     1      19.457   6.611  22.479  0.00  0.00    +0.192 C 
ATOM     13  C   UNL     1      17.953   7.917  21.168  0.00  0.00    +0.130 C 
ATOM     14  C   UNL     1      20.713   5.872  22.080  0.00  0.00    +0.235 C 
ATOM     15  C   UNL     1      18.972   8.815  21.850  0.00  0.00    +0.185 C 
ATOM     16  C   UNL     1      20.891   6.300  20.641  0.00  0.00    +0.207 C 
ENDROOT
BRANCH  13   7
ATOM      7  N   UNL     1      16.725   7.880  21.933  0.00  0.00    -0.306 N 
ATOM      9  N   UNL     1      15.467   8.616  20.126  0.00  0.00    -0.214 NA
ATOM     10  N   UNL     1      14.439   8.138  22.253  0.00  0.00    -0.223 NA
ATOM     24  C   UNL     1      15.490   8.226  21.414  0.00  0.00    +0.216 A 
ATOM     25  C   UNL     1      14.247   8.948  19.653  0.00  0.00    +0.076 A 
ATOM     26  C   UNL     1      13.251   8.484  21.714  0.00  0.00    +0.116 A 
ATOM     27  C   UNL     1      13.093   8.900  20.408  0.00  0.00    +0.048 A 
ATOM     35  H   UNL     1      16.742   7.536  22.886  0.00  0.00    +0.149 HD
BRANCH  25  28
ATOM      5  O   UNL     1      14.396  12.332  16.122  0.00  0.00    -0.453 OA
ATOM      6  O   UNL     1      14.145  10.681  14.384  0.00  0.00    -0.453 OA
ATOM     28  C   UNL     1      14.217   9.365  18.271  0.00  0.00    +0.004 A 
ATOM     29  C   UNL     1      14.334  10.720  17.954  0.00  0.00    +0.059 A 
ATOM     30  C   UNL     1      14.070   8.402  17.258  0.00  0.00    +0.014 A 
ATOM     31  C   UNL     1      14.299  11.069  16.619  0.00  0.00    +0.167 A 
ATOM     32  C   UNL     1      14.156  10.126  15.627  0.00  0.00    +0.166 A 
ATOM     33  C   UNL     1      14.039   8.782  15.914  0.00  0.00    +0.050 A 
ATOM     34  C   UNL     1      14.299  12.079  14.705  0.00  0.00    +0.466 C 
ENDBRANCH  25  28
ENDBRANCH  13   7
BRANCH  14   3
ATOM      3  O   UNL     1      21.832   6.199  22.873  0.00  0.00    -0.442 OA
BRANCH   3  23
ATOM      4  O   UNL     1      22.173   4.750  24.622  0.00  0.00    -0.226 OA
ATOM      8  N   UNL     1      23.471   4.646  22.702  0.00  0.00    -0.278 N 
ATOM     23  C   UNL     1      22.470   5.154  23.503  0.00  0.00    +0.401 C 
ATOM     36  H   UNL     1      23.639   5.108  21.814  0.00  0.00    +0.152 HD
BRANCH   8  17
ATOM     17  C   UNL     1      24.322   3.541  23.086  0.00  0.00    +0.076 C 
ATOM     18  C   UNL     1      23.707   2.201  22.667  0.00  0.00    +0.022 C 
ATOM     19  C   UNL     1      25.733   3.708  22.512  0.00  0.00    +0.022 C 
ATOM     20  C   UNL     1      23.757   1.980  21.155  0.00  0.00    +0.002 C 
ATOM     21  C   UNL     1      25.780   3.485  21.001  0.00  0.00    +0.002 C 
ATOM     22  C   UNL     1      25.172   2.140  20.610  0.00  0.00    +0.000 C 
ENDBRANCH   8  17
ENDBRANCH   3  23
ENDBRANCH  14   3
TORSDOF 5
ENDMDL
MODEL 10
REMARK VINA RESULT:      -7.6     28.434     31.459
REMARK  Name = 11912772
REMARK  5 active torsions:
REMARK  status: ('A' for Active; 'I' for Inactive)
REMARK    1  A    between atoms: O_3  and  C_14
REMARK    2  A    between atoms: O_3  and  C_23
REMARK    3  A    between atoms: N_7  and  C_13
REMARK    4  A    between atoms: N_8  and  C_17
REMARK    5  A    between atoms: C_25  and  C_28
REMARK                            x       y       z     vdW  Elec       q    Type
REMARK                         _______ _______ _______ _____ _____    ______ ____
ROOT
ATOM      1  O   UNL     1      11.228  12.549  25.611  0.00  0.00    -0.368 OA
ATOM      2  O   UNL     1      13.329  13.012  23.424  0.00  0.00    -0.368 OA
ATOM     11  C   UNL     1      12.660  11.813  23.870  0.00  0.00    +0.173 C 
ATOM     12  C   UNL     1      12.504  11.933  25.373  0.00  0.00    +0.192 C 
ATOM     13  C   UNL     1      11.240  11.790  23.356  0.00  0.00    +0.130 C 
ATOM     14  C   UNL     1      13.646  12.847  25.750  0.00  0.00    +0.235 C 
ATOM     15  C   UNL     1      10.514  12.658  24.370  0.00  0.00    +0.185 C 
ATOM     16  C   UNL     1      13.699  13.792  24.570  0.00  0.00    +0.207 C 
ENDROOT
BRANCH  13   7
ATOM      7  N   UNL     1      10.718  10.442  23.383  0.00  0.00    -0.306 N 
ATOM      9  N   UNL     1      11.646   9.938  21.316  0.00  0.00    -0.214 NA
ATOM     10  N   UNL     1      10.371   8.304  22.544  0.00  0.00    -0.223 NA
ATOM     24  C   UNL     1      10.921   9.521  22.370  0.00  0.00    +0.216 A 
ATOM     25  C   UNL     1      11.824   9.016  20.346  0.00  0.00    +0.076 A 
ATOM     26  C   UNL     1      10.588   7.433  21.537  0.00  0.00    +0.116 A 
ATOM     27  C   UNL     1      11.314   7.736  20.403  0.00  0.00    +0.048 A 
ATOM     35  H   UNL     1      10.217  10.118  24.203  0.00  0.00    +0.149 HD
BRANCH  25  28
ATOM      5  O   UNL     1      13.810   8.398  15.917  0.00  0.00    -0.453 OA
ATOM      6  O   UNL     1      14.797  10.597  15.937  0.00  0.00    -0.453 OA
ATOM     28  C   UNL     1      12.603   9.459  19.214  0.00  0.00    +0.004 A 
ATOM     29  C   UNL     1      12.778   8.611  18.119  0.00  0.00    +0.059 A 
ATOM     30  C   UNL     1      13.179  10.742  19.226  0.00  0.00    +0.014 A 
ATOM     31  C   UNL     1      13.532   9.079  17.061  0.00  0.00    +0.167 A 
ATOM     32  C   UNL     1      14.095  10.335  17.073  0.00  0.00    +0.166 A 
ATOM     33  C   UNL     1      13.937  11.191  18.142  0.00  0.00    +0.050 A 
ATOM     34  C   UNL     1      14.611   9.366  15.208  0.00  0.00    +0.466 C 
ENDBRANCH  25  28
ENDBRANCH  13   7
BRANCH  14   3
ATOM      3  O   UNL     1      13.442  13.528  26.966  0.00  0.00    -0.442 OA
BRANCH   3  23
ATOM      4  O   UNL     1      15.410  14.390  27.778  0.00  0.00    -0.226 OA
ATOM      8  N   UNL     1      14.400  12.553  28.772  0.00  0.00    -0.278 N 
ATOM     23  C   UNL     1      14.506  13.565  27.840  0.00  0.00    +0.401 C 
ATOM     36  H   UNL     1      13.619  11.911  28.677  0.00  0.00    +0.152 HD
BRANCH   8  17
ATOM     17  C   UNL     1      15.365  12.329  29.825  0.00  0.00    +0.076 C 
ATOM     18  C   UNL     1      14.704  12.411  31.205  0.00  0.00    +0.022 C 
ATOM     19  C   UNL     1      16.087  10.990  29.634  0.00  0.00    +0.022 C 
ATOM     20  C   UNL     1      13.803  11.211  31.495  0.00  0.00    +0.002 C 
ATOM     21  C   UNL     1      15.185   9.792  29.927  0.00  0.00    +0.002 C 
ATOM     22  C   UNL     1      14.547   9.892  31.310  0.00  0.00    +0.000 C 
ENDBRANCH   8  17
ENDBRANCH   3  23
ENDBRANCH  14   3
TORSDOF 5
ENDMDL
