MODEL 1
REMARK VINA RESULT:      -7.2      0.000      0.000
REMARK  Name = 26744120
REMARK  8 active torsions:
REMARK  status: ('A' for Active; 'I' for Inactive)
REMARK    1  A    between atoms: O_4  and  C_12
REMARK    2  A    between atoms: O_6  and  C_21
REMARK    3  A    between atoms: O_6  and  C_29
REMARK    4  A    between atoms: N_7  and  C_14
REMARK    5  A    between atoms: C_10  and  C_15
REMARK    6  A    between atoms: C_14  and  C_16
REMARK    7  A    between atoms: C_17  and  C_20
REMARK    8  A    between atoms: C_20  and  C_24
REMARK                            x       y       z     vdW  Elec       q    Type
REMARK                         _______ _______ _______ _____ _____    ______ ____
ROOT
ATOM      7  N   UNL     1      11.860  10.477  22.782  0.00  0.00    -0.285 NA
ATOM     10  C   UNL     1      12.846  11.566  22.629  0.00  0.00    +0.149 C 
ATOM     11  C   UNL     1      12.953  12.200  24.028  0.00  0.00    +0.061 C 
ATOM     12  C   UNL     1      11.957  11.430  24.887  0.00  0.00    +0.130 C 
ATOM     13  C   UNL     1      10.975  10.871  23.876  0.00  0.00    +0.116 C 
ENDROOT
BRANCH  10  15
ATOM      5  O   UNL     1      14.582  11.574  20.907  0.00  0.00    -0.336 OA
ATOM      8  N   UNL     1      15.019  10.224  22.640  0.00  0.00    -0.194 NA
ATOM      9  N   UNL     1      15.821  10.981  20.636  0.00  0.00    -0.061 NA
ATOM     15  C   UNL     1      14.179  11.074  22.105  0.00  0.00    +0.245 A 
ATOM     17  C   UNL     1      16.011  10.199  21.703  0.00  0.00    +0.176 A 
BRANCH  17  20
ATOM     20  C   UNL     1      17.208   9.366  21.853  0.00  0.00    +0.114 C 
BRANCH  20  24
ATOM     24  C   UNL     1      17.247   8.133  20.955  0.00  0.00    -0.040 A 
ATOM     25  C   UNL     1      16.139   7.805  20.174  0.00  0.00    +0.004 A 
ATOM     26  C   UNL     1      18.390   7.335  20.915  0.00  0.00    +0.004 A 
ATOM     27  C   UNL     1      16.174   6.678  19.352  0.00  0.00    +0.000 A 
ATOM     28  C   UNL     1      18.425   6.208  20.093  0.00  0.00    +0.000 A 
ATOM     30  C   UNL     1      17.317   5.881  19.312  0.00  0.00    +0.000 A 
ENDBRANCH  20  24
ENDBRANCH  17  20
ENDBRANCH  10  15
BRANCH  12   4
ATOM      4  O   UNL     1      11.324  12.291  25.813  0.00  0.00    -0.390 OA
ATOM     31  H   UNL     1      10.366  12.242  25.650  0.00  0.00    +0.210 HD
ENDBRANCH  12   4
BRANCH   7  14
ATOM     14  C   UNL     1      11.125  10.191  21.556  0.00  0.00    +0.120 C 
BRANCH  14  16
ATOM     16  C   UNL     1      11.660   8.973  20.852  0.00  0.00    -0.030 A 
ATOM     18  C   UNL     1      11.798   8.975  19.464  0.00  0.00    +0.051 A 
ATOM     19  C   UNL     1      12.020   7.844  21.587  0.00  0.00    +0.005 A 
ATOM     21  C   UNL     1      12.295   7.847  18.812  0.00  0.00    +0.130 A 
ATOM     22  C   UNL     1      12.517   6.716  20.935  0.00  0.00    +0.004 A 
ATOM     23  C   UNL     1      12.655   6.718  19.547  0.00  0.00    +0.046 A 
BRANCH  21   6
ATOM      6  O   UNL     1      12.430   7.849  17.457  0.00  0.00    -0.406 OA
BRANCH   6  29
ATOM      1  F   UNL     1      13.459   8.889  15.738  0.00  0.00    -0.133 F 
ATOM      2  F   UNL     1      14.333   9.087  17.731  0.00  0.00    -0.133 F 
ATOM      3  F   UNL     1      14.456   7.167  16.643  0.00  0.00    -0.133 F 
ATOM     29  C   UNL     1      13.681   8.241  16.905  0.00  0.00    +0.575 C 
ENDBRANCH   6  29
ENDBRANCH  21   6
ENDBRANCH  14  16
ENDBRANCH   7  14
TORSDOF 8
ENDMDL
MODEL 2
REMARK VINA RESULT:      -6.8      2.214      2.750
REMARK  Name = 26744120
REMARK  8 active torsions:
REMARK  status: ('A' for Active; 'I' for Inactive)
REMARK    1  A    between atoms: O_4  and  C_12
REMARK    2  A    between atoms: O_6  and  C_21
REMARK    3  A    between atoms: O_6  and  C_29
REMARK    4  A    between atoms: N_7  and  C_14
REMARK    5  A    between atoms: C_10  and  C_15
REMARK    6  A    between atoms: C_14  and  C_16
REMARK    7  A    between atoms: C_17  and  C_20
REMARK    8  A    between atoms: C_20  and  C_24
REMARK                            x       y       z     vdW  Elec       q    Type
REMARK                         _______ _______ _______ _____ _____    ______ ____
ROOT
ATOM      7  N   UNL     1      12.770  11.749  22.876  0.00  0.00    -0.285 NA
ATOM     10  C   UNL     1      14.013  12.533  23.030  0.00  0.00    +0.149 C 
ATOM     11  C   UNL     1      14.183  12.704  24.551  0.00  0.00    +0.061 C 
ATOM     12  C   UNL     1      12.964  12.024  25.164  0.00  0.00    +0.130 C 
ATOM     13  C   UNL     1      11.944  12.049  24.042  0.00  0.00    +0.116 C 
ENDROOT
BRANCH  10  15
ATOM      5  O   UNL     1      15.748  12.503  21.308  0.00  0.00    -0.336 OA
ATOM      8  N   UNL     1      15.809  10.748  22.697  0.00  0.00    -0.194 NA
ATOM      9  N   UNL     1      16.820  11.708  20.884  0.00  0.00    -0.061 NA
ATOM     15  C   UNL     1      15.207  11.866  22.379  0.00  0.00    +0.245 A 
ATOM     17  C   UNL     1      16.791  10.693  21.752  0.00  0.00    +0.176 A 
BRANCH  17  20
ATOM     20  C   UNL     1      17.755   9.589  21.689  0.00  0.00    +0.114 C 
BRANCH  20  24
ATOM     24  C   UNL     1      17.305   8.393  20.855  0.00  0.00    -0.040 A 
ATOM     25  C   UNL     1      16.055   8.407  20.235  0.00  0.00    +0.004 A 
ATOM     26  C   UNL     1      18.141   7.287  20.713  0.00  0.00    +0.004 A 
ATOM     27  C   UNL     1      15.642   7.314  19.473  0.00  0.00    +0.000 A 
ATOM     28  C   UNL     1      17.730   6.194  19.950  0.00  0.00    +0.000 A 
ATOM     30  C   UNL     1      16.480   6.208  19.331  0.00  0.00    +0.000 A 
ENDBRANCH  20  24
ENDBRANCH  17  20
ENDBRANCH  10  15
BRANCH  12   4
ATOM      4  O   UNL     1      12.512  12.733  26.300  0.00  0.00    -0.390 OA
ATOM     31  H   UNL     1      13.047  12.441  27.058  0.00  0.00    +0.210 HD
ENDBRANCH  12   4
BRANCH   7  14
ATOM     14  C   UNL     1      12.074  12.019  21.624  0.00  0.00    +0.120 C 
BRANCH  14  16
ATOM     16  C   UNL     1      12.199  10.875  20.653  0.00  0.00    -0.030 A 
ATOM     18  C   UNL     1      11.528   9.677  20.897  0.00  0.00    +0.051 A 
ATOM     19  C   UNL     1      12.984  11.014  19.509  0.00  0.00    +0.005 A 
ATOM     21  C   UNL     1      11.643   8.618  19.997  0.00  0.00    +0.130 A 
ATOM     22  C   UNL     1      13.099   9.956  18.609  0.00  0.00    +0.004 A 
ATOM     23  C   UNL     1      12.428   8.757  18.852  0.00  0.00    +0.046 A 
BRANCH  21   6
ATOM      6  O   UNL     1      10.988   7.449  20.235  0.00  0.00    -0.406 OA
BRANCH   6  29
ATOM      1  F   UNL     1      12.632   6.833  21.655  0.00  0.00    -0.133 F 
ATOM      2  F   UNL     1      10.655   7.250  22.489  0.00  0.00    -0.133 F 
ATOM      3  F   UNL     1      11.001   5.422  21.296  0.00  0.00    -0.133 F 
ATOM     29  C   UNL     1      11.302   6.732  21.424  0.00  0.00    +0.575 C 
ENDBRANCH   6  29
ENDBRANCH  21   6
ENDBRANCH  14  16
ENDBRANCH   7  14
TORSDOF 8
ENDMDL
MODEL 3
REMARK VINA RESULT:      -6.7      3.842      6.098
REMARK  Name = 26744120
REMARK  8 active torsions:
REMARK  status: ('A' for Active; 'I' for Inactive)
REMARK    1  A    between atoms: O_4  and  C_12
REMARK    2  A    between atoms: O_6  and  C_21
REMARK    3  A    between atoms: O_6  and  C_29
REMARK    4  A    between atoms: N_7  and  C_14
REMARK    5  A    between atoms: C_10  and  C_15
REMARK    6  A    between atoms: C_14  and  C_16
REMARK    7  A    between atoms: C_17  and  C_20
REMARK    8  A    between atoms: C_20  and  C_24
REMARK                            x       y       z     vdW  Elec       q    Type
REMARK                         _______ _______ _______ _____ _____    ______ ____
ROOT
ATOM      7  N   UNL     1      13.215   7.999  20.576  0.00  0.00    -0.285 NA
ATOM     10  C   UNL     1      12.277   7.749  19.463  0.00  0.00    +0.149 C 
ATOM     11  C   UNL     1      10.953   8.394  19.911  0.00  0.00    +0.061 C 
ATOM     12  C   UNL     1      11.232   8.939  21.307  0.00  0.00    +0.130 C 
ATOM     13  C   UNL     1      12.403   8.102  21.786  0.00  0.00    +0.116 C 
ENDROOT
BRANCH  10  15
ATOM      5  O   UNL     1      13.351   7.407  17.293  0.00  0.00    -0.336 OA
ATOM      8  N   UNL     1      12.745   9.526  17.689  0.00  0.00    -0.194 NA
ATOM      9  N   UNL     1      13.731   8.138  16.161  0.00  0.00    -0.061 NA
ATOM     15  C   UNL     1      12.779   8.298  18.144  0.00  0.00    +0.245 A 
ATOM     17  C   UNL     1      13.341   9.378  16.471  0.00  0.00    +0.176 A 
BRANCH  17  20
ATOM     20  C   UNL     1      13.543  10.507  15.557  0.00  0.00    +0.114 C 
BRANCH  20  24
ATOM     24  C   UNL     1      14.894  11.204  15.691  0.00  0.00    -0.040 A 
ATOM     25  C   UNL     1      15.201  11.913  16.853  0.00  0.00    +0.004 A 
ATOM     26  C   UNL     1      15.821  11.134  14.652  0.00  0.00    +0.004 A 
ATOM     27  C   UNL     1      16.435  12.550  16.976  0.00  0.00    +0.000 A 
ATOM     28  C   UNL     1      17.057  11.771  14.774  0.00  0.00    +0.000 A 
ATOM     30  C   UNL     1      17.363  12.479  15.937  0.00  0.00    +0.000 A 
ENDBRANCH  20  24
ENDBRANCH  17  20
ENDBRANCH  10  15
BRANCH  12   4
ATOM      4  O   UNL     1      10.101   8.787  22.141  0.00  0.00    -0.390 OA
ATOM     31  H   UNL     1      10.324   9.168  23.008  0.00  0.00    +0.210 HD
ENDBRANCH  12   4
BRANCH   7  14
ATOM     14  C   UNL     1      14.250   6.979  20.694  0.00  0.00    +0.120 C 
BRANCH  14  16
ATOM     16  C   UNL     1      15.616   7.584  20.873  0.00  0.00    -0.030 A 
ATOM     18  C   UNL     1      16.693   6.777  21.243  0.00  0.00    +0.051 A 
ATOM     19  C   UNL     1      15.807   8.950  20.667  0.00  0.00    +0.005 A 
ATOM     21  C   UNL     1      17.959   7.337  21.407  0.00  0.00    +0.130 A 
ATOM     22  C   UNL     1      17.074   9.510  20.831  0.00  0.00    +0.004 A 
ATOM     23  C   UNL     1      18.150   8.704  21.201  0.00  0.00    +0.046 A 
BRANCH  21   6
ATOM      6  O   UNL     1      19.010   6.550  21.768  0.00  0.00    -0.406 OA
BRANCH   6  29
ATOM      1  F   UNL     1      19.015   5.496  19.772  0.00  0.00    -0.133 F 
ATOM      2  F   UNL     1      20.607   6.938  20.177  0.00  0.00    -0.133 F 
ATOM      3  F   UNL     1      20.581   4.984  21.209  0.00  0.00    -0.133 F 
ATOM     29  C   UNL     1      19.820   5.995  20.738  0.00  0.00    +0.575 C 
ENDBRANCH   6  29
ENDBRANCH  21   6
ENDBRANCH  14  16
ENDBRANCH   7  14
TORSDOF 8
ENDMDL
MODEL 4
REMARK VINA RESULT:      -6.3      3.298      6.114
REMARK  Name = 26744120
REMARK  8 active torsions:
REMARK  status: ('A' for Active; 'I' for Inactive)
REMARK    1  A    between atoms: O_4  and  C_12
REMARK    2  A    between atoms: O_6  and  C_21
REMARK    3  A    between atoms: O_6  and  C_29
REMARK    4  A    between atoms: N_7  and  C_14
REMARK    5  A    between atoms: C_10  and  C_15
REMARK    6  A    between atoms: C_14  and  C_16
REMARK    7  A    between atoms: C_17  and  C_20
REMARK    8  A    between atoms: C_20  and  C_24
REMARK                            x       y       z     vdW  Elec       q    Type
REMARK                         _______ _______ _______ _____ _____    ______ ____
ROOT
ATOM      7  N   UNL     1      15.034  11.712  16.600  0.00  0.00    -0.285 NA
ATOM     10  C   UNL     1      14.384  10.607  15.866  0.00  0.00    +0.149 C 
ATOM     11  C   UNL     1      15.322  10.317  14.680  0.00  0.00    +0.061 C 
ATOM     12  C   UNL     1      16.445  11.340  14.806  0.00  0.00    +0.130 C 
ATOM     13  C   UNL     1      15.817  12.457  15.618  0.00  0.00    +0.116 C 
ENDROOT
BRANCH  10  15
ATOM      5  O   UNL     1      13.393   8.397  16.198  0.00  0.00    -0.336 OA
ATOM      8  N   UNL     1      14.567   9.144  17.952  0.00  0.00    -0.194 NA
ATOM      9  N   UNL     1      13.314   7.396  17.174  0.00  0.00    -0.061 NA
ATOM     15  C   UNL     1      14.148   9.390  16.736  0.00  0.00    +0.245 A 
ATOM     17  C   UNL     1      14.030   7.910  18.178  0.00  0.00    +0.176 A 
BRANCH  17  20
ATOM     20  C   UNL     1      14.224   7.192  19.442  0.00  0.00    +0.114 C 
BRANCH  20  24
ATOM     24  C   UNL     1      15.670   6.809  19.744  0.00  0.00    -0.040 A 
ATOM     25  C   UNL     1      16.413   6.096  18.803  0.00  0.00    +0.004 A 
ATOM     26  C   UNL     1      16.247   7.170  20.961  0.00  0.00    +0.004 A 
ATOM     27  C   UNL     1      17.735   5.746  19.079  0.00  0.00    +0.000 A 
ATOM     28  C   UNL     1      17.569   6.820  21.237  0.00  0.00    +0.000 A 
ATOM     30  C   UNL     1      18.312   6.107  20.296  0.00  0.00    +0.000 A 
ENDBRANCH  20  24
ENDBRANCH  17  20
ENDBRANCH  10  15
BRANCH  12   4
ATOM      4  O   UNL     1      16.862  11.788  13.531  0.00  0.00    -0.390 OA
ATOM     31  H   UNL     1      16.156  11.569  12.900  0.00  0.00    +0.210 HD
ENDBRANCH  12   4
BRANCH   7  14
ATOM     14  C   UNL     1      14.088  12.565  17.309  0.00  0.00    +0.120 C 
BRANCH  14  16
ATOM     16  C   UNL     1      14.100  12.306  18.792  0.00  0.00    -0.030 A 
ATOM     18  C   UNL     1      12.944  11.861  19.432  0.00  0.00    +0.051 A 
ATOM     19  C   UNL     1      15.269  12.510  19.525  0.00  0.00    +0.005 A 
ATOM     21  C   UNL     1      12.956  11.620  20.806  0.00  0.00    +0.130 A 
ATOM     22  C   UNL     1      15.282  12.269  20.899  0.00  0.00    +0.004 A 
ATOM     23  C   UNL     1      14.125  11.824  21.539  0.00  0.00    +0.046 A 
BRANCH  21   6
ATOM      6  O   UNL     1      11.827  11.186  21.430  0.00  0.00    -0.406 OA
BRANCH   6  29
ATOM      1  F   UNL     1      12.685   9.117  21.713  0.00  0.00    -0.133 F 
ATOM      2  F   UNL     1      10.628   9.473  22.358  0.00  0.00    -0.133 F 
ATOM      3  F   UNL     1      11.125   9.386  20.206  0.00  0.00    -0.133 F 
ATOM     29  C   UNL     1      11.548   9.790  21.422  0.00  0.00    +0.575 C 
ENDBRANCH   6  29
ENDBRANCH  21   6
ENDBRANCH  14  16
ENDBRANCH   7  14
TORSDOF 8
ENDMDL
MODEL 5
REMARK VINA RESULT:      -6.3     28.563     31.176
REMARK  Name = 26744120
REMARK  8 active torsions:
REMARK  status: ('A' for Active; 'I' for Inactive)
REMARK    1  A    between atoms: O_4  and  C_12
REMARK    2  A    between atoms: O_6  and  C_21
REMARK    3  A    between atoms: O_6  and  C_29
REMARK    4  A    between atoms: N_7  and  C_14
REMARK    5  A    between atoms: C_10  and  C_15
REMARK    6  A    between atoms: C_14  and  C_16
REMARK    7  A    between atoms: C_17  and  C_20
REMARK    8  A    between atoms: C_20  and  C_24
REMARK                            x       y       z     vdW  Elec       q    Type
REMARK                         _______ _______ _______ _____ _____    ______ ____
ROOT
ATOM      7  N   UNL     1     -17.307   3.144  27.171  0.00  0.00    -0.285 NA
ATOM     10  C   UNL     1     -16.431   2.460  26.198  0.00  0.00    +0.149 C 
ATOM     11  C   UNL     1     -17.021   1.043  26.065  0.00  0.00    +0.061 C 
ATOM     12  C   UNL     1     -18.196   1.013  27.036  0.00  0.00    +0.130 C 
ATOM     13  C   UNL     1     -17.858   2.103  28.035  0.00  0.00    +0.116 C 
ENDROOT
BRANCH  10  15
ATOM      5  O   UNL     1     -16.421   2.419  23.753  0.00  0.00    -0.336 OA
ATOM      8  N   UNL     1     -16.227   4.469  24.634  0.00  0.00    -0.194 NA
ATOM      9  N   UNL     1     -16.328   3.301  22.670  0.00  0.00    -0.061 NA
ATOM     15  C   UNL     1     -16.353   3.187  24.872  0.00  0.00    +0.245 A 
ATOM     17  C   UNL     1     -16.216   4.490  23.270  0.00  0.00    +0.176 A 
BRANCH  17  20
ATOM     20  C   UNL     1     -16.087   5.736  22.508  0.00  0.00    +0.114 C 
BRANCH  20  24
ATOM     24  C   UNL     1     -14.681   6.030  21.994  0.00  0.00    -0.040 A 
ATOM     25  C   UNL     1     -14.447   7.160  21.210  0.00  0.00    +0.004 A 
ATOM     26  C   UNL     1     -13.630   5.168  22.307  0.00  0.00    +0.004 A 
ATOM     27  C   UNL     1     -13.161   7.429  20.740  0.00  0.00    +0.000 A 
ATOM     28  C   UNL     1     -12.344   5.437  21.838  0.00  0.00    +0.000 A 
ATOM     30  C   UNL     1     -12.110   6.568  21.054  0.00  0.00    +0.000 A 
ENDBRANCH  20  24
ENDBRANCH  17  20
ENDBRANCH  10  15
BRANCH  12   4
ATOM      4  O   UNL     1     -18.302  -0.253  27.656  0.00  0.00    -0.390 OA
ATOM     31  H   UNL     1     -17.416  -0.654  27.655  0.00  0.00    +0.210 HD
ENDBRANCH  12   4
BRANCH   7  14
ATOM     14  C   UNL     1     -16.621   4.182  27.929  0.00  0.00    +0.120 C 
BRANCH  14  16
ATOM     16  C   UNL     1     -16.030   3.647  29.206  0.00  0.00    -0.030 A 
ATOM     18  C   UNL     1     -15.012   2.694  29.158  0.00  0.00    +0.051 A 
ATOM     19  C   UNL     1     -16.499   4.105  30.437  0.00  0.00    +0.005 A 
ATOM     21  C   UNL     1     -14.464   2.200  30.341  0.00  0.00    +0.130 A 
ATOM     22  C   UNL     1     -15.951   3.610  31.621  0.00  0.00    +0.004 A 
ATOM     23  C   UNL     1     -14.933   2.658  31.572  0.00  0.00    +0.046 A 
BRANCH  21   6
ATOM      6  O   UNL     1     -13.471   1.270  30.294  0.00  0.00    -0.406 OA
BRANCH   6  29
ATOM      1  F   UNL     1     -14.600  -0.490  31.143  0.00  0.00    -0.133 F 
ATOM      2  F   UNL     1     -14.555  -0.249  28.971  0.00  0.00    -0.133 F 
ATOM      3  F   UNL     1     -12.742  -0.886  30.063  0.00  0.00    -0.133 F 
ATOM     29  C   UNL     1     -13.833  -0.093  30.102  0.00  0.00    +0.575 C 
ENDBRANCH   6  29
ENDBRANCH  21   6
ENDBRANCH  14  16
ENDBRANCH   7  14
TORSDOF 8
ENDMDL
MODEL 6
REMARK VINA RESULT:      -6.2     24.866     27.240
REMARK  Name = 26744120
REMARK  8 active torsions:
REMARK  status: ('A' for Active; 'I' for Inactive)
REMARK    1  A    between atoms: O_4  and  C_12
REMARK    2  A    between atoms: O_6  and  C_21
REMARK    3  A    between atoms: O_6  and  C_29
REMARK    4  A    between atoms: N_7  and  C_14
REMARK    5  A    between atoms: C_10  and  C_15
REMARK    6  A    between atoms: C_14  and  C_16
REMARK    7  A    between atoms: C_17  and  C_20
REMARK    8  A    between atoms: C_20  and  C_24
REMARK                            x       y       z     vdW  Elec       q    Type
REMARK                         _______ _______ _______ _____ _____    ______ ____
ROOT
ATOM      7  N   UNL     1     -13.674   7.519  21.231  0.00  0.00    -0.285 NA
ATOM     10  C   UNL     1     -14.858   7.576  22.112  0.00  0.00    +0.149 C 
ATOM     11  C   UNL     1     -14.886   6.211  22.823  0.00  0.00    +0.061 C 
ATOM     12  C   UNL     1     -13.708   5.439  22.242  0.00  0.00    +0.130 C 
ATOM     13  C   UNL     1     -13.471   6.110  20.903  0.00  0.00    +0.116 C 
ENDROOT
BRANCH  10  15
ATOM      5  O   UNL     1     -15.969   9.058  23.708  0.00  0.00    -0.336 OA
ATOM      8  N   UNL     1     -13.794   9.500  23.413  0.00  0.00    -0.194 NA
ATOM      9  N   UNL     1     -15.677  10.147  24.538  0.00  0.00    -0.061 NA
ATOM     15  C   UNL     1     -14.807   8.740  23.081  0.00  0.00    +0.245 A 
ATOM     17  C   UNL     1     -14.376  10.349  24.308  0.00  0.00    +0.176 A 
BRANCH  17  20
ATOM     20  C   UNL     1     -13.625  11.417  24.976  0.00  0.00    +0.114 C 
BRANCH  20  24
ATOM     24  C   UNL     1     -12.664  10.940  26.061  0.00  0.00    -0.040 A 
ATOM     25  C   UNL     1     -11.319  10.730  25.757  0.00  0.00    +0.004 A 
ATOM     26  C   UNL     1     -13.129  10.714  27.356  0.00  0.00    +0.004 A 
ATOM     27  C   UNL     1     -10.439  10.294  26.748  0.00  0.00    +0.000 A 
ATOM     28  C   UNL     1     -12.250  10.279  28.348  0.00  0.00    +0.000 A 
ATOM     30  C   UNL     1     -10.905  10.069  28.043  0.00  0.00    +0.000 A 
ENDBRANCH  20  24
ENDBRANCH  17  20
ENDBRANCH  10  15
BRANCH  12   4
ATOM      4  O   UNL     1     -14.028   4.070  22.094  0.00  0.00    -0.390 OA
ATOM     31  H   UNL     1     -14.119   3.693  22.986  0.00  0.00    +0.210 HD
ENDBRANCH  12   4
BRANCH   7  14
ATOM     14  C   UNL     1     -13.805   8.348  20.039  0.00  0.00    +0.120 C 
BRANCH  14  16
ATOM     16  C   UNL     1     -12.465   8.708  19.456  0.00  0.00    -0.030 A 
ATOM     18  C   UNL     1     -12.031   8.099  18.278  0.00  0.00    +0.051 A 
ATOM     19  C   UNL     1     -11.658   9.652  20.091  0.00  0.00    +0.005 A 
ATOM     21  C   UNL     1     -10.790   8.434  17.737  0.00  0.00    +0.130 A 
ATOM     22  C   UNL     1     -10.418   9.987  19.549  0.00  0.00    +0.004 A 
ATOM     23  C   UNL     1      -9.984   9.378  18.372  0.00  0.00    +0.046 A 
BRANCH  21   6
ATOM      6  O   UNL     1     -10.366   7.839  16.588  0.00  0.00    -0.406 OA
BRANCH   6  29
ATOM      1  F   UNL     1     -10.108   7.784  14.346  0.00  0.00    -0.133 F 
ATOM      2  F   UNL     1     -12.096   8.224  15.141  0.00  0.00    -0.133 F 
ATOM      3  F   UNL     1     -10.477   9.720  15.291  0.00  0.00    -0.133 F 
ATOM     29  C   UNL     1     -10.774   8.405  15.347  0.00  0.00    +0.575 C 
ENDBRANCH   6  29
ENDBRANCH  21   6
ENDBRANCH  14  16
ENDBRANCH   7  14
TORSDOF 8
ENDMDL
MODEL 7
REMARK VINA RESULT:      -6.1     30.484     32.312
REMARK  Name = 26744120
REMARK  8 active torsions:
REMARK  status: ('A' for Active; 'I' for Inactive)
REMARK    1  A    between atoms: O_4  and  C_12
REMARK    2  A    between atoms: O_6  and  C_21
REMARK    3  A    between atoms: O_6  and  C_29
REMARK    4  A    between atoms: N_7  and  C_14
REMARK    5  A    between atoms: C_10  and  C_15
REMARK    6  A    between atoms: C_14  and  C_16
REMARK    7  A    between atoms: C_17  and  C_20
REMARK    8  A    between atoms: C_20  and  C_24
REMARK                            x       y       z     vdW  Elec       q    Type
REMARK                         _______ _______ _______ _____ _____    ______ ____
ROOT
ATOM      7  N   UNL     1     -16.715   3.822  26.693  0.00  0.00    -0.285 NA
ATOM     10  C   UNL     1     -16.946   2.366  26.609  0.00  0.00    +0.149 C 
ATOM     11  C   UNL     1     -16.211   1.923  25.330  0.00  0.00    +0.061 C 
ATOM     12  C   UNL     1     -15.638   3.207  24.741  0.00  0.00    +0.130 C 
ATOM     13  C   UNL     1     -16.526   4.291  25.322  0.00  0.00    +0.116 C 
ENDROOT
BRANCH  10  15
ATOM      5  O   UNL     1     -17.310   0.689  28.351  0.00  0.00    -0.336 OA
ATOM      8  N   UNL     1     -15.350   1.760  28.508  0.00  0.00    -0.194 NA
ATOM      9  N   UNL     1     -16.662   0.153  29.470  0.00  0.00    -0.061 NA
ATOM     15  C   UNL     1     -16.470   1.628  27.843  0.00  0.00    +0.245 A 
ATOM     17  C   UNL     1     -15.514   0.835  29.498  0.00  0.00    +0.176 A 
BRANCH  17  20
ATOM     20  C   UNL     1     -14.497   0.604  30.529  0.00  0.00    +0.114 C 
BRANCH  20  24
ATOM     24  C   UNL     1     -14.314   1.752  31.517  0.00  0.00    -0.040 A 
ATOM     25  C   UNL     1     -13.438   2.796  31.217  0.00  0.00    +0.004 A 
ATOM     26  C   UNL     1     -15.021   1.758  32.718  0.00  0.00    +0.004 A 
ATOM     27  C   UNL     1     -13.270   3.846  32.120  0.00  0.00    +0.000 A 
ATOM     28  C   UNL     1     -14.855   2.809  33.621  0.00  0.00    +0.000 A 
ATOM     30  C   UNL     1     -13.979   3.852  33.321  0.00  0.00    +0.000 A 
ENDBRANCH  20  24
ENDBRANCH  17  20
ENDBRANCH  10  15
BRANCH  12   4
ATOM      4  O   UNL     1     -15.698   3.181  23.328  0.00  0.00    -0.390 OA
ATOM     31  H   UNL     1     -16.635   3.120  23.077  0.00  0.00    +0.210 HD
ENDBRANCH  12   4
BRANCH   7  14
ATOM     14  C   UNL     1     -17.788   4.535  27.374  0.00  0.00    +0.120 C 
BRANCH  14  16
ATOM     16  C   UNL     1     -17.553   4.619  28.859  0.00  0.00    -0.030 A 
ATOM     18  C   UNL     1     -16.514   5.406  29.356  0.00  0.00    +0.051 A 
ATOM     19  C   UNL     1     -18.375   3.913  29.736  0.00  0.00    +0.005 A 
ATOM     21  C   UNL     1     -16.297   5.485  30.732  0.00  0.00    +0.130 A 
ATOM     22  C   UNL     1     -18.158   3.992  31.112  0.00  0.00    +0.004 A 
ATOM     23  C   UNL     1     -17.120   4.778  31.609  0.00  0.00    +0.046 A 
BRANCH  21   6
ATOM      6  O   UNL     1     -15.283   6.252  31.217  0.00  0.00    -0.406 OA
BRANCH   6  29
ATOM      1  F   UNL     1     -14.620   8.342  31.756  0.00  0.00    -0.133 F 
ATOM      2  F   UNL     1     -16.755   7.988  31.443  0.00  0.00    -0.133 F 
ATOM      3  F   UNL     1     -15.745   7.204  33.245  0.00  0.00    -0.133 F 
ATOM     29  C   UNL     1     -15.617   7.442  31.923  0.00  0.00    +0.575 C 
ENDBRANCH   6  29
ENDBRANCH  21   6
ENDBRANCH  14  16
ENDBRANCH   7  14
TORSDOF 8
ENDMDL
MODEL 8
REMARK VINA RESULT:      -6.1     27.270     28.988
REMARK  Name = 26744120
REMARK  8 active torsions:
REMARK  status: ('A' for Active; 'I' for Inactive)
REMARK    1  A    between atoms: O_4  and  C_12
REMARK    2  A    between atoms: O_6  and  C_21
REMARK    3  A    between atoms: O_6  and  C_29
REMARK    4  A    between atoms: N_7  and  C_14
REMARK    5  A    between atoms: C_10  and  C_15
REMARK    6  A    between atoms: C_14  and  C_16
REMARK    7  A    between atoms: C_17  and  C_20
REMARK    8  A    between atoms: C_20  and  C_24
REMARK                            x       y       z     vdW  Elec       q    Type
REMARK                         _______ _______ _______ _____ _____    ______ ____
ROOT
ATOM      7  N   UNL     1      -6.219 -10.657  17.309  0.00  0.00    -0.285 NA
ATOM     10  C   UNL     1      -4.747 -10.729  17.407  0.00  0.00    +0.149 C 
ATOM     11  C   UNL     1      -4.476 -11.408  18.763  0.00  0.00    +0.061 C 
ATOM     12  C   UNL     1      -5.855 -11.636  19.372  0.00  0.00    +0.130 C 
ATOM     13  C   UNL     1      -6.724 -10.604  18.679  0.00  0.00    +0.116 C 
ENDROOT
BRANCH  10  15
ATOM      5  O   UNL     1      -4.503 -12.766  16.077  0.00  0.00    -0.336 OA
ATOM      8  N   UNL     1      -3.251 -11.052  15.363  0.00  0.00    -0.194 NA
ATOM      9  N   UNL     1      -3.801 -13.235  14.960  0.00  0.00    -0.061 NA
ATOM     15  C   UNL     1      -4.121 -11.473  16.246  0.00  0.00    +0.245 A 
ATOM     17  C   UNL     1      -3.085 -12.168  14.595  0.00  0.00    +0.176 A 
BRANCH  17  20
ATOM     20  C   UNL     1      -2.177 -12.197  13.444  0.00  0.00    +0.114 C 
BRANCH  20  24
ATOM     24  C   UNL     1      -2.551 -11.246  12.310  0.00  0.00    -0.040 A 
ATOM     25  C   UNL     1      -3.747 -11.427  11.615  0.00  0.00    +0.004 A 
ATOM     26  C   UNL     1      -1.697 -10.198  11.969  0.00  0.00    +0.004 A 
ATOM     27  C   UNL     1      -4.089 -10.557  10.579  0.00  0.00    +0.000 A 
ATOM     28  C   UNL     1      -2.039  -9.328  10.934  0.00  0.00    +0.000 A 
ATOM     30  C   UNL     1      -3.235  -9.509  10.238  0.00  0.00    +0.000 A 
ENDBRANCH  20  24
ENDBRANCH  17  20
ENDBRANCH  10  15
BRANCH  12   4
ATOM      4  O   UNL     1      -5.823 -11.440  20.772  0.00  0.00    -0.390 OA
ATOM     31  H   UNL     1      -5.598 -12.292  21.182  0.00  0.00    +0.210 HD
ENDBRANCH  12   4
BRANCH   7  14
ATOM     14  C   UNL     1      -6.686  -9.533  16.507  0.00  0.00    +0.120 C 
BRANCH  14  16
ATOM     16  C   UNL     1      -8.164  -9.613  16.234  0.00  0.00    -0.030 A 
ATOM     18  C   UNL     1      -9.021  -8.639  16.746  0.00  0.00    +0.051 A 
ATOM     19  C   UNL     1      -8.676 -10.659  15.467  0.00  0.00    +0.005 A 
ATOM     21  C   UNL     1     -10.391  -8.713  16.491  0.00  0.00    +0.130 A 
ATOM     22  C   UNL     1     -10.045 -10.733  15.212  0.00  0.00    +0.004 A 
ATOM     23  C   UNL     1     -10.902  -9.759  15.724  0.00  0.00    +0.046 A 
BRANCH  21   6
ATOM      6  O   UNL     1     -11.228  -7.763  16.992  0.00  0.00    -0.406 OA
BRANCH   6  29
ATOM      1  F   UNL     1     -11.226  -5.516  16.772  0.00  0.00    -0.133 F 
ATOM      2  F   UNL     1     -10.922  -6.724  14.977  0.00  0.00    -0.133 F 
ATOM      3  F   UNL     1     -12.911  -6.630  15.935  0.00  0.00    -0.133 F 
ATOM     29  C   UNL     1     -11.579  -6.667  16.154  0.00  0.00    +0.575 C 
ENDBRANCH   6  29
ENDBRANCH  21   6
ENDBRANCH  14  16
ENDBRANCH   7  14
TORSDOF 8
ENDMDL
MODEL 9
REMARK VINA RESULT:      -6.1     26.167     28.707
REMARK  Name = 26744120
REMARK  8 active torsions:
REMARK  status: ('A' for Active; 'I' for Inactive)
REMARK    1  A    between atoms: O_4  and  C_12
REMARK    2  A    between atoms: O_6  and  C_21
REMARK    3  A    between atoms: O_6  and  C_29
REMARK    4  A    between atoms: N_7  and  C_14
REMARK    5  A    between atoms: C_10  and  C_15
REMARK    6  A    between atoms: C_14  and  C_16
REMARK    7  A    between atoms: C_17  and  C_20
REMARK    8  A    between atoms: C_20  and  C_24
REMARK                            x       y       z     vdW  Elec       q    Type
REMARK                         _______ _______ _______ _____ _____    ______ ____
ROOT
ATOM      7  N   UNL     1      -6.081 -11.955  16.974  0.00  0.00    -0.285 NA
ATOM     10  C   UNL     1      -7.435 -11.552  16.543  0.00  0.00    +0.149 C 
ATOM     11  C   UNL     1      -7.900 -10.537  17.604  0.00  0.00    +0.061 C 
ATOM     12  C   UNL     1      -6.761 -10.471  18.613  0.00  0.00    +0.130 C 
ATOM     13  C   UNL     1      -6.045 -11.795  18.426  0.00  0.00    +0.116 C 
ENDROOT
BRANCH  10  15
ATOM      5  O   UNL     1      -8.275 -11.595  14.247  0.00  0.00    -0.336 OA
ATOM      8  N   UNL     1      -6.787  -9.969  14.646  0.00  0.00    -0.194 NA
ATOM      9  N   UNL     1      -8.122 -10.902  13.040  0.00  0.00    -0.061 NA
ATOM     15  C   UNL     1      -7.454 -10.982  15.140  0.00  0.00    +0.245 A 
ATOM     17  C   UNL     1      -7.230  -9.959  13.355  0.00  0.00    +0.176 A 
BRANCH  17  20
ATOM     20  C   UNL     1      -6.756  -8.978  12.374  0.00  0.00    +0.114 C 
BRANCH  20  24
ATOM     24  C   UNL     1      -5.510  -9.398  11.598  0.00  0.00    -0.040 A 
ATOM     25  C   UNL     1      -4.908 -10.629  11.862  0.00  0.00    +0.004 A 
ATOM     26  C   UNL     1      -4.974  -8.553  10.628  0.00  0.00    +0.004 A 
ATOM     27  C   UNL     1      -3.770 -11.014  11.153  0.00  0.00    +0.000 A 
ATOM     28  C   UNL     1      -3.836  -8.938   9.919  0.00  0.00    +0.000 A 
ATOM     30  C   UNL     1      -3.234 -10.168  10.182  0.00  0.00    +0.000 A 
ENDBRANCH  20  24
ENDBRANCH  17  20
ENDBRANCH  10  15
BRANCH  12   4
ATOM      4  O   UNL     1      -7.261 -10.328  19.928  0.00  0.00    -0.390 OA
ATOM     31  H   UNL     1      -6.675 -10.829  20.520  0.00  0.00    +0.210 HD
ENDBRANCH  12   4
BRANCH   7  14
ATOM     14  C   UNL     1      -5.726 -13.306  16.560  0.00  0.00    +0.120 C 
BRANCH  14  16
ATOM     16  C   UNL     1      -4.514 -13.321  15.667  0.00  0.00    -0.030 A 
ATOM     18  C   UNL     1      -3.879 -12.124  15.335  0.00  0.00    +0.051 A 
ATOM     19  C   UNL     1      -4.026 -14.530  15.174  0.00  0.00    +0.005 A 
ATOM     21  C   UNL     1      -2.755 -12.138  14.509  0.00  0.00    +0.130 A 
ATOM     22  C   UNL     1      -2.902 -14.544  14.347  0.00  0.00    +0.004 A 
ATOM     23  C   UNL     1      -2.267 -13.347  14.016  0.00  0.00    +0.046 A 
BRANCH  21   6
ATOM      6  O   UNL     1      -2.135 -10.970  14.185  0.00  0.00    -0.406 OA
BRANCH   6  29
ATOM      1  F   UNL     1      -0.429 -11.112  15.656  0.00  0.00    -0.133 F 
ATOM      2  F   UNL     1      -0.815  -9.178  14.714  0.00  0.00    -0.133 F 
ATOM      3  F   UNL     1      -2.200  -9.972  16.242  0.00  0.00    -0.133 F 
ATOM     29  C   UNL     1      -1.404 -10.292  15.200  0.00  0.00    +0.575 C 
ENDBRANCH   6  29
ENDBRANCH  21   6
ENDBRANCH  14  16
ENDBRANCH   7  14
TORSDOF 8
ENDMDL
MODEL 10
REMARK VINA RESULT:      -6.1      2.382      3.779
REMARK  Name = 26744120
REMARK  8 active torsions:
REMARK  status: ('A' for Active; 'I' for Inactive)
REMARK    1  A    between atoms: O_4  and  C_12
REMARK    2  A    between atoms: O_6  and  C_21
REMARK    3  A    between atoms: O_6  and  C_29
REMARK    4  A    between atoms: N_7  and  C_14
REMARK    5  A    between atoms: C_10  and  C_15
REMARK    6  A    between atoms: C_14  and  C_16
REMARK    7  A    between atoms: C_17  and  C_20
REMARK    8  A    between atoms: C_20  and  C_24
REMARK                            x       y       z     vdW  Elec       q    Type
REMARK                         _______ _______ _______ _____ _____    ______ ____
ROOT
ATOM      7  N   UNL     1      11.564  10.588  22.941  0.00  0.00    -0.285 NA
ATOM     10  C   UNL     1      11.570  11.937  22.338  0.00  0.00    +0.149 C 
ATOM     11  C   UNL     1      11.582  12.903  23.537  0.00  0.00    +0.061 C 
ATOM     12  C   UNL     1      11.534  12.006  24.768  0.00  0.00    +0.130 C 
ATOM     13  C   UNL     1      10.921  10.721  24.246  0.00  0.00    +0.116 C 
ENDROOT
BRANCH  10  15
ATOM      5  O   UNL     1      13.971  12.220  21.975  0.00  0.00    -0.336 OA
ATOM      8  N   UNL     1      12.749  12.284  20.099  0.00  0.00    -0.194 NA
ATOM      9  N   UNL     1      14.877  12.420  20.926  0.00  0.00    -0.061 NA
ATOM     15  C   UNL     1      12.741  12.151  21.402  0.00  0.00    +0.245 A 
ATOM     17  C   UNL     1      14.081  12.447  19.853  0.00  0.00    +0.176 A 
BRANCH  17  20
ATOM     20  C   UNL     1      14.609  12.641  18.499  0.00  0.00    +0.114 C 
BRANCH  20  24
ATOM     24  C   UNL     1      14.414  11.454  17.560  0.00  0.00    -0.040 A 
ATOM     25  C   UNL     1      14.315  11.663  16.184  0.00  0.00    +0.004 A 
ATOM     26  C   UNL     1      14.334  10.161  18.077  0.00  0.00    +0.004 A 
ATOM     27  C   UNL     1      14.137  10.577  15.326  0.00  0.00    +0.000 A 
ATOM     28  C   UNL     1      14.157   9.076  17.219  0.00  0.00    +0.000 A 
ATOM     30  C   UNL     1      14.058   9.285  15.843  0.00  0.00    +0.000 A 
ENDBRANCH  20  24
ENDBRANCH  17  20
ENDBRANCH  10  15
BRANCH  12   4
ATOM      4  O   UNL     1      10.744  12.590  25.784  0.00  0.00    -0.390 OA
ATOM     31  H   UNL     1      11.319  12.735  26.555  0.00  0.00    +0.210 HD
ENDBRANCH  12   4
BRANCH   7  14
ATOM     14  C   UNL     1      10.910   9.589  22.104  0.00  0.00    +0.120 C 
BRANCH  14  16
ATOM     16  C   UNL     1      11.904   8.667  21.450  0.00  0.00    -0.030 A 
ATOM     18  C   UNL     1      13.194   8.552  21.967  0.00  0.00    +0.051 A 
ATOM     19  C   UNL     1      11.533   7.926  20.328  0.00  0.00    +0.005 A 
ATOM     21  C   UNL     1      14.114   7.697  21.361  0.00  0.00    +0.130 A 
ATOM     22  C   UNL     1      12.453   7.071  19.722  0.00  0.00    +0.004 A 
ATOM     23  C   UNL     1      13.743   6.956  20.239  0.00  0.00    +0.046 A 
BRANCH  21   6
ATOM      6  O   UNL     1      15.373   7.585  21.865  0.00  0.00    -0.406 OA
BRANCH   6  29
ATOM      1  F   UNL     1      15.993   9.376  20.638  0.00  0.00    -0.133 F 
ATOM      2  F   UNL     1      17.471   8.491  21.983  0.00  0.00    -0.133 F 
ATOM      3  F   UNL     1      16.866   7.435  20.138  0.00  0.00    -0.133 F 
ATOM     29  C   UNL     1      16.439   8.209  21.159  0.00  0.00    +0.575 C 
ENDBRANCH   6  29
ENDBRANCH  21   6
ENDBRANCH  14  16
ENDBRANCH   7  14
TORSDOF 8
ENDMDL
