MODEL 1
REMARK VINA RESULT:      -8.0      0.000      0.000
REMARK  Name = 26744178
REMARK  7 active torsions:
REMARK  status: ('A' for Active; 'I' for Inactive)
REMARK    1  A    between atoms: O_1  and  C_10
REMARK    2  A    between atoms: O_4  and  C_28
REMARK    3  A    between atoms: O_4  and  C_29
REMARK    4  A    between atoms: N_5  and  C_12
REMARK    5  A    between atoms: C_8  and  C_13
REMARK    6  A    between atoms: C_12  and  C_14
REMARK    7  A    between atoms: C_17  and  C_19
REMARK                            x       y       z     vdW  Elec       q    Type
REMARK                         _______ _______ _______ _____ _____    ______ ____
ROOT
ATOM      5  N   UNL     1      12.041   8.547  19.852  0.00  0.00    -0.282 NA
ATOM      8  C   UNL     1      12.878   7.415  19.405  0.00  0.00    +0.149 C 
ATOM      9  C   UNL     1      12.609   7.301  17.893  0.00  0.00    +0.061 C 
ATOM     10  C   UNL     1      11.575   8.380  17.592  0.00  0.00    +0.130 C 
ATOM     11  C   UNL     1      10.906   8.612  18.934  0.00  0.00    +0.117 C 
ENDROOT
BRANCH   8  13
ATOM      2  O   UNL     1      14.789   8.893  19.768  0.00  0.00    -0.336 OA
ATOM      6  N   UNL     1      15.266   6.714  19.972  0.00  0.00    -0.190 NA
ATOM      7  N   UNL     1      16.154   8.820  20.077  0.00  0.00    -0.056 NA
ATOM     13  C   UNL     1      14.344   7.610  19.725  0.00  0.00    +0.245 A 
ATOM     17  C   UNL     1      16.359   7.504  20.182  0.00  0.00    +0.202 A 
BRANCH  17  19
ATOM     19  C   UNL     1      17.643   6.946  20.495  0.00  0.00    +0.023 A 
ATOM     24  C   UNL     1      18.381   7.450  21.567  0.00  0.00    +0.015 A 
ATOM     25  C   UNL     1      18.154   5.900  19.727  0.00  0.00    +0.015 A 
ATOM     26  C   UNL     1      19.629   6.906  21.870  0.00  0.00    +0.046 A 
ATOM     27  C   UNL     1      19.403   5.358  20.030  0.00  0.00    +0.046 A 
ATOM     28  C   UNL     1      20.140   5.861  21.101  0.00  0.00    +0.120 A 
BRANCH  28   4
ATOM      4  O   UNL     1      21.359   5.331  21.396  0.00  0.00    -0.495 OA
ATOM     29  C   UNL     1      21.521   3.927  21.201  0.00  0.00    +0.277 C 
ENDBRANCH  28   4
ENDBRANCH  17  19
ENDBRANCH   8  13
BRANCH  10   1
ATOM      1  O   UNL     1      10.654   7.935  16.616  0.00  0.00    -0.390 OA
ATOM     30  H   UNL     1       9.764   8.014  16.997  0.00  0.00    +0.210 HD
ENDBRANCH  10   1
BRANCH   5  12
ATOM     12  C   UNL     1      11.617   8.434  21.241  0.00  0.00    +0.159 C 
BRANCH  12  14
ATOM      3  O   UNL     1      11.224   9.774  23.234  0.00  0.00    -0.458 OA
ATOM     14  C   UNL     1      11.492   9.781  21.902  0.00  0.00    +0.120 A 
ATOM     15  C   UNL     1      11.596  11.070  21.432  0.00  0.00    +0.054 A 
ATOM     16  C   UNL     1      11.375  11.921  22.547  0.00  0.00    +0.020 A 
ATOM     18  C   UNL     1      11.153  11.076  23.630  0.00  0.00    +0.135 A 
ATOM     20  C   UNL     1      11.341  13.310  22.762  0.00  0.00    +0.011 A 
ATOM     21  C   UNL     1      10.895  11.518  24.926  0.00  0.00    +0.047 A 
ATOM     22  C   UNL     1      11.083  13.784  24.054  0.00  0.00    +0.001 A 
ATOM     23  C   UNL     1      10.864  12.903  25.116  0.00  0.00    +0.004 A 
ENDBRANCH  12  14
ENDBRANCH   5  12
TORSDOF 6
ENDMDL
MODEL 2
REMARK VINA RESULT:      -7.8      2.239      8.563
REMARK  Name = 26744178
REMARK  7 active torsions:
REMARK  status: ('A' for Active; 'I' for Inactive)
REMARK    1  A    between atoms: O_1  and  C_10
REMARK    2  A    between atoms: O_4  and  C_28
REMARK    3  A    between atoms: O_4  and  C_29
REMARK    4  A    between atoms: N_5  and  C_12
REMARK    5  A    between atoms: C_8  and  C_13
REMARK    6  A    between atoms: C_12  and  C_14
REMARK    7  A    between atoms: C_17  and  C_19
REMARK                            x       y       z     vdW  Elec       q    Type
REMARK                         _______ _______ _______ _____ _____    ______ ____
ROOT
ATOM      5  N   UNL     1      12.845   7.922  20.596  0.00  0.00    -0.282 NA
ATOM      8  C   UNL     1      11.580   8.684  20.560  0.00  0.00    +0.149 C 
ATOM      9  C   UNL     1      10.549   7.766  21.244  0.00  0.00    +0.061 C 
ATOM     10  C   UNL     1      11.318   6.496  21.589  0.00  0.00    +0.130 C 
ATOM     11  C   UNL     1      12.477   6.508  20.610  0.00  0.00    +0.117 C 
ENDROOT
BRANCH   8  13
ATOM      2  O   UNL     1      12.196  11.046  20.470  0.00  0.00    -0.336 OA
ATOM      6  N   UNL     1      11.377  10.389  22.449  0.00  0.00    -0.190 NA
ATOM      7  N   UNL     1      12.205  12.181  21.292  0.00  0.00    -0.056 NA
ATOM     13  C   UNL     1      11.694  10.037  21.228  0.00  0.00    +0.245 A 
ATOM     17  C   UNL     1      11.709  11.713  22.441  0.00  0.00    +0.202 A 
BRANCH  17  19
ATOM     19  C   UNL     1      11.530  12.541  23.599  0.00  0.00    +0.023 A 
ATOM     24  C   UNL     1      10.409  13.365  23.702  0.00  0.00    +0.015 A 
ATOM     25  C   UNL     1      12.479  12.524  24.620  0.00  0.00    +0.015 A 
ATOM     26  C   UNL     1      10.237  14.171  24.827  0.00  0.00    +0.046 A 
ATOM     27  C   UNL     1      12.307  13.330  25.745  0.00  0.00    +0.046 A 
ATOM     28  C   UNL     1      11.187  14.153  25.849  0.00  0.00    +0.120 A 
BRANCH  28   4
ATOM      4  O   UNL     1      11.019  14.939  26.947  0.00  0.00    -0.495 OA
ATOM     29  C   UNL     1      12.196  15.319  27.659  0.00  0.00    +0.277 C 
ENDBRANCH  28   4
ENDBRANCH  17  19
ENDBRANCH   8  13
BRANCH  10   1
ATOM      1  O   UNL     1      10.502   5.354  21.422  0.00  0.00    -0.390 OA
ATOM     30  H   UNL     1      10.146   5.379  20.517  0.00  0.00    +0.210 HD
ENDBRANCH  10   1
BRANCH   5  12
ATOM     12  C   UNL     1      13.741   8.245  19.493  0.00  0.00    +0.159 C 
BRANCH  12  14
ATOM      3  O   UNL     1      15.877   8.314  20.654  0.00  0.00    -0.458 OA
ATOM     14  C   UNL     1      15.123   7.690  19.712  0.00  0.00    +0.120 A 
ATOM     15  C   UNL     1      15.817   6.647  19.143  0.00  0.00    +0.054 A 
ATOM     16  C   UNL     1      17.089   6.621  19.774  0.00  0.00    +0.020 A 
ATOM     18  C   UNL     1      17.075   7.665  20.695  0.00  0.00    +0.135 A 
ATOM     20  C   UNL     1      18.248   5.833  19.671  0.00  0.00    +0.011 A 
ATOM     21  C   UNL     1      18.144   7.984  21.530  0.00  0.00    +0.047 A 
ATOM     22  C   UNL     1      19.340   6.130  20.497  0.00  0.00    +0.001 A 
ATOM     23  C   UNL     1      19.287   7.187  21.409  0.00  0.00    +0.004 A 
ENDBRANCH  12  14
ENDBRANCH   5  12
TORSDOF 6
ENDMDL
MODEL 3
REMARK VINA RESULT:      -7.6      1.729      2.126
REMARK  Name = 26744178
REMARK  7 active torsions:
REMARK  status: ('A' for Active; 'I' for Inactive)
REMARK    1  A    between atoms: O_1  and  C_10
REMARK    2  A    between atoms: O_4  and  C_28
REMARK    3  A    between atoms: O_4  and  C_29
REMARK    4  A    between atoms: N_5  and  C_12
REMARK    5  A    between atoms: C_8  and  C_13
REMARK    6  A    between atoms: C_12  and  C_14
REMARK    7  A    between atoms: C_17  and  C_19
REMARK                            x       y       z     vdW  Elec       q    Type
REMARK                         _______ _______ _______ _____ _____    ______ ____
ROOT
ATOM      5  N   UNL     1      12.673   9.001  20.585  0.00  0.00    -0.282 NA
ATOM      8  C   UNL     1      13.296   8.070  21.549  0.00  0.00    +0.149 C 
ATOM      9  C   UNL     1      12.200   7.032  21.857  0.00  0.00    +0.061 C 
ATOM     10  C   UNL     1      10.987   7.488  21.055  0.00  0.00    +0.130 C 
ATOM     11  C   UNL     1      11.236   8.970  20.848  0.00  0.00    +0.117 C 
ENDROOT
BRANCH   8  13
ATOM      2  O   UNL     1      14.442   6.682  19.898  0.00  0.00    -0.336 OA
ATOM      6  N   UNL     1      15.788   7.519  21.481  0.00  0.00    -0.190 NA
ATOM      7  N   UNL     1      15.730   6.215  19.602  0.00  0.00    -0.056 NA
ATOM     13  C   UNL     1      14.565   7.442  21.017  0.00  0.00    +0.245 A 
ATOM     17  C   UNL     1      16.466   6.751  20.579  0.00  0.00    +0.202 A 
BRANCH  17  19
ATOM     19  C   UNL     1      17.881   6.539  20.685  0.00  0.00    +0.023 A 
ATOM     24  C   UNL     1      18.489   5.512  19.963  0.00  0.00    +0.015 A 
ATOM     25  C   UNL     1      18.648   7.361  21.510  0.00  0.00    +0.015 A 
ATOM     26  C   UNL     1      19.865   5.307  20.067  0.00  0.00    +0.046 A 
ATOM     27  C   UNL     1      20.024   7.155  21.614  0.00  0.00    +0.046 A 
ATOM     28  C   UNL     1      20.632   6.128  20.893  0.00  0.00    +0.120 A 
BRANCH  28   4
ATOM      4  O   UNL     1      21.974   5.928  20.995  0.00  0.00    -0.495 OA
ATOM     29  C   UNL     1      22.442   4.585  20.876  0.00  0.00    +0.277 C 
ENDBRANCH  28   4
ENDBRANCH  17  19
ENDBRANCH   8  13
BRANCH  10   1
ATOM      1  O   UNL     1       9.793   7.251  21.774  0.00  0.00    -0.390 OA
ATOM     30  H   UNL     1       9.929   7.573  22.681  0.00  0.00    +0.210 HD
ENDBRANCH  10   1
BRANCH   5  12
ATOM     12  C   UNL     1      13.216  10.351  20.657  0.00  0.00    +0.159 C 
BRANCH  12  14
ATOM      3  O   UNL     1      12.553  10.915  22.929  0.00  0.00    -0.458 OA
ATOM     14  C   UNL     1      12.437  11.218  21.609  0.00  0.00    +0.120 A 
ATOM     15  C   UNL     1      11.599  12.294  21.428  0.00  0.00    +0.054 A 
ATOM     16  C   UNL     1      11.164  12.686  22.722  0.00  0.00    +0.020 A 
ATOM     18  C   UNL     1      11.779  11.808  23.609  0.00  0.00    +0.135 A 
ATOM     20  C   UNL     1      10.322  13.684  23.241  0.00  0.00    +0.011 A 
ATOM     21  C   UNL     1      11.614  11.852  24.992  0.00  0.00    +0.047 A 
ATOM     22  C   UNL     1      10.136  13.753  24.628  0.00  0.00    +0.001 A 
ATOM     23  C   UNL     1      10.771  12.852  25.486  0.00  0.00    +0.004 A 
ENDBRANCH  12  14
ENDBRANCH   5  12
TORSDOF 6
ENDMDL
MODEL 4
REMARK VINA RESULT:      -7.1      2.895      4.813
REMARK  Name = 26744178
REMARK  7 active torsions:
REMARK  status: ('A' for Active; 'I' for Inactive)
REMARK    1  A    between atoms: O_1  and  C_10
REMARK    2  A    between atoms: O_4  and  C_28
REMARK    3  A    between atoms: O_4  and  C_29
REMARK    4  A    between atoms: N_5  and  C_12
REMARK    5  A    between atoms: C_8  and  C_13
REMARK    6  A    between atoms: C_12  and  C_14
REMARK    7  A    between atoms: C_17  and  C_19
REMARK                            x       y       z     vdW  Elec       q    Type
REMARK                         _______ _______ _______ _____ _____    ______ ____
ROOT
ATOM      5  N   UNL     1      12.766   9.036  20.193  0.00  0.00    -0.282 NA
ATOM      8  C   UNL     1      13.355   8.701  21.506  0.00  0.00    +0.149 C 
ATOM      9  C   UNL     1      12.662   7.391  21.925  0.00  0.00    +0.061 C 
ATOM     10  C   UNL     1      11.670   7.094  20.807  0.00  0.00    +0.130 C 
ATOM     11  C   UNL     1      11.426   8.453  20.180  0.00  0.00    +0.117 C 
ENDROOT
BRANCH   8  13
ATOM      2  O   UNL     1      15.574   9.706  21.701  0.00  0.00    -0.336 OA
ATOM      6  N   UNL     1      15.600   7.523  21.200  0.00  0.00    -0.190 NA
ATOM      7  N   UNL     1      16.924   9.346  21.597  0.00  0.00    -0.056 NA
ATOM     13  C   UNL     1      14.863   8.575  21.454  0.00  0.00    +0.245 A 
ATOM     17  C   UNL     1      16.857   8.045  21.300  0.00  0.00    +0.202 A 
BRANCH  17  19
ATOM     19  C   UNL     1      18.026   7.239  21.097  0.00  0.00    +0.023 A 
ATOM     24  C   UNL     1      19.186   7.495  21.827  0.00  0.00    +0.015 A 
ATOM     25  C   UNL     1      18.001   6.200  20.167  0.00  0.00    +0.015 A 
ATOM     26  C   UNL     1      20.322   6.710  21.629  0.00  0.00    +0.046 A 
ATOM     27  C   UNL     1      19.138   5.416  19.968  0.00  0.00    +0.046 A 
ATOM     28  C   UNL     1      20.298   5.671  20.698  0.00  0.00    +0.120 A 
BRANCH  28   4
ATOM      4  O   UNL     1      21.407   4.906  20.503  0.00  0.00    -0.495 OA
ATOM     29  C   UNL     1      21.437   3.632  21.146  0.00  0.00    +0.277 C 
ENDBRANCH  28   4
ENDBRANCH  17  19
ENDBRANCH   8  13
BRANCH  10   1
ATOM      1  O   UNL     1      10.480   6.535  21.328  0.00  0.00    -0.390 OA
ATOM     30  H   UNL     1      10.282   5.736  20.810  0.00  0.00    +0.210 HD
ENDBRANCH  10   1
BRANCH   5  12
ATOM     12  C   UNL     1      12.744  10.468  19.923  0.00  0.00    +0.159 C 
BRANCH  12  14
ATOM      3  O   UNL     1      13.490  10.116  17.634  0.00  0.00    -0.458 OA
ATOM     14  C   UNL     1      13.647  10.836  18.776  0.00  0.00    +0.120 A 
ATOM     15  C   UNL     1      14.637  11.780  18.626  0.00  0.00    +0.054 A 
ATOM     16  C   UNL     1      15.129  11.637  17.301  0.00  0.00    +0.020 A 
ATOM     18  C   UNL     1      14.391  10.602  16.734  0.00  0.00    +0.135 A 
ATOM     20  C   UNL     1      16.113  12.266  16.520  0.00  0.00    +0.011 A 
ATOM     21  C   UNL     1      14.564  10.143  15.429  0.00  0.00    +0.047 A 
ATOM     22  C   UNL     1      16.311  11.826  15.204  0.00  0.00    +0.001 A 
ATOM     23  C   UNL     1      15.549  10.783  14.671  0.00  0.00    +0.004 A 
ENDBRANCH  12  14
ENDBRANCH   5  12
TORSDOF 6
ENDMDL
MODEL 5
REMARK VINA RESULT:      -7.0     27.623     31.001
REMARK  Name = 26744178
REMARK  7 active torsions:
REMARK  status: ('A' for Active; 'I' for Inactive)
REMARK    1  A    between atoms: O_1  and  C_10
REMARK    2  A    between atoms: O_4  and  C_28
REMARK    3  A    between atoms: O_4  and  C_29
REMARK    4  A    between atoms: N_5  and  C_12
REMARK    5  A    between atoms: C_8  and  C_13
REMARK    6  A    between atoms: C_12  and  C_14
REMARK    7  A    between atoms: C_17  and  C_19
REMARK                            x       y       z     vdW  Elec       q    Type
REMARK                         _______ _______ _______ _____ _____    ______ ____
ROOT
ATOM      5  N   UNL     1      -5.967 -11.629  18.245  0.00  0.00    -0.282 NA
ATOM      8  C   UNL     1      -5.913 -10.225  17.787  0.00  0.00    +0.149 C 
ATOM      9  C   UNL     1      -4.619 -10.132  16.958  0.00  0.00    +0.061 C 
ATOM     10  C   UNL     1      -3.993 -11.519  17.045  0.00  0.00    +0.130 C 
ATOM     11  C   UNL     1      -4.584 -12.094  18.318  0.00  0.00    +0.117 C 
ENDROOT
BRANCH   8  13
ATOM      2  O   UNL     1      -7.256 -10.329  15.748  0.00  0.00    -0.336 OA
ATOM      6  N   UNL     1      -8.130  -9.036  17.354  0.00  0.00    -0.190 NA
ATOM      7  N   UNL     1      -8.453  -9.819  15.229  0.00  0.00    -0.056 NA
ATOM     13  C   UNL     1      -7.142  -9.819  17.002  0.00  0.00    +0.245 A 
ATOM     17  C   UNL     1      -8.909  -9.067  16.234  0.00  0.00    +0.202 A 
BRANCH  17  19
ATOM     19  C   UNL     1     -10.140  -8.334  16.152  0.00  0.00    +0.023 A 
ATOM     24  C   UNL     1     -10.127  -6.984  15.800  0.00  0.00    +0.015 A 
ATOM     25  C   UNL     1     -11.349  -8.972  16.428  0.00  0.00    +0.015 A 
ATOM     26  C   UNL     1     -11.325  -6.273  15.722  0.00  0.00    +0.046 A 
ATOM     27  C   UNL     1     -12.546  -8.259  16.351  0.00  0.00    +0.046 A 
ATOM     28  C   UNL     1     -12.534  -6.911  15.998  0.00  0.00    +0.120 A 
BRANCH  28   4
ATOM      4  O   UNL     1     -13.702  -6.217  15.922  0.00  0.00    -0.495 OA
ATOM     29  C   UNL     1     -14.911  -6.967  16.027  0.00  0.00    +0.277 C 
ENDBRANCH  28   4
ENDBRANCH  17  19
ENDBRANCH   8  13
BRANCH  10   1
ATOM      1  O   UNL     1      -2.583 -11.430  17.114  0.00  0.00    -0.390 OA
ATOM     30  H   UNL     1      -2.345 -10.491  17.031  0.00  0.00    +0.210 HD
ENDBRANCH  10   1
BRANCH   5  12
ATOM     12  C   UNL     1      -6.669 -11.792  19.512  0.00  0.00    +0.159 C 
BRANCH  12  14
ATOM      3  O   UNL     1      -8.825 -10.792  20.031  0.00  0.00    -0.458 OA
ATOM     14  C   UNL     1      -8.163 -11.752  19.334  0.00  0.00    +0.120 A 
ATOM     15  C   UNL     1      -9.041 -12.506  18.589  0.00  0.00    +0.054 A 
ATOM     16  C   UNL     1     -10.335 -11.979  18.842  0.00  0.00    +0.020 A 
ATOM     18  C   UNL     1     -10.148 -10.927  19.733  0.00  0.00    +0.135 A 
ATOM     20  C   UNL     1     -11.642 -12.273  18.416  0.00  0.00    +0.011 A 
ATOM     21  C   UNL     1     -11.179 -10.137  20.238  0.00  0.00    +0.047 A 
ATOM     22  C   UNL     1     -12.700 -11.497  18.906  0.00  0.00    +0.001 A 
ATOM     23  C   UNL     1     -12.471 -10.449  19.801  0.00  0.00    +0.004 A 
ENDBRANCH  12  14
ENDBRANCH   5  12
TORSDOF 6
ENDMDL
MODEL 6
REMARK VINA RESULT:      -6.9      2.389      5.387
REMARK  Name = 26744178
REMARK  7 active torsions:
REMARK  status: ('A' for Active; 'I' for Inactive)
REMARK    1  A    between atoms: O_1  and  C_10
REMARK    2  A    between atoms: O_4  and  C_28
REMARK    3  A    between atoms: O_4  and  C_29
REMARK    4  A    between atoms: N_5  and  C_12
REMARK    5  A    between atoms: C_8  and  C_13
REMARK    6  A    between atoms: C_12  and  C_14
REMARK    7  A    between atoms: C_17  and  C_19
REMARK                            x       y       z     vdW  Elec       q    Type
REMARK                         _______ _______ _______ _____ _____    ______ ____
ROOT
ATOM      5  N   UNL     1      12.243  11.539  22.649  0.00  0.00    -0.282 NA
ATOM      8  C   UNL     1      13.493  12.148  23.149  0.00  0.00    +0.149 C 
ATOM      9  C   UNL     1      13.330  12.178  24.681  0.00  0.00    +0.061 C 
ATOM     10  C   UNL     1      11.941  11.607  24.942  0.00  0.00    +0.130 C 
ATOM     11  C   UNL     1      11.209  11.846  23.635  0.00  0.00    +0.117 C 
ENDROOT
BRANCH   8  13
ATOM      2  O   UNL     1      15.918  12.023  22.881  0.00  0.00    -0.336 OA
ATOM      6  N   UNL     1      14.825  10.203  22.168  0.00  0.00    -0.190 NA
ATOM      7  N   UNL     1      16.898  11.143  22.403  0.00  0.00    -0.056 NA
ATOM     13  C   UNL     1      14.728  11.393  22.706  0.00  0.00    +0.245 A 
ATOM     17  C   UNL     1      16.175  10.094  22.001  0.00  0.00    +0.202 A 
BRANCH  17  19
ATOM     19  C   UNL     1      16.770   8.921  21.428  0.00  0.00    +0.023 A 
ATOM     24  C   UNL     1      16.019   8.093  20.593  0.00  0.00    +0.015 A 
ATOM     25  C   UNL     1      18.100   8.607  21.708  0.00  0.00    +0.015 A 
ATOM     26  C   UNL     1      16.599   6.953  20.037  0.00  0.00    +0.046 A 
ATOM     27  C   UNL     1      18.678   7.465  21.153  0.00  0.00    +0.046 A 
ATOM     28  C   UNL     1      17.928   6.639  20.318  0.00  0.00    +0.120 A 
BRANCH  28   4
ATOM      4  O   UNL     1      18.494   5.525  19.777  0.00  0.00    -0.495 OA
ATOM     29  C   UNL     1      19.788   5.158  20.252  0.00  0.00    +0.277 C 
ENDBRANCH  28   4
ENDBRANCH  17  19
ENDBRANCH   8  13
BRANCH  10   1
ATOM      1  O   UNL     1      11.320  12.275  26.022  0.00  0.00    -0.390 OA
ATOM     30  H   UNL     1      10.730  12.951  25.647  0.00  0.00    +0.210 HD
ENDBRANCH  10   1
BRANCH   5  12
ATOM     12  C   UNL     1      11.879  11.991  21.313  0.00  0.00    +0.159 C 
BRANCH  12  14
ATOM      3  O   UNL     1      12.052   9.786  20.298  0.00  0.00    -0.458 OA
ATOM     14  C   UNL     1      12.437  11.089  20.245  0.00  0.00    +0.120 A 
ATOM     15  C   UNL     1      13.285  11.303  19.182  0.00  0.00    +0.054 A 
ATOM     16  C   UNL     1      13.438  10.050  18.532  0.00  0.00    +0.020 A 
ATOM     18  C   UNL     1      12.660   9.151  19.256  0.00  0.00    +0.135 A 
ATOM     20  C   UNL     1      14.146   9.576  17.415  0.00  0.00    +0.011 A 
ATOM     21  C   UNL     1      12.534   7.799  18.944  0.00  0.00    +0.047 A 
ATOM     22  C   UNL     1      14.040   8.220  17.076  0.00  0.00    +0.001 A 
ATOM     23  C   UNL     1      13.247   7.350  17.829  0.00  0.00    +0.004 A 
ENDBRANCH  12  14
ENDBRANCH   5  12
TORSDOF 6
ENDMDL
MODEL 7
REMARK VINA RESULT:      -6.9     25.630     29.360
REMARK  Name = 26744178
REMARK  7 active torsions:
REMARK  status: ('A' for Active; 'I' for Inactive)
REMARK    1  A    between atoms: O_1  and  C_10
REMARK    2  A    between atoms: O_4  and  C_28
REMARK    3  A    between atoms: O_4  and  C_29
REMARK    4  A    between atoms: N_5  and  C_12
REMARK    5  A    between atoms: C_8  and  C_13
REMARK    6  A    between atoms: C_12  and  C_14
REMARK    7  A    between atoms: C_17  and  C_19
REMARK                            x       y       z     vdW  Elec       q    Type
REMARK                         _______ _______ _______ _____ _____    ______ ____
ROOT
ATOM      5  N   UNL     1      -3.214 -10.706  14.213  0.00  0.00    -0.282 NA
ATOM      8  C   UNL     1      -3.520 -11.296  15.533  0.00  0.00    +0.149 C 
ATOM      9  C   UNL     1      -2.363 -10.843  16.444  0.00  0.00    +0.061 C 
ATOM     10  C   UNL     1      -1.436 -10.042  15.536  0.00  0.00    +0.130 C 
ATOM     11  C   UNL     1      -1.761 -10.564  14.149  0.00  0.00    +0.117 C 
ENDROOT
BRANCH   8  13
ATOM      2  O   UNL     1      -5.199 -11.303  17.307  0.00  0.00    -0.336 OA
ATOM      6  N   UNL     1      -5.805 -10.158  15.480  0.00  0.00    -0.190 NA
ATOM      7  N   UNL     1      -6.481 -10.801  17.569  0.00  0.00    -0.056 NA
ATOM     13  C   UNL     1      -4.876 -10.878  16.058  0.00  0.00    +0.245 A 
ATOM     17  C   UNL     1      -6.769 -10.137  16.446  0.00  0.00    +0.202 A 
BRANCH  17  19
ATOM     19  C   UNL     1      -8.010  -9.443  16.256  0.00  0.00    +0.023 A 
ATOM     24  C   UNL     1      -8.577  -8.725  17.310  0.00  0.00    +0.015 A 
ATOM     25  C   UNL     1      -8.650  -9.489  15.018  0.00  0.00    +0.015 A 
ATOM     26  C   UNL     1      -9.784  -8.052  17.124  0.00  0.00    +0.046 A 
ATOM     27  C   UNL     1      -9.858  -8.816  14.834  0.00  0.00    +0.046 A 
ATOM     28  C   UNL     1     -10.425  -8.098  15.886  0.00  0.00    +0.120 A 
BRANCH  28   4
ATOM      4  O   UNL     1     -11.603  -7.441  15.705  0.00  0.00    -0.495 OA
ATOM     29  C   UNL     1     -11.575  -6.018  15.803  0.00  0.00    +0.277 C 
ENDBRANCH  28   4
ENDBRANCH  17  19
ENDBRANCH   8  13
BRANCH  10   1
ATOM      1  O   UNL     1      -0.082 -10.267  15.878  0.00  0.00    -0.390 OA
ATOM     30  H   UNL     1       0.160 -11.149  15.549  0.00  0.00    +0.210 HD
ENDBRANCH  10   1
BRANCH   5  12
ATOM     12  C   UNL     1      -3.739 -11.486  13.101  0.00  0.00    +0.159 C 
BRANCH  12  14
ATOM      3  O   UNL     1      -5.819 -10.662  12.146  0.00  0.00    -0.458 OA
ATOM     14  C   UNL     1      -4.462 -10.623  12.102  0.00  0.00    +0.120 A 
ATOM     15  C   UNL     1      -4.030  -9.768  11.114  0.00  0.00    +0.054 A 
ATOM     16  C   UNL     1      -5.199  -9.240  10.502  0.00  0.00    +0.020 A 
ATOM     18  C   UNL     1      -6.271  -9.821  11.173  0.00  0.00    +0.135 A 
ATOM     20  C   UNL     1      -5.469  -8.338   9.459  0.00  0.00    +0.011 A 
ATOM     21  C   UNL     1      -7.608  -9.565  10.877  0.00  0.00    +0.047 A 
ATOM     22  C   UNL     1      -6.804  -8.062   9.138  0.00  0.00    +0.001 A 
ATOM     23  C   UNL     1      -7.853  -8.665   9.835  0.00  0.00    +0.004 A 
ENDBRANCH  12  14
ENDBRANCH   5  12
TORSDOF 6
ENDMDL
MODEL 8
REMARK VINA RESULT:      -6.9     27.401     29.378
REMARK  Name = 26744178
REMARK  7 active torsions:
REMARK  status: ('A' for Active; 'I' for Inactive)
REMARK    1  A    between atoms: O_1  and  C_10
REMARK    2  A    between atoms: O_4  and  C_28
REMARK    3  A    between atoms: O_4  and  C_29
REMARK    4  A    between atoms: N_5  and  C_12
REMARK    5  A    between atoms: C_8  and  C_13
REMARK    6  A    between atoms: C_12  and  C_14
REMARK    7  A    between atoms: C_17  and  C_19
REMARK                            x       y       z     vdW  Elec       q    Type
REMARK                         _______ _______ _______ _____ _____    ______ ____
ROOT
ATOM      5  N   UNL     1      -6.290  -9.410   8.597  0.00  0.00    -0.282 NA
ATOM      8  C   UNL     1      -6.828  -8.662   9.752  0.00  0.00    +0.149 C 
ATOM      9  C   UNL     1      -8.283  -8.335   9.365  0.00  0.00    +0.061 C 
ATOM     10  C   UNL     1      -8.454  -8.900   7.960  0.00  0.00    +0.130 C 
ATOM     11  C   UNL     1      -7.036  -8.956   7.425  0.00  0.00    +0.117 C 
ENDROOT
BRANCH   8  13
ATOM      2  O   UNL     1      -7.241 -10.695  11.043  0.00  0.00    -0.336 OA
ATOM      6  N   UNL     1      -6.211  -9.074  12.194  0.00  0.00    -0.190 NA
ATOM      7  N   UNL     1      -7.035 -11.203  12.332  0.00  0.00    -0.056 NA
ATOM     13  C   UNL     1      -6.727  -9.438  11.047  0.00  0.00    +0.245 A 
ATOM     17  C   UNL     1      -6.422 -10.190  12.951  0.00  0.00    +0.202 A 
BRANCH  17  19
ATOM     19  C   UNL     1      -6.009 -10.260  14.323  0.00  0.00    +0.023 A 
ATOM     24  C   UNL     1      -6.925 -10.000  15.342  0.00  0.00    +0.015 A 
ATOM     25  C   UNL     1      -4.690 -10.585  14.636  0.00  0.00    +0.015 A 
ATOM     26  C   UNL     1      -6.522 -10.068  16.676  0.00  0.00    +0.046 A 
ATOM     27  C   UNL     1      -4.286 -10.651  15.970  0.00  0.00    +0.046 A 
ATOM     28  C   UNL     1      -5.202 -10.392  16.989  0.00  0.00    +0.120 A 
BRANCH  28   4
ATOM      4  O   UNL     1      -4.808 -10.457  18.290  0.00  0.00    -0.495 OA
ATOM     29  C   UNL     1      -4.360 -11.724  18.770  0.00  0.00    +0.277 C 
ENDBRANCH  28   4
ENDBRANCH  17  19
ENDBRANCH   8  13
BRANCH  10   1
ATOM      1  O   UNL     1      -9.278  -8.057   7.177  0.00  0.00    -0.390 OA
ATOM     30  H   UNL     1      -9.059  -7.138   7.409  0.00  0.00    +0.210 HD
ENDBRANCH  10   1
BRANCH   5  12
ATOM     12  C   UNL     1      -4.852  -9.249   8.428  0.00  0.00    +0.159 C 
BRANCH  12  14
ATOM      3  O   UNL     1      -4.328 -11.236   9.731  0.00  0.00    -0.458 OA
ATOM     14  C   UNL     1      -4.079  -9.914   9.535  0.00  0.00    +0.120 A 
ATOM     15  C   UNL     1      -3.137  -9.458  10.428  0.00  0.00    +0.054 A 
ATOM     16  C   UNL     1      -2.777 -10.571  11.234  0.00  0.00    +0.020 A 
ATOM     18  C   UNL     1      -3.537 -11.639  10.765  0.00  0.00    +0.135 A 
ATOM     20  C   UNL     1      -1.895 -10.795  12.306  0.00  0.00    +0.011 A 
ATOM     21  C   UNL     1      -3.481 -12.928  11.291  0.00  0.00    +0.047 A 
ATOM     22  C   UNL     1      -1.818 -12.081  12.856  0.00  0.00    +0.001 A 
ATOM     23  C   UNL     1      -2.598 -13.127  12.356  0.00  0.00    +0.004 A 
ENDBRANCH  12  14
ENDBRANCH   5  12
TORSDOF 6
ENDMDL
MODEL 9
REMARK VINA RESULT:      -6.8     32.610     34.840
REMARK  Name = 26744178
REMARK  7 active torsions:
REMARK  status: ('A' for Active; 'I' for Inactive)
REMARK    1  A    between atoms: O_1  and  C_10
REMARK    2  A    between atoms: O_4  and  C_28
REMARK    3  A    between atoms: O_4  and  C_29
REMARK    4  A    between atoms: N_5  and  C_12
REMARK    5  A    between atoms: C_8  and  C_13
REMARK    6  A    between atoms: C_12  and  C_14
REMARK    7  A    between atoms: C_17  and  C_19
REMARK                            x       y       z     vdW  Elec       q    Type
REMARK                         _______ _______ _______ _____ _____    ______ ____
ROOT
ATOM      5  N   UNL     1      -1.156 -13.853   2.237  0.00  0.00    -0.282 NA
ATOM      8  C   UNL     1      -2.198 -14.456   1.381  0.00  0.00    +0.149 C 
ATOM      9  C   UNL     1      -3.464 -13.626   1.659  0.00  0.00    +0.061 C 
ATOM     10  C   UNL     1      -3.047 -12.610   2.716  0.00  0.00    +0.130 C 
ATOM     11  C   UNL     1      -1.850 -13.262   3.380  0.00  0.00    +0.117 C 
ENDROOT
BRANCH   8  13
ATOM      2  O   UNL     1      -2.137 -15.586  -0.784  0.00  0.00    -0.336 OA
ATOM      6  N   UNL     1      -1.207 -13.548  -0.790  0.00  0.00    -0.190 NA
ATOM      7  N   UNL     1      -1.689 -15.366  -2.093  0.00  0.00    -0.056 NA
ATOM     13  C   UNL     1      -1.815 -14.468  -0.083  0.00  0.00    +0.245 A 
ATOM     17  C   UNL     1      -1.153 -14.144  -2.016  0.00  0.00    +0.202 A 
BRANCH  17  19
ATOM     19  C   UNL     1      -0.555 -13.491  -3.145  0.00  0.00    +0.023 A 
ATOM     24  C   UNL     1      -1.324 -13.207  -4.275  0.00  0.00    +0.015 A 
ATOM     25  C   UNL     1       0.794 -13.141  -3.114  0.00  0.00    +0.015 A 
ATOM     26  C   UNL     1      -0.742 -12.572  -5.372  0.00  0.00    +0.046 A 
ATOM     27  C   UNL     1       1.376 -12.508  -4.212  0.00  0.00    +0.046 A 
ATOM     28  C   UNL     1       0.608 -12.224  -5.341  0.00  0.00    +0.120 A 
BRANCH  28   4
ATOM      4  O   UNL     1       1.176 -11.605  -6.411  0.00  0.00    -0.495 OA
ATOM     29  C   UNL     1       2.586 -11.756  -6.576  0.00  0.00    +0.277 C 
ENDBRANCH  28   4
ENDBRANCH  17  19
ENDBRANCH   8  13
BRANCH  10   1
ATOM      1  O   UNL     1      -4.098 -12.382   3.635  0.00  0.00    -0.390 OA
ATOM     30  H   UNL     1      -4.869 -12.079   3.127  0.00  0.00    +0.210 HD
ENDBRANCH  10   1
BRANCH   5  12
ATOM     12  C   UNL     1      -0.130 -14.802   2.649  0.00  0.00    +0.159 C 
BRANCH  12  14
ATOM      3  O   UNL     1       2.130 -15.527   2.114  0.00  0.00    -0.458 OA
ATOM     14  C   UNL     1       1.143 -14.627   1.865  0.00  0.00    +0.120 A 
ATOM     15  C   UNL     1       1.541 -13.719   0.911  0.00  0.00    +0.054 A 
ATOM     16  C   UNL     1       2.866 -14.077   0.544  0.00  0.00    +0.020 A 
ATOM     18  C   UNL     1       3.180 -15.195   1.312  0.00  0.00    +0.135 A 
ATOM     20  C   UNL     1       3.831 -13.583  -0.349  0.00  0.00    +0.011 A 
ATOM     21  C   UNL     1       4.401 -15.864   1.252  0.00  0.00    +0.047 A 
ATOM     22  C   UNL     1       5.069 -14.234  -0.431  0.00  0.00    +0.001 A 
ATOM     23  C   UNL     1       5.347 -15.354   0.357  0.00  0.00    +0.004 A 
ENDBRANCH  12  14
ENDBRANCH   5  12
TORSDOF 6
ENDMDL
MODEL 10
REMARK VINA RESULT:      -6.8     14.429     17.573
REMARK  Name = 26744178
REMARK  7 active torsions:
REMARK  status: ('A' for Active; 'I' for Inactive)
REMARK    1  A    between atoms: O_1  and  C_10
REMARK    2  A    between atoms: O_4  and  C_28
REMARK    3  A    between atoms: O_4  and  C_29
REMARK    4  A    between atoms: N_5  and  C_12
REMARK    5  A    between atoms: C_8  and  C_13
REMARK    6  A    between atoms: C_12  and  C_14
REMARK    7  A    between atoms: C_17  and  C_19
REMARK                            x       y       z     vdW  Elec       q    Type
REMARK                         _______ _______ _______ _____ _____    ______ ____
ROOT
ATOM      5  N   UNL     1      10.524   5.440   5.899  0.00  0.00    -0.282 NA
ATOM      8  C   UNL     1      10.601   6.670   6.714  0.00  0.00    +0.149 C 
ATOM      9  C   UNL     1      10.382   6.195   8.163  0.00  0.00    +0.061 C 
ATOM     10  C   UNL     1      10.146   4.693   8.055  0.00  0.00    +0.130 C 
ATOM     11  C   UNL     1       9.662   4.512   6.629  0.00  0.00    +0.117 C 
ENDROOT
BRANCH   8  13
ATOM      2  O   UNL     1      12.026   8.600   7.174  0.00  0.00    -0.336 OA
ATOM      6  N   UNL     1      12.964   7.071   5.833  0.00  0.00    -0.190 NA
ATOM      7  N   UNL     1      13.301   9.088   6.859  0.00  0.00    -0.056 NA
ATOM     13  C   UNL     1      11.909   7.409   6.531  0.00  0.00    +0.245 A 
ATOM     17  C   UNL     1      13.791   8.131   6.065  0.00  0.00    +0.202 A 
BRANCH  17  19
ATOM     19  C   UNL     1      15.103   8.203   5.489  0.00  0.00    +0.023 A 
ATOM     24  C   UNL     1      15.323   7.735   4.193  0.00  0.00    +0.015 A 
ATOM     25  C   UNL     1      16.158   8.740   6.226  0.00  0.00    +0.015 A 
ATOM     26  C   UNL     1      16.599   7.805   3.634  0.00  0.00    +0.046 A 
ATOM     27  C   UNL     1      17.434   8.808   5.666  0.00  0.00    +0.046 A 
ATOM     28  C   UNL     1      17.654   8.341   4.372  0.00  0.00    +0.120 A 
BRANCH  28   4
ATOM      4  O   UNL     1      18.900   8.408   3.827  0.00  0.00    -0.495 OA
ATOM     29  C   UNL     1      19.881   7.505   4.334  0.00  0.00    +0.277 C 
ENDBRANCH  28   4
ENDBRANCH  17  19
ENDBRANCH   8  13
BRANCH  10   1
ATOM      1  O   UNL     1       9.178   4.269   8.995  0.00  0.00    -0.390 OA
ATOM     30  H   UNL     1       9.004   5.016   9.593  0.00  0.00    +0.210 HD
ENDBRANCH  10   1
BRANCH   5  12
ATOM     12  C   UNL     1      10.048   5.679   4.542  0.00  0.00    +0.159 C 
BRANCH  12  14
ATOM      3  O   UNL     1      11.909   6.023   3.014  0.00  0.00    -0.458 OA
ATOM     14  C   UNL     1      11.002   5.141   3.510  0.00  0.00    +0.120 A 
ATOM     15  C   UNL     1      11.164   3.901   2.937  0.00  0.00    +0.054 A 
ATOM     16  C   UNL     1      12.243   4.020   2.021  0.00  0.00    +0.020 A 
ATOM     18  C   UNL     1      12.666   5.343   2.107  0.00  0.00    +0.135 A 
ATOM     20  C   UNL     1      12.909   3.159   1.132  0.00  0.00    +0.011 A 
ATOM     21  C   UNL     1      13.716   5.877   1.363  0.00  0.00    +0.047 A 
ATOM     22  C   UNL     1      13.968   3.667   0.370  0.00  0.00    +0.001 A 
ATOM     23  C   UNL     1      14.363   5.002   0.484  0.00  0.00    +0.004 A 
ENDBRANCH  12  14
ENDBRANCH   5  12
TORSDOF 6
ENDMDL
