MODEL 1
REMARK VINA RESULT:      -7.3      0.000      0.000
REMARK  Name = 75537017
REMARK  3 active torsions:
REMARK  status: ('A' for Active; 'I' for Inactive)
REMARK    1  A    between atoms: S_1  and  N_7
REMARK    2  A    between atoms: S_1  and  C_20
REMARK    3  A    between atoms: N_5  and  C_9
REMARK                            x       y       z     vdW  Elec       q    Type
REMARK                         _______ _______ _______ _____ _____    ______ ____
ROOT
ATOM      2  O   UNL     1      18.501   8.907  22.020  0.00  0.00    -0.252 OA
ATOM      5  N   UNL     1      18.402   6.980  20.664  0.00  0.00    -0.281 N 
ATOM      6  N   UNL     1      16.695   8.440  20.591  0.00  0.00    -0.278 N 
ATOM      7  N   UNL     1      14.033   8.183  19.775  0.00  0.00    -0.173 NA
ATOM      8  C   UNL     1      16.376   7.456  19.574  0.00  0.00    +0.111 C 
ATOM     10  C   UNL     1      17.427   6.368  19.778  0.00  0.00    +0.133 C 
ATOM     11  C   UNL     1      14.934   6.983  19.725  0.00  0.00    +0.133 C 
ATOM     14  C   UNL     1      17.938   8.201  21.193  0.00  0.00    +0.305 C 
ATOM     15  C   UNL     1      15.809   9.569  20.799  0.00  0.00    +0.127 C 
ATOM     16  C   UNL     1      14.368   9.086  20.926  0.00  0.00    +0.128 C 
ENDROOT
BRANCH   5   9
ATOM      9  C   UNL     1      19.627   6.313  21.031  0.00  0.00    +0.078 C 
ATOM     12  C   UNL     1      19.729   4.950  20.342  0.00  0.00    +0.022 C 
ATOM     13  C   UNL     1      20.835   7.193  20.705  0.00  0.00    +0.022 C 
ATOM     17  C   UNL     1      21.044   4.249  20.674  0.00  0.00    +0.002 C 
ATOM     18  C   UNL     1      22.150   6.490  21.036  0.00  0.00    +0.002 C 
ATOM     19  C   UNL     1      22.248   5.130  20.350  0.00  0.00    +0.000 C 
ENDBRANCH   5   9
BRANCH   7   1
ATOM      1  S   UNL     1      12.365   7.851  19.569  0.00  0.00    +0.061 S 
ATOM      3  O   UNL     1      11.605   8.673  20.485  0.00  0.00    -0.153 OA
ATOM      4  O   UNL     1      12.175   6.418  19.519  0.00  0.00    -0.153 OA
BRANCH   1  20
ATOM     20  C   UNL     1      12.123   8.489  17.941  0.00  0.00    +0.105 A 
ATOM     21  C   UNL     1      10.867   8.407  17.340  0.00  0.00    +0.028 A 
ATOM     22  C   UNL     1      13.189   9.074  17.256  0.00  0.00    +0.028 A 
ATOM     23  C   UNL     1      10.677   8.908  16.052  0.00  0.00    +0.002 A 
ATOM     24  C   UNL     1      12.998   9.575  15.968  0.00  0.00    +0.002 A 
ATOM     25  C   UNL     1      11.742   9.492  15.366  0.00  0.00    +0.000 A 
ENDBRANCH   1  20
ENDBRANCH   7   1
TORSDOF 3
ENDMDL
MODEL 2
REMARK VINA RESULT:      -6.5      2.301      2.833
REMARK  Name = 75537017
REMARK  3 active torsions:
REMARK  status: ('A' for Active; 'I' for Inactive)
REMARK    1  A    between atoms: S_1  and  N_7
REMARK    2  A    between atoms: S_1  and  C_20
REMARK    3  A    between atoms: N_5  and  C_9
REMARK                            x       y       z     vdW  Elec       q    Type
REMARK                         _______ _______ _______ _____ _____    ______ ____
ROOT
ATOM      2  O   UNL     1      19.187   8.568  22.499  0.00  0.00    -0.252 OA
ATOM      5  N   UNL     1      19.051   6.770  20.979  0.00  0.00    -0.281 N 
ATOM      6  N   UNL     1      17.296   8.161  21.166  0.00  0.00    -0.278 N 
ATOM      7  N   UNL     1      14.591   7.873  20.521  0.00  0.00    -0.173 NA
ATOM      8  C   UNL     1      16.935   7.262  20.086  0.00  0.00    +0.111 C 
ATOM     10  C   UNL     1      18.034   6.203  20.111  0.00  0.00    +0.133 C 
ATOM     11  C   UNL     1      15.525   6.720  20.294  0.00  0.00    +0.133 C 
ATOM     14  C   UNL     1      18.588   7.918  21.652  0.00  0.00    +0.305 C 
ATOM     15  C   UNL     1      16.391   9.230  21.542  0.00  0.00    +0.127 C 
ATOM     16  C   UNL     1      14.981   8.679  21.725  0.00  0.00    +0.128 C 
ENDROOT
BRANCH   5   9
ATOM      9  C   UNL     1      20.321   6.122  21.193  0.00  0.00    +0.078 C 
ATOM     12  C   UNL     1      20.291   4.683  20.671  0.00  0.00    +0.022 C 
ATOM     13  C   UNL     1      21.450   6.926  20.543  0.00  0.00    +0.022 C 
ATOM     17  C   UNL     1      21.644   3.996  20.838  0.00  0.00    +0.002 C 
ATOM     18  C   UNL     1      22.801   6.236  20.709  0.00  0.00    +0.002 C 
ATOM     19  C   UNL     1      22.768   4.800  20.191  0.00  0.00    +0.000 C 
ENDBRANCH   5   9
BRANCH   7   1
ATOM      1  S   UNL     1      12.923   7.494  20.405  0.00  0.00    +0.061 S 
ATOM      3  O   UNL     1      12.636   6.366  21.263  0.00  0.00    -0.153 OA
ATOM      4  O   UNL     1      12.540   7.488  19.010  0.00  0.00    -0.153 OA
BRANCH   1  20
ATOM     20  C   UNL     1      12.229   8.934  21.155  0.00  0.00    +0.105 A 
ATOM     21  C   UNL     1      11.469   8.816  22.319  0.00  0.00    +0.028 A 
ATOM     22  C   UNL     1      12.438  10.188  20.582  0.00  0.00    +0.028 A 
ATOM     23  C   UNL     1      10.918   9.952  22.909  0.00  0.00    +0.002 A 
ATOM     24  C   UNL     1      11.886  11.325  21.173  0.00  0.00    +0.002 A 
ATOM     25  C   UNL     1      11.126  11.207  22.337  0.00  0.00    +0.000 A 
ENDBRANCH   1  20
ENDBRANCH   7   1
TORSDOF 3
ENDMDL
MODEL 3
REMARK VINA RESULT:      -6.3     27.763     29.474
REMARK  Name = 75537017
REMARK  3 active torsions:
REMARK  status: ('A' for Active; 'I' for Inactive)
REMARK    1  A    between atoms: S_1  and  N_7
REMARK    2  A    between atoms: S_1  and  C_20
REMARK    3  A    between atoms: N_5  and  C_9
REMARK                            x       y       z     vdW  Elec       q    Type
REMARK                         _______ _______ _______ _____ _____    ______ ____
ROOT
ATOM      2  O   UNL     1      -2.980 -11.031  16.829  0.00  0.00    -0.252 OA
ATOM      5  N   UNL     1      -4.433 -10.572  15.029  0.00  0.00    -0.281 N 
ATOM      6  N   UNL     1      -5.230 -10.423  17.125  0.00  0.00    -0.278 N 
ATOM      7  N   UNL     1      -7.826 -10.511  18.161  0.00  0.00    -0.173 NA
ATOM      8  C   UNL     1      -6.325  -9.973  16.286  0.00  0.00    +0.111 C 
ATOM     10  C   UNL     1      -5.846 -10.276  14.869  0.00  0.00    +0.133 C 
ATOM     11  C   UNL     1      -7.621 -10.671  16.682  0.00  0.00    +0.133 C 
ATOM     14  C   UNL     1      -4.075 -10.711  16.385  0.00  0.00    +0.305 C 
ATOM     15  C   UNL     1      -5.386 -10.426  18.566  0.00  0.00    +0.127 C 
ATOM     16  C   UNL     1      -6.696 -11.106  18.949  0.00  0.00    +0.128 C 
ENDROOT
BRANCH   5   9
ATOM      9  C   UNL     1      -3.570 -10.816  13.900  0.00  0.00    +0.078 C 
ATOM     12  C   UNL     1      -3.315 -12.315  13.726  0.00  0.00    +0.022 C 
ATOM     13  C   UNL     1      -4.162 -10.201  12.629  0.00  0.00    +0.022 C 
ATOM     17  C   UNL     1      -2.447 -12.600  12.503  0.00  0.00    +0.002 C 
ATOM     18  C   UNL     1      -3.294 -10.489  11.407  0.00  0.00    +0.002 C 
ATOM     19  C   UNL     1      -3.039 -11.985  11.238  0.00  0.00    +0.000 C 
ENDBRANCH   5   9
BRANCH   7   1
ATOM      1  S   UNL     1      -9.396 -10.902  18.726  0.00  0.00    +0.061 S 
ATOM      3  O   UNL     1      -9.456 -10.663  20.151  0.00  0.00    -0.153 OA
ATOM      4  O   UNL     1      -9.792 -12.175  18.165  0.00  0.00    -0.153 OA
BRANCH   1  20
ATOM     20  C   UNL     1     -10.333  -9.639  17.926  0.00  0.00    +0.105 A 
ATOM     21  C   UNL     1     -11.679  -9.852  17.628  0.00  0.00    +0.028 A 
ATOM     22  C   UNL     1      -9.727  -8.428  17.589  0.00  0.00    +0.028 A 
ATOM     23  C   UNL     1     -12.419  -8.855  16.993  0.00  0.00    +0.002 A 
ATOM     24  C   UNL     1     -10.468  -7.431  16.953  0.00  0.00    +0.002 A 
ATOM     25  C   UNL     1     -11.814  -7.645  16.655  0.00  0.00    +0.000 A 
ENDBRANCH   1  20
ENDBRANCH   7   1
TORSDOF 3
ENDMDL
MODEL 4
REMARK VINA RESULT:      -6.3     26.855     29.585
REMARK  Name = 75537017
REMARK  3 active torsions:
REMARK  status: ('A' for Active; 'I' for Inactive)
REMARK    1  A    between atoms: S_1  and  N_7
REMARK    2  A    between atoms: S_1  and  C_20
REMARK    3  A    between atoms: N_5  and  C_9
REMARK                            x       y       z     vdW  Elec       q    Type
REMARK                         _______ _______ _______ _____ _____    ______ ____
ROOT
ATOM      2  O   UNL     1      -4.868 -12.016  18.421  0.00  0.00    -0.252 OA
ATOM      5  N   UNL     1      -5.190 -10.751  16.456  0.00  0.00    -0.281 N 
ATOM      6  N   UNL     1      -6.781 -10.705  18.043  0.00  0.00    -0.278 N 
ATOM      7  N   UNL     1      -9.495 -10.041  17.967  0.00  0.00    -0.173 NA
ATOM      8  C   UNL     1      -7.230  -9.749  17.049  0.00  0.00    +0.111 C 
ATOM     10  C   UNL     1      -6.257  -9.944  15.890  0.00  0.00    +0.133 C 
ATOM     11  C   UNL     1      -8.694  -9.995  16.698  0.00  0.00    +0.133 C 
ATOM     14  C   UNL     1      -5.528 -11.251  17.730  0.00  0.00    +0.305 C 
ATOM     15  C   UNL     1      -7.564 -10.911  19.246  0.00  0.00    +0.127 C 
ATOM     16  C   UNL     1      -9.028 -11.134  18.884  0.00  0.00    +0.128 C 
ENDROOT
BRANCH   5   9
ATOM      9  C   UNL     1      -4.002 -11.081  15.709  0.00  0.00    +0.078 C 
ATOM     12  C   UNL     1      -4.142 -10.646  14.248  0.00  0.00    +0.022 C 
ATOM     13  C   UNL     1      -2.767 -10.455  16.360  0.00  0.00    +0.022 C 
ATOM     17  C   UNL     1      -2.873 -10.937  13.451  0.00  0.00    +0.002 C 
ATOM     18  C   UNL     1      -1.499 -10.745  15.560  0.00  0.00    +0.002 C 
ATOM     19  C   UNL     1      -1.642 -10.313  14.103  0.00  0.00    +0.000 C 
ENDBRANCH   5   9
BRANCH   7   1
ATOM      1  S   UNL     1     -11.194  -9.938  17.760  0.00  0.00    +0.061 S 
ATOM      3  O   UNL     1     -11.798  -9.554  19.017  0.00  0.00    -0.153 OA
ATOM      4  O   UNL     1     -11.650 -11.105  17.038  0.00  0.00    -0.153 OA
BRANCH   1  20
ATOM     20  C   UNL     1     -11.286  -8.552  16.671  0.00  0.00    +0.105 A 
ATOM     21  C   UNL     1     -10.827  -7.304  17.091  0.00  0.00    +0.028 A 
ATOM     22  C   UNL     1     -11.819  -8.705  15.391  0.00  0.00    +0.028 A 
ATOM     23  C   UNL     1     -10.903  -6.208  16.231  0.00  0.00    +0.002 A 
ATOM     24  C   UNL     1     -11.895  -7.609  14.532  0.00  0.00    +0.002 A 
ATOM     25  C   UNL     1     -11.437  -6.360  14.952  0.00  0.00    +0.000 A 
ENDBRANCH   1  20
ENDBRANCH   7   1
TORSDOF 3
ENDMDL
MODEL 5
REMARK VINA RESULT:      -6.3     26.910     29.263
REMARK  Name = 75537017
REMARK  3 active torsions:
REMARK  status: ('A' for Active; 'I' for Inactive)
REMARK    1  A    between atoms: S_1  and  N_7
REMARK    2  A    between atoms: S_1  and  C_20
REMARK    3  A    between atoms: N_5  and  C_9
REMARK                            x       y       z     vdW  Elec       q    Type
REMARK                         _______ _______ _______ _____ _____    ______ ____
ROOT
ATOM      2  O   UNL     1      -6.344 -10.281  19.270  0.00  0.00    -0.252 OA
ATOM      5  N   UNL     1      -7.319  -9.899  17.157  0.00  0.00    -0.281 N 
ATOM      6  N   UNL     1      -5.319 -10.920  17.255  0.00  0.00    -0.278 N 
ATOM      7  N   UNL     1      -3.278 -11.243  15.372  0.00  0.00    -0.173 NA
ATOM      8  C   UNL     1      -5.675 -10.949  15.849  0.00  0.00    +0.111 C 
ATOM     10  C   UNL     1      -6.924 -10.075  15.770  0.00  0.00    +0.133 C 
ATOM     11  C   UNL     1      -4.507 -10.468  14.995  0.00  0.00    +0.133 C 
ATOM     14  C   UNL     1      -6.330 -10.361  18.049  0.00  0.00    +0.305 C 
ATOM     15  C   UNL     1      -4.082 -11.534  17.694  0.00  0.00    +0.127 C 
ATOM     16  C   UNL     1      -2.925 -11.061  16.819  0.00  0.00    +0.128 C 
ENDROOT
BRANCH   5   9
ATOM      9  C   UNL     1      -8.530  -9.208  17.525  0.00  0.00    +0.078 C 
ATOM     12  C   UNL     1      -9.057  -8.376  16.353  0.00  0.00    +0.022 C 
ATOM     13  C   UNL     1      -9.584 -10.201  18.022  0.00  0.00    +0.022 C 
ATOM     17  C   UNL     1     -10.369  -7.679  16.704  0.00  0.00    +0.002 C 
ATOM     18  C   UNL     1     -10.896  -9.502  18.370  0.00  0.00    +0.002 C 
ATOM     19  C   UNL     1     -11.418  -8.671  17.201  0.00  0.00    +0.000 C 
ENDBRANCH   5   9
BRANCH   7   1
ATOM      1  S   UNL     1      -1.966 -11.107  14.278  0.00  0.00    +0.061 S 
ATOM      3  O   UNL     1      -1.083 -12.238  14.459  0.00  0.00    -0.153 OA
ATOM      4  O   UNL     1      -1.461  -9.752  14.318  0.00  0.00    -0.153 OA
BRANCH   1  20
ATOM     20  C   UNL     1      -2.819 -11.326  12.748  0.00  0.00    +0.105 A 
ATOM     21  C   UNL     1      -3.455 -12.536  12.472  0.00  0.00    +0.028 A 
ATOM     22  C   UNL     1      -2.854 -10.290  11.814  0.00  0.00    +0.028 A 
ATOM     23  C   UNL     1      -4.126 -12.711  11.262  0.00  0.00    +0.002 A 
ATOM     24  C   UNL     1      -3.525 -10.465  10.604  0.00  0.00    +0.002 A 
ATOM     25  C   UNL     1      -4.161 -11.676  10.328  0.00  0.00    +0.000 A 
ENDBRANCH   1  20
ENDBRANCH   7   1
TORSDOF 3
ENDMDL
MODEL 6
REMARK VINA RESULT:      -6.1     26.920     29.236
REMARK  Name = 75537017
REMARK  3 active torsions:
REMARK  status: ('A' for Active; 'I' for Inactive)
REMARK    1  A    between atoms: S_1  and  N_7
REMARK    2  A    between atoms: S_1  and  C_20
REMARK    3  A    between atoms: N_5  and  C_9
REMARK                            x       y       z     vdW  Elec       q    Type
REMARK                         _______ _______ _______ _____ _____    ______ ____
ROOT
ATOM      2  O   UNL     1      -4.065 -14.034  14.011  0.00  0.00    -0.252 OA
ATOM      5  N   UNL     1      -3.532 -11.748  14.246  0.00  0.00    -0.281 N 
ATOM      6  N   UNL     1      -4.460 -12.825  15.987  0.00  0.00    -0.278 N 
ATOM      7  N   UNL     1      -5.848 -11.916  18.237  0.00  0.00    -0.173 NA
ATOM      8  C   UNL     1      -4.159 -11.500  16.496  0.00  0.00    +0.111 C 
ATOM     10  C   UNL     1      -3.726 -10.722  15.256  0.00  0.00    +0.133 C 
ATOM     11  C   UNL     1      -5.369 -10.920  17.220  0.00  0.00    +0.133 C 
ATOM     14  C   UNL     1      -4.021 -13.001  14.667  0.00  0.00    +0.305 C 
ATOM     15  C   UNL     1      -5.048 -13.815  16.867  0.00  0.00    +0.127 C 
ATOM     16  C   UNL     1      -6.243 -13.217  17.602  0.00  0.00    +0.128 C 
ENDROOT
BRANCH   5   9
ATOM      9  C   UNL     1      -3.016 -11.441  12.934  0.00  0.00    +0.078 C 
ATOM     12  C   UNL     1      -4.156 -11.114  11.967  0.00  0.00    +0.022 C 
ATOM     13  C   UNL     1      -2.004 -10.296  13.010  0.00  0.00    +0.022 C 
ATOM     17  C   UNL     1      -3.629 -10.733  10.586  0.00  0.00    +0.002 C 
ATOM     18  C   UNL     1      -1.480  -9.915  11.628  0.00  0.00    +0.002 C 
ATOM     19  C   UNL     1      -2.618  -9.592  10.664  0.00  0.00    +0.000 C 
ENDBRANCH   5   9
BRANCH   7   1
ATOM      1  S   UNL     1      -6.955 -11.302  19.392  0.00  0.00    +0.061 S 
ATOM      3  O   UNL     1      -6.334 -10.207  20.104  0.00  0.00    -0.153 OA
ATOM      4  O   UNL     1      -7.554 -12.410  20.103  0.00  0.00    -0.153 OA
BRANCH   1  20
ATOM     20  C   UNL     1      -8.177 -10.623  18.314  0.00  0.00    +0.105 A 
ATOM     21  C   UNL     1      -9.314 -11.366  17.994  0.00  0.00    +0.028 A 
ATOM     22  C   UNL     1      -8.005  -9.345  17.781  0.00  0.00    +0.028 A 
ATOM     23  C   UNL     1     -10.278 -10.831  17.140  0.00  0.00    +0.002 A 
ATOM     24  C   UNL     1      -8.969  -8.811  16.926  0.00  0.00    +0.002 A 
ATOM     25  C   UNL     1     -10.106  -9.554  16.606  0.00  0.00    +0.000 A 
ENDBRANCH   1  20
ENDBRANCH   7   1
TORSDOF 3
ENDMDL
MODEL 7
REMARK VINA RESULT:      -6.1      4.681      7.341
REMARK  Name = 75537017
REMARK  3 active torsions:
REMARK  status: ('A' for Active; 'I' for Inactive)
REMARK    1  A    between atoms: S_1  and  N_7
REMARK    2  A    between atoms: S_1  and  C_20
REMARK    3  A    between atoms: N_5  and  C_9
REMARK                            x       y       z     vdW  Elec       q    Type
REMARK                         _______ _______ _______ _____ _____    ______ ____
ROOT
ATOM      2  O   UNL     1      12.288   9.147  15.146  0.00  0.00    -0.252 OA
ATOM      5  N   UNL     1      14.066  10.468  15.956  0.00  0.00    -0.281 N 
ATOM      6  N   UNL     1      13.256   8.829  17.263  0.00  0.00    -0.278 N 
ATOM      7  N   UNL     1      13.374   8.392  20.022  0.00  0.00    -0.173 NA
ATOM      8  C   UNL     1      14.391   9.354  17.998  0.00  0.00    +0.111 C 
ATOM     10  C   UNL     1      14.798  10.593  17.204  0.00  0.00    +0.133 C 
ATOM     11  C   UNL     1      14.007   9.627  19.448  0.00  0.00    +0.133 C 
ATOM     14  C   UNL     1      13.103   9.441  16.011  0.00  0.00    +0.305 C 
ATOM     15  C   UNL     1      12.503   7.716  17.806  0.00  0.00    +0.127 C 
ATOM     16  C   UNL     1      12.143   7.991  19.263  0.00  0.00    +0.128 C 
ENDROOT
BRANCH   5   9
ATOM      9  C   UNL     1      14.247  11.396  14.867  0.00  0.00    +0.078 C 
ATOM     12  C   UNL     1      14.226  12.840  15.375  0.00  0.00    +0.022 C 
ATOM     13  C   UNL     1      15.543  11.091  14.112  0.00  0.00    +0.022 C 
ATOM     17  C   UNL     1      14.471  13.837  14.246  0.00  0.00    +0.002 C 
ATOM     18  C   UNL     1      15.788  12.091  12.985  0.00  0.00    +0.002 C 
ATOM     19  C   UNL     1      15.763  13.530  13.494  0.00  0.00    +0.000 C 
ENDBRANCH   5   9
BRANCH   7   1
ATOM      1  S   UNL     1      13.215   8.381  21.729  0.00  0.00    +0.061 S 
ATOM      3  O   UNL     1      14.507   8.112  22.320  0.00  0.00    -0.153 OA
ATOM      4  O   UNL     1      12.053   7.597  22.086  0.00  0.00    -0.153 OA
BRANCH   1  20
ATOM     20  C   UNL     1      12.834  10.081  22.012  0.00  0.00    +0.105 A 
ATOM     21  C   UNL     1      13.802  10.933  22.544  0.00  0.00    +0.028 A 
ATOM     22  C   UNL     1      11.564  10.571  21.706  0.00  0.00    +0.028 A 
ATOM     23  C   UNL     1      13.500  12.275  22.771  0.00  0.00    +0.002 A 
ATOM     24  C   UNL     1      11.262  11.914  21.934  0.00  0.00    +0.002 A 
ATOM     25  C   UNL     1      12.231  12.766  22.466  0.00  0.00    +0.000 A 
ENDBRANCH   1  20
ENDBRANCH   7   1
TORSDOF 3
ENDMDL
MODEL 8
REMARK VINA RESULT:      -6.0     27.287     30.334
REMARK  Name = 75537017
REMARK  3 active torsions:
REMARK  status: ('A' for Active; 'I' for Inactive)
REMARK    1  A    between atoms: S_1  and  N_7
REMARK    2  A    between atoms: S_1  and  C_20
REMARK    3  A    between atoms: N_5  and  C_9
REMARK                            x       y       z     vdW  Elec       q    Type
REMARK                         _______ _______ _______ _____ _____    ______ ____
ROOT
ATOM      2  O   UNL     1      -6.227 -13.234  15.620  0.00  0.00    -0.252 OA
ATOM      5  N   UNL     1      -5.335 -11.089  16.025  0.00  0.00    -0.281 N 
ATOM      6  N   UNL     1      -7.487 -11.479  16.543  0.00  0.00    -0.278 N 
ATOM      7  N   UNL     1      -9.670  -9.773  16.920  0.00  0.00    -0.173 NA
ATOM      8  C   UNL     1      -7.237 -10.131  17.018  0.00  0.00    +0.111 C 
ATOM     10  C   UNL     1      -5.847  -9.806  16.476  0.00  0.00    +0.133 C 
ATOM     11  C   UNL     1      -8.338  -9.188  16.547  0.00  0.00    +0.133 C 
ATOM     14  C   UNL     1      -6.336 -12.081  16.017  0.00  0.00    +0.305 C 
ATOM     15  C   UNL     1      -8.791 -12.080  16.745  0.00  0.00    +0.127 C 
ATOM     16  C   UNL     1      -9.885 -11.119  16.292  0.00  0.00    +0.128 C 
ENDROOT
BRANCH   5   9
ATOM      9  C   UNL     1      -3.990 -11.244  15.530  0.00  0.00    +0.078 C 
ATOM     12  C   UNL     1      -3.859 -10.660  14.121  0.00  0.00    +0.022 C 
ATOM     13  C   UNL     1      -2.987 -10.604  16.493  0.00  0.00    +0.022 C 
ATOM     17  C   UNL     1      -2.429 -10.764  13.599  0.00  0.00    +0.002 C 
ATOM     18  C   UNL     1      -1.557 -10.707  15.967  0.00  0.00    +0.002 C 
ATOM     19  C   UNL     1      -1.430 -10.127  14.562  0.00  0.00    +0.000 C 
ENDBRANCH   5   9
BRANCH   7   1
ATOM      1  S   UNL     1     -10.997  -8.695  16.808  0.00  0.00    +0.061 S 
ATOM      3  O   UNL     1     -11.712  -8.955  15.579  0.00  0.00    -0.153 OA
ATOM      4  O   UNL     1     -10.548  -7.362  17.143  0.00  0.00    -0.153 OA
BRANCH   1  20
ATOM     20  C   UNL     1     -11.986  -9.287  18.145  0.00  0.00    +0.105 A 
ATOM     21  C   UNL     1     -13.369  -9.395  17.994  0.00  0.00    +0.028 A 
ATOM     22  C   UNL     1     -11.386  -9.646  19.352  0.00  0.00    +0.028 A 
ATOM     23  C   UNL     1     -14.151  -9.859  19.051  0.00  0.00    +0.002 A 
ATOM     24  C   UNL     1     -12.169 -10.110  20.409  0.00  0.00    +0.002 A 
ATOM     25  C   UNL     1     -13.552 -10.217  20.259  0.00  0.00    +0.000 A 
ENDBRANCH   1  20
ENDBRANCH   7   1
TORSDOF 3
ENDMDL
MODEL 9
REMARK VINA RESULT:      -6.0     15.890     19.431
REMARK  Name = 75537017
REMARK  3 active torsions:
REMARK  status: ('A' for Active; 'I' for Inactive)
REMARK    1  A    between atoms: S_1  and  N_7
REMARK    2  A    between atoms: S_1  and  C_20
REMARK    3  A    between atoms: N_5  and  C_9
REMARK                            x       y       z     vdW  Elec       q    Type
REMARK                         _______ _______ _______ _____ _____    ______ ____
ROOT
ATOM      2  O   UNL     1      10.339   4.308   4.946  0.00  0.00    -0.252 OA
ATOM      5  N   UNL     1      10.539   6.505   4.113  0.00  0.00    -0.281 N 
ATOM      6  N   UNL     1      11.255   4.798   2.839  0.00  0.00    -0.278 N 
ATOM      7  N   UNL     1      13.049   4.673   0.698  0.00  0.00    -0.173 NA
ATOM      8  C   UNL     1      11.412   5.971   1.999  0.00  0.00    +0.111 C 
ATOM     10  C   UNL     1      11.123   7.136   2.942  0.00  0.00    +0.133 C 
ATOM     11  C   UNL     1      12.801   5.993   1.369  0.00  0.00    +0.133 C 
ATOM     14  C   UNL     1      10.666   5.103   4.074  0.00  0.00    +0.305 C 
ATOM     15  C   UNL     1      11.596   3.490   2.315  0.00  0.00    +0.127 C 
ATOM     16  C   UNL     1      12.977   3.530   1.669  0.00  0.00    +0.128 C 
ENDROOT
BRANCH   5   9
ATOM      9  C   UNL     1      10.023   7.275   5.218  0.00  0.00    +0.078 C 
ATOM     12  C   UNL     1       8.558   6.922   5.488  0.00  0.00    +0.022 C 
ATOM     13  C   UNL     1      10.885   7.067   6.466  0.00  0.00    +0.022 C 
ATOM     17  C   UNL     1       8.008   7.686   6.689  0.00  0.00    +0.002 C 
ATOM     18  C   UNL     1      10.331   7.830   7.667  0.00  0.00    +0.002 C 
ATOM     19  C   UNL     1       8.869   7.478   7.932  0.00  0.00    +0.000 C 
ENDBRANCH   5   9
BRANCH   7   1
ATOM      1  S   UNL     1      14.389   4.639  -0.370  0.00  0.00    +0.061 S 
ATOM      3  O   UNL     1      15.350   3.671   0.110  0.00  0.00    -0.153 OA
ATOM      4  O   UNL     1      14.785   5.998  -0.668  0.00  0.00    -0.153 OA
BRANCH   1  20
ATOM     20  C   UNL     1      13.617   3.969  -1.809  0.00  0.00    +0.105 A 
ATOM     21  C   UNL     1      13.941   4.469  -3.070  0.00  0.00    +0.028 A 
ATOM     22  C   UNL     1      12.682   2.941  -1.684  0.00  0.00    +0.028 A 
ATOM     23  C   UNL     1      13.328   3.942  -4.207  0.00  0.00    +0.002 A 
ATOM     24  C   UNL     1      12.070   2.415  -2.821  0.00  0.00    +0.002 A 
ATOM     25  C   UNL     1      12.393   2.915  -4.083  0.00  0.00    +0.000 A 
ENDBRANCH   1  20
ENDBRANCH   7   1
TORSDOF 3
ENDMDL
MODEL 10
REMARK VINA RESULT:      -5.9     16.116     19.444
REMARK  Name = 75537017
REMARK  3 active torsions:
REMARK  status: ('A' for Active; 'I' for Inactive)
REMARK    1  A    between atoms: S_1  and  N_7
REMARK    2  A    between atoms: S_1  and  C_20
REMARK    3  A    between atoms: N_5  and  C_9
REMARK                            x       y       z     vdW  Elec       q    Type
REMARK                         _______ _______ _______ _____ _____    ______ ____
ROOT
ATOM      2  O   UNL     1      13.105   7.230   4.294  0.00  0.00    -0.252 OA
ATOM      5  N   UNL     1      11.139   5.957   4.575  0.00  0.00    -0.281 N 
ATOM      6  N   UNL     1      12.064   6.077   2.531  0.00  0.00    -0.278 N 
ATOM      7  N   UNL     1      11.031   5.642  -0.030  0.00  0.00    -0.173 NA
ATOM      8  C   UNL     1      10.966   5.142   2.379  0.00  0.00    +0.111 C 
ATOM     10  C   UNL     1      10.225   5.231   3.711  0.00  0.00    +0.133 C 
ATOM     11  C   UNL     1      10.125   5.503   1.159  0.00  0.00    +0.133 C 
ATOM     14  C   UNL     1      12.217   6.509   3.855  0.00  0.00    +0.305 C 
ATOM     15  C   UNL     1      12.917   6.372   1.396  0.00  0.00    +0.127 C 
ATOM     16  C   UNL     1      12.065   6.710   0.177  0.00  0.00    +0.128 C 
ENDROOT
BRANCH   5   9
ATOM      9  C   UNL     1      10.861   6.170   5.974  0.00  0.00    +0.078 C 
ATOM     12  C   UNL     1      10.269   7.563   6.203  0.00  0.00    +0.022 C 
ATOM     13  C   UNL     1       9.935   5.076   6.510  0.00  0.00    +0.022 C 
ATOM     17  C   UNL     1       9.916   7.790   7.671  0.00  0.00    +0.002 C 
ATOM     18  C   UNL     1       9.582   5.307   7.978  0.00  0.00    +0.002 C 
ATOM     19  C   UNL     1       8.994   6.697   8.203  0.00  0.00    +0.000 C 
ENDBRANCH   5   9
BRANCH   7   1
ATOM      1  S   UNL     1      10.239   5.678  -1.550  0.00  0.00    +0.061 S 
ATOM      3  O   UNL     1      10.500   6.950  -2.187  0.00  0.00    -0.153 OA
ATOM      4  O   UNL     1       8.887   5.190  -1.385  0.00  0.00    -0.153 OA
BRANCH   1  20
ATOM     20  C   UNL     1      11.164   4.443  -2.406  0.00  0.00    +0.105 A 
ATOM     21  C   UNL     1      11.451   3.229  -1.782  0.00  0.00    +0.028 A 
ATOM     22  C   UNL     1      11.611   4.682  -3.706  0.00  0.00    +0.028 A 
ATOM     23  C   UNL     1      12.185   2.254  -2.457  0.00  0.00    +0.002 A 
ATOM     24  C   UNL     1      12.345   3.707  -4.381  0.00  0.00    +0.002 A 
ATOM     25  C   UNL     1      12.632   2.493  -3.757  0.00  0.00    +0.000 A 
ENDBRANCH   1  20
ENDBRANCH   7   1
TORSDOF 3
ENDMDL
