MODEL 1
REMARK VINA RESULT:      -8.2      0.000      0.000
REMARK  Name = 11884549
REMARK  6 active torsions:
REMARK  status: ('A' for Active; 'I' for Inactive)
REMARK    1  A    between atoms: O_3  and  C_23
REMARK    2  A    between atoms: O_6  and  C_26
REMARK    3  A    between atoms: O_6  and  C_31
REMARK    4  A    between atoms: N_9  and  C_21
REMARK    5  A    between atoms: N_10  and  C_25
REMARK    6  A    between atoms: C_20  and  C_23
REMARK                            x       y       z     vdW  Elec       q    Type
REMARK                         _______ _______ _______ _____ _____    ______ ____
ROOT
ATOM      1  O   UNL     1      16.786   9.226  21.964  0.00  0.00    -0.266 OA
ATOM      2  O   UNL     1      12.115   6.204  21.428  0.00  0.00    -0.263 OA
ATOM      7  N   UNL     1      15.458   8.585  20.151  0.00  0.00    -0.310 N 
ATOM      8  N   UNL     1      12.289   8.041  19.994  0.00  0.00    -0.291 N 
ATOM     11  C   UNL     1      13.573  10.050  19.229  0.00  0.00    +0.027 C 
ATOM     12  C   UNL     1      14.021   7.857  18.214  0.00  0.00    +0.054 C 
ATOM     13  C   UNL     1      13.854   9.344  17.909  0.00  0.00    +0.018 C 
ATOM     14  C   UNL     1      14.795   9.895  20.143  0.00  0.00    +0.130 C 
ATOM     15  C   UNL     1      12.292   9.501  19.883  0.00  0.00    +0.113 C 
ATOM     16  C   UNL     1      12.709   7.306  18.798  0.00  0.00    +0.118 C 
ATOM     17  C   UNL     1      15.161   7.618  19.187  0.00  0.00    +0.027 A 
ATOM     18  C   UNL     1      15.862   6.473  19.139  0.00  0.00    +0.024 A 
ATOM     19  C   UNL     1      16.477   8.397  21.107  0.00  0.00    +0.273 A 
ATOM     20  C   UNL     1      11.802   7.340  21.091  0.00  0.00    +0.324 C 
ATOM     21  C   UNL     1      17.218   7.097  21.036  0.00  0.00    +0.100 A 
ATOM     22  C   UNL     1      16.910   6.210  20.085  0.00  0.00    +0.030 A 
ENDROOT
BRANCH  21   9
ATOM      5  O   UNL     1      20.007   6.960  20.501  0.00  0.00    -0.252 OA
ATOM      9  N   UNL     1      18.202   6.871  21.953  0.00  0.00    -0.265 N 
ATOM     10  N   UNL     1      20.316   6.565  22.793  0.00  0.00    -0.266 N 
ATOM     24  C   UNL     1      19.566   6.812  21.637  0.00  0.00    +0.308 C 
ATOM     32  H   UNL     1      17.916   6.487  22.850  0.00  0.00    +0.157 HD
ATOM     34  H   UNL     1      19.796   6.476  23.663  0.00  0.00    +0.156 HD
BRANCH  10  25
ATOM     25  C   UNL     1      21.720   6.435  22.907  0.00  0.00    +0.077 A 
ATOM     26  C   UNL     1      22.312   5.187  22.783  0.00  0.00    +0.141 A 
ATOM     27  C   UNL     1      22.478   7.572  23.141  0.00  0.00    +0.027 A 
ATOM     28  C   UNL     1      23.698   5.074  22.896  0.00  0.00    +0.047 A 
ATOM     29  C   UNL     1      23.863   7.457  23.255  0.00  0.00    +0.002 A 
ATOM     30  C   UNL     1      24.473   6.209  23.133  0.00  0.00    +0.004 A 
BRANCH  26   6
ATOM      6  O   UNL     1      21.573   4.065  22.552  0.00  0.00    -0.493 OA
ATOM     31  C   UNL     1      21.537   3.578  21.212  0.00  0.00    +0.277 C 
ENDBRANCH  26   6
ENDBRANCH  10  25
ENDBRANCH  21   9
BRANCH  20  23
ATOM      4  O   UNL     1      11.005   8.878  22.708  0.00  0.00    -0.240 OA
ATOM     23  C   UNL     1      10.790   7.896  22.026  0.00  0.00    +0.392 C 
BRANCH  23   3
ATOM      3  O   UNL     1       9.675   7.156  21.963  0.00  0.00    -0.474 OA
ATOM     33  H   UNL     1       8.880   7.657  22.245  0.00  0.00    +0.296 HD
ENDBRANCH  23   3
ENDBRANCH  20  23
TORSDOF 5
ENDMDL
MODEL 2
REMARK VINA RESULT:      -7.5      2.547      3.771
REMARK  Name = 11884549
REMARK  6 active torsions:
REMARK  status: ('A' for Active; 'I' for Inactive)
REMARK    1  A    between atoms: O_3  and  C_23
REMARK    2  A    between atoms: O_6  and  C_26
REMARK    3  A    between atoms: O_6  and  C_31
REMARK    4  A    between atoms: N_9  and  C_21
REMARK    5  A    between atoms: N_10  and  C_25
REMARK    6  A    between atoms: C_20  and  C_23
REMARK                            x       y       z     vdW  Elec       q    Type
REMARK                         _______ _______ _______ _____ _____    ______ ____
ROOT
ATOM      1  O   UNL     1      16.269   5.537  19.442  0.00  0.00    -0.266 OA
ATOM      2  O   UNL     1      14.674  10.275  16.943  0.00  0.00    -0.263 OA
ATOM      7  N   UNL     1      15.054   7.411  20.126  0.00  0.00    -0.310 N 
ATOM      8  N   UNL     1      13.127   9.361  18.438  0.00  0.00    -0.291 N 
ATOM     11  C   UNL     1      12.499   7.522  20.016  0.00  0.00    +0.027 C 
ATOM     12  C   UNL     1      13.769   9.457  20.843  0.00  0.00    +0.054 C 
ATOM     13  C   UNL     1      12.628   8.500  21.177  0.00  0.00    +0.018 C 
ATOM     14  C   UNL     1      13.788   6.696  19.920  0.00  0.00    +0.130 C 
ATOM     15  C   UNL     1      12.193   8.266  18.703  0.00  0.00    +0.113 C 
ATOM     16  C   UNL     1      13.416  10.246  19.570  0.00  0.00    +0.118 C 
ATOM     17  C   UNL     1      15.075   8.710  20.643  0.00  0.00    +0.027 A 
ATOM     18  C   UNL     1      16.245   9.302  20.936  0.00  0.00    +0.024 A 
ATOM     19  C   UNL     1      16.238   6.687  19.879  0.00  0.00    +0.273 A 
ATOM     20  C   UNL     1      13.634   9.673  17.182  0.00  0.00    +0.324 C 
ATOM     21  C   UNL     1      17.521   7.392  20.195  0.00  0.00    +0.100 A 
ATOM     22  C   UNL     1      17.492   8.627  20.704  0.00  0.00    +0.030 A 
ENDROOT
BRANCH  21   9
ATOM      5  O   UNL     1      19.269   6.317  22.163  0.00  0.00    -0.252 OA
ATOM      9  N   UNL     1      18.690   6.730  19.957  0.00  0.00    -0.265 N 
ATOM     10  N   UNL     1      20.637   5.598  20.397  0.00  0.00    -0.266 N 
ATOM     24  C   UNL     1      19.518   6.219  20.964  0.00  0.00    +0.308 C 
ATOM     32  H   UNL     1      19.094   6.829  19.029  0.00  0.00    +0.157 HD
ATOM     34  H   UNL     1      20.690   5.594  19.382  0.00  0.00    +0.156 HD
BRANCH  10  25
ATOM     25  C   UNL     1      21.708   4.959  21.065  0.00  0.00    +0.077 A 
ATOM     26  C   UNL     1      22.782   5.706  21.525  0.00  0.00    +0.141 A 
ATOM     27  C   UNL     1      21.656   3.586  21.245  0.00  0.00    +0.027 A 
ATOM     28  C   UNL     1      23.831   5.062  22.183  0.00  0.00    +0.047 A 
ATOM     29  C   UNL     1      22.705   2.943  21.902  0.00  0.00    +0.002 A 
ATOM     30  C   UNL     1      23.793   3.681  22.370  0.00  0.00    +0.004 A 
BRANCH  26   6
ATOM      6  O   UNL     1      22.839   7.057  21.352  0.00  0.00    -0.493 OA
ATOM     31  C   UNL     1      22.614   7.867  22.503  0.00  0.00    +0.277 C 
ENDBRANCH  26   6
ENDBRANCH  10  25
ENDBRANCH  21   9
BRANCH  20  23
ATOM      4  O   UNL     1      13.399   8.496  15.137  0.00  0.00    -0.240 OA
ATOM     23  C   UNL     1      12.944   9.310  15.916  0.00  0.00    +0.392 C 
BRANCH  23   3
ATOM      3  O   UNL     1      11.802  10.005  15.819  0.00  0.00    -0.474 OA
ATOM     33  H   UNL     1      11.865  10.884  16.249  0.00  0.00    +0.296 HD
ENDBRANCH  23   3
ENDBRANCH  20  23
TORSDOF 5
ENDMDL
MODEL 3
REMARK VINA RESULT:      -7.5     18.819     21.920
REMARK  Name = 11884549
REMARK  6 active torsions:
REMARK  status: ('A' for Active; 'I' for Inactive)
REMARK    1  A    between atoms: O_3  and  C_23
REMARK    2  A    between atoms: O_6  and  C_26
REMARK    3  A    between atoms: O_6  and  C_31
REMARK    4  A    between atoms: N_9  and  C_21
REMARK    5  A    between atoms: N_10  and  C_25
REMARK    6  A    between atoms: C_20  and  C_23
REMARK                            x       y       z     vdW  Elec       q    Type
REMARK                         _______ _______ _______ _____ _____    ______ ____
ROOT
ATOM      1  O   UNL     1       9.990   5.976   1.007  0.00  0.00    -0.266 OA
ATOM      2  O   UNL     1      10.572   1.747  -2.600  0.00  0.00    -0.263 OA
ATOM      7  N   UNL     1      11.762   5.165  -0.281  0.00  0.00    -0.310 N 
ATOM      8  N   UNL     1      11.739   3.696  -3.146  0.00  0.00    -0.291 N 
ATOM     11  C   UNL     1      12.313   6.074  -2.609  0.00  0.00    +0.027 C 
ATOM     12  C   UNL     1      13.662   4.251  -1.662  0.00  0.00    +0.054 C 
ATOM     13  C   UNL     1      13.738   5.638  -2.293  0.00  0.00    +0.018 C 
ATOM     14  C   UNL     1      11.531   6.200  -1.295  0.00  0.00    +0.130 C 
ATOM     15  C   UNL     1      11.642   5.090  -3.585  0.00  0.00    +0.113 C 
ATOM     16  C   UNL     1      13.058   3.262  -2.675  0.00  0.00    +0.118 C 
ATOM     17  C   UNL     1      12.827   4.265  -0.394  0.00  0.00    +0.027 A 
ATOM     18  C   UNL     1      13.093   3.404   0.602  0.00  0.00    +0.024 A 
ATOM     19  C   UNL     1      10.928   5.193   0.855  0.00  0.00    +0.273 A 
ATOM     20  C   UNL     1      10.718   2.762  -3.271  0.00  0.00    +0.324 C 
ATOM     21  C   UNL     1      11.241   4.199   1.931  0.00  0.00    +0.100 A 
ATOM     22  C   UNL     1      12.280   3.371   1.786  0.00  0.00    +0.030 A 
ENDROOT
BRANCH  21   9
ATOM      5  O   UNL     1      11.491   5.907   4.191  0.00  0.00    -0.252 OA
ATOM      9  N   UNL     1      10.448   4.186   3.040  0.00  0.00    -0.265 N 
ATOM     10  N   UNL     1       9.644   4.784   5.105  0.00  0.00    -0.266 N 
ATOM     24  C   UNL     1      10.613   5.050   4.130  0.00  0.00    +0.308 C 
ATOM     32  H   UNL     1       9.876   3.358   3.186  0.00  0.00    +0.157 HD
ATOM     34  H   UNL     1       8.980   4.043   4.896  0.00  0.00    +0.156 HD
BRANCH  10  25
ATOM     25  C   UNL     1       9.465   5.430   6.351  0.00  0.00    +0.077 A 
ATOM     26  C   UNL     1       8.852   6.672   6.405  0.00  0.00    +0.141 A 
ATOM     27  C   UNL     1       9.911   4.795   7.500  0.00  0.00    +0.027 A 
ATOM     28  C   UNL     1       8.682   7.297   7.642  0.00  0.00    +0.047 A 
ATOM     29  C   UNL     1       9.741   5.420   8.735  0.00  0.00    +0.002 A 
ATOM     30  C   UNL     1       9.127   6.671   8.806  0.00  0.00    +0.004 A 
BRANCH  26   6
ATOM      6  O   UNL     1       8.411   7.301   5.280  0.00  0.00    -0.493 OA
ATOM     31  C   UNL     1       9.023   8.546   4.952  0.00  0.00    +0.277 C 
ENDBRANCH  26   6
ENDBRANCH  10  25
ENDBRANCH  21   9
BRANCH  20  23
ATOM      4  O   UNL     1       9.771   2.491  -5.427  0.00  0.00    -0.240 OA
ATOM     23  C   UNL     1       9.635   2.875  -4.282  0.00  0.00    +0.392 C 
BRANCH  23   3
ATOM      3  O   UNL     1       8.557   3.435  -3.716  0.00  0.00    -0.474 OA
ATOM     33  H   UNL     1       7.727   3.189  -4.176  0.00  0.00    +0.296 HD
ENDBRANCH  23   3
ENDBRANCH  20  23
TORSDOF 5
ENDMDL
MODEL 4
REMARK VINA RESULT:      -7.2     27.986     31.389
REMARK  Name = 11884549
REMARK  6 active torsions:
REMARK  status: ('A' for Active; 'I' for Inactive)
REMARK    1  A    between atoms: O_3  and  C_23
REMARK    2  A    between atoms: O_6  and  C_26
REMARK    3  A    between atoms: O_6  and  C_31
REMARK    4  A    between atoms: N_9  and  C_21
REMARK    5  A    between atoms: N_10  and  C_25
REMARK    6  A    between atoms: C_20  and  C_23
REMARK                            x       y       z     vdW  Elec       q    Type
REMARK                         _______ _______ _______ _____ _____    ______ ____
ROOT
ATOM      1  O   UNL     1     -14.921   7.429  19.712  0.00  0.00    -0.266 OA
ATOM      2  O   UNL     1     -10.426   7.534  16.392  0.00  0.00    -0.263 OA
ATOM      7  N   UNL     1     -12.991   8.742  19.622  0.00  0.00    -0.310 N 
ATOM      8  N   UNL     1     -11.198   9.624  17.097  0.00  0.00    -0.291 N 
ATOM     11  C   UNL     1     -12.887  10.969  18.365  0.00  0.00    +0.027 C 
ATOM     12  C   UNL     1     -10.887  10.125  19.517  0.00  0.00    +0.054 C 
ATOM     13  C   UNL     1     -11.808  11.334  19.377  0.00  0.00    +0.018 C 
ATOM     14  C   UNL     1     -13.719   9.810  18.926  0.00  0.00    +0.130 C 
ATOM     15  C   UNL     1     -12.264  10.623  17.000  0.00  0.00    +0.113 C 
ATOM     16  C   UNL     1     -10.215   9.836  18.163  0.00  0.00    +0.118 C 
ATOM     17  C   UNL     1     -11.650   8.901  19.987  0.00  0.00    +0.027 A 
ATOM     18  C   UNL     1     -11.036   7.963  20.727  0.00  0.00    +0.024 A 
ATOM     19  C   UNL     1     -13.736   7.605  19.994  0.00  0.00    +0.273 A 
ATOM     20  C   UNL     1     -11.002   8.595  16.183  0.00  0.00    +0.324 C 
ATOM     21  C   UNL     1     -13.007   6.571  20.796  0.00  0.00    +0.100 A 
ATOM     22  C   UNL     1     -11.731   6.774  21.136  0.00  0.00    +0.030 A 
ENDROOT
BRANCH  21   9
ATOM      5  O   UNL     1     -14.588   6.263  23.140  0.00  0.00    -0.252 OA
ATOM      9  N   UNL     1     -13.689   5.448  21.164  0.00  0.00    -0.265 N 
ATOM     10  N   UNL     1     -15.026   4.072  22.422  0.00  0.00    -0.266 N 
ATOM     24  C   UNL     1     -14.456   5.347  22.332  0.00  0.00    +0.308 C 
ATOM     32  H   UNL     1     -13.431   4.581  20.701  0.00  0.00    +0.157 HD
ATOM     34  H   UNL     1     -14.825   3.428  21.662  0.00  0.00    +0.156 HD
BRANCH  10  25
ATOM     25  C   UNL     1     -15.865   3.566  23.443  0.00  0.00    +0.077 A 
ATOM     26  C   UNL     1     -17.090   3.004  23.118  0.00  0.00    +0.141 A 
ATOM     27  C   UNL     1     -15.435   3.645  24.758  0.00  0.00    +0.027 A 
ATOM     28  C   UNL     1     -17.907   2.509  24.136  0.00  0.00    +0.047 A 
ATOM     29  C   UNL     1     -16.252   3.150  25.775  0.00  0.00    +0.002 A 
ATOM     30  C   UNL     1     -17.488   2.582  25.464  0.00  0.00    +0.004 A 
BRANCH  26   6
ATOM      6  O   UNL     1     -17.519   2.923  21.827  0.00  0.00    -0.493 OA
ATOM     31  C   UNL     1     -18.660   2.106  21.574  0.00  0.00    +0.277 C 
ENDBRANCH  26   6
ENDBRANCH  10  25
ENDBRANCH  21   9
BRANCH  20  23
ATOM      4  O   UNL     1     -12.518   8.145  14.417  0.00  0.00    -0.240 OA
ATOM     23  C   UNL     1     -11.477   8.659  14.776  0.00  0.00    +0.392 C 
BRANCH  23   3
ATOM      3  O   UNL     1     -10.595   9.351  14.042  0.00  0.00    -0.474 OA
ATOM     33  H   UNL     1     -10.535  10.289  14.321  0.00  0.00    +0.296 HD
ENDBRANCH  23   3
ENDBRANCH  20  23
TORSDOF 5
ENDMDL
MODEL 5
REMARK VINA RESULT:      -6.7     28.952     31.972
REMARK  Name = 11884549
REMARK  6 active torsions:
REMARK  status: ('A' for Active; 'I' for Inactive)
REMARK    1  A    between atoms: O_3  and  C_23
REMARK    2  A    between atoms: O_6  and  C_26
REMARK    3  A    between atoms: O_6  and  C_31
REMARK    4  A    between atoms: N_9  and  C_21
REMARK    5  A    between atoms: N_10  and  C_25
REMARK    6  A    between atoms: C_20  and  C_23
REMARK                            x       y       z     vdW  Elec       q    Type
REMARK                         _______ _______ _______ _____ _____    ______ ____
ROOT
ATOM      1  O   UNL     1     -10.176  -9.054  13.712  0.00  0.00    -0.266 OA
ATOM      2  O   UNL     1     -11.983  -3.880  12.614  0.00  0.00    -0.263 OA
ATOM      7  N   UNL     1     -12.160  -7.896  14.135  0.00  0.00    -0.310 N 
ATOM      8  N   UNL     1     -13.598  -5.561  12.449  0.00  0.00    -0.291 N 
ATOM     11  C   UNL     1     -14.182  -7.993  12.569  0.00  0.00    +0.027 C 
ATOM     12  C   UNL     1     -14.279  -6.614  14.601  0.00  0.00    +0.054 C 
ATOM     13  C   UNL     1     -14.997  -7.715  13.826  0.00  0.00    +0.018 C 
ATOM     14  C   UNL     1     -12.807  -8.532  12.981  0.00  0.00    +0.130 C 
ATOM     15  C   UNL     1     -14.067  -6.728  11.699  0.00  0.00    +0.113 C 
ATOM     16  C   UNL     1     -14.237  -5.334  13.748  0.00  0.00    +0.118 C 
ATOM     17  C   UNL     1     -12.869  -7.031  14.975  0.00  0.00    +0.027 A 
ATOM     18  C   UNL     1     -12.296  -6.554  16.093  0.00  0.00    +0.024 A 
ATOM     19  C   UNL     1     -10.833  -8.283  14.412  0.00  0.00    +0.273 A 
ATOM     20  C   UNL     1     -12.705  -4.618  11.953  0.00  0.00    +0.324 C 
ATOM     21  C   UNL     1     -10.222  -7.708  15.652  0.00  0.00    +0.100 A 
ATOM     22  C   UNL     1     -10.944  -6.900  16.434  0.00  0.00    +0.030 A 
ENDROOT
BRANCH  21   9
ATOM      5  O   UNL     1      -9.392  -9.906  17.254  0.00  0.00    -0.252 OA
ATOM      9  N   UNL     1      -8.934  -8.047  15.947  0.00  0.00    -0.265 N 
ATOM     10  N   UNL     1      -7.184  -9.220  16.857  0.00  0.00    -0.266 N 
ATOM     24  C   UNL     1      -8.576  -9.143  16.744  0.00  0.00    +0.308 C 
ATOM     32  H   UNL     1      -8.223  -7.338  15.787  0.00  0.00    +0.157 HD
ATOM     34  H   UNL     1      -6.647  -8.512  16.362  0.00  0.00    +0.156 HD
BRANCH  10  25
ATOM     25  C   UNL     1      -6.421 -10.175  17.570  0.00  0.00    +0.077 A 
ATOM     26  C   UNL     1      -5.512 -10.977  16.898  0.00  0.00    +0.141 A 
ATOM     27  C   UNL     1      -6.605 -10.285  18.939  0.00  0.00    +0.027 A 
ATOM     28  C   UNL     1      -4.767 -11.914  17.615  0.00  0.00    +0.047 A 
ATOM     29  C   UNL     1      -5.860 -11.222  19.655  0.00  0.00    +0.002 A 
ATOM     30  C   UNL     1      -4.941 -12.037  18.993  0.00  0.00    +0.004 A 
BRANCH  26   6
ATOM      6  O   UNL     1      -5.326 -10.874  15.551  0.00  0.00    -0.493 OA
ATOM     31  C   UNL     1      -3.983 -10.739  15.092  0.00  0.00    +0.277 C 
ENDBRANCH  26   6
ENDBRANCH  10  25
ENDBRANCH  21   9
BRANCH  20  23
ATOM      4  O   UNL     1     -11.577  -4.830   9.879  0.00  0.00    -0.240 OA
ATOM     23  C   UNL     1     -12.512  -4.368  10.501  0.00  0.00    +0.392 C 
BRANCH  23   3
ATOM      3  O   UNL     1     -13.508  -3.593  10.049  0.00  0.00    -0.474 OA
ATOM     33  H   UNL     1     -14.272  -4.119   9.731  0.00  0.00    +0.296 HD
ENDBRANCH  23   3
ENDBRANCH  20  23
TORSDOF 5
ENDMDL
MODEL 6
REMARK VINA RESULT:      -6.7     28.376     31.156
REMARK  Name = 11884549
REMARK  6 active torsions:
REMARK  status: ('A' for Active; 'I' for Inactive)
REMARK    1  A    between atoms: O_3  and  C_23
REMARK    2  A    between atoms: O_6  and  C_26
REMARK    3  A    between atoms: O_6  and  C_31
REMARK    4  A    between atoms: N_9  and  C_21
REMARK    5  A    between atoms: N_10  and  C_25
REMARK    6  A    between atoms: C_20  and  C_23
REMARK                            x       y       z     vdW  Elec       q    Type
REMARK                         _______ _______ _______ _____ _____    ______ ____
ROOT
ATOM      1  O   UNL     1      -6.418  -9.804  14.037  0.00  0.00    -0.266 OA
ATOM      2  O   UNL     1      -4.104 -14.869  14.513  0.00  0.00    -0.263 OA
ATOM      7  N   UNL     1      -4.240 -10.626  13.843  0.00  0.00    -0.310 N 
ATOM      8  N   UNL     1      -3.190 -13.503  12.852  0.00  0.00    -0.291 N 
ATOM     11  C   UNL     1      -3.219 -11.331  11.605  0.00  0.00    +0.027 C 
ATOM     12  C   UNL     1      -1.897 -11.536  13.667  0.00  0.00    +0.054 C 
ATOM     13  C   UNL     1      -1.889 -10.965  12.251  0.00  0.00    +0.018 C 
ATOM     14  C   UNL     1      -4.351 -10.645  12.380  0.00  0.00    +0.130 C 
ATOM     15  C   UNL     1      -3.401 -12.859  11.553  0.00  0.00    +0.113 C 
ATOM     16  C   UNL     1      -2.005 -13.069  13.597  0.00  0.00    +0.118 C 
ATOM     17  C   UNL     1      -3.046 -10.974  14.483  0.00  0.00    +0.027 A 
ATOM     18  C   UNL     1      -2.927 -10.835  15.814  0.00  0.00    +0.024 A 
ATOM     19  C   UNL     1      -5.354 -10.139  14.557  0.00  0.00    +0.273 A 
ATOM     20  C   UNL     1      -3.953 -14.558  13.337  0.00  0.00    +0.324 C 
ATOM     21  C   UNL     1      -5.190 -10.024  16.041  0.00  0.00    +0.100 A 
ATOM     22  C   UNL     1      -4.024 -10.352  16.606  0.00  0.00    +0.030 A 
ENDROOT
BRANCH  21   9
ATOM      5  O   UNL     1      -7.451 -11.553  16.839  0.00  0.00    -0.252 OA
ATOM      9  N   UNL     1      -6.250  -9.571  16.769  0.00  0.00    -0.265 N 
ATOM     10  N   UNL     1      -8.259  -9.609  17.877  0.00  0.00    -0.266 N 
ATOM     24  C   UNL     1      -7.343 -10.366  17.138  0.00  0.00    +0.308 C 
ATOM     32  H   UNL     1      -6.366  -8.563  16.834  0.00  0.00    +0.157 HD
ATOM     34  H   UNL     1      -8.015  -8.637  18.046  0.00  0.00    +0.156 HD
BRANCH  10  25
ATOM     25  C   UNL     1      -9.489 -10.034  18.434  0.00  0.00    +0.077 A 
ATOM     26  C   UNL     1      -9.497 -10.924  19.497  0.00  0.00    +0.141 A 
ATOM     27  C   UNL     1     -10.668  -9.544  17.896  0.00  0.00    +0.027 A 
ATOM     28  C   UNL     1     -10.717 -11.334  20.035  0.00  0.00    +0.047 A 
ATOM     29  C   UNL     1     -11.887  -9.954  18.435  0.00  0.00    +0.002 A 
ATOM     30  C   UNL     1     -11.912 -10.850  19.504  0.00  0.00    +0.004 A 
BRANCH  26   6
ATOM      6  O   UNL     1      -8.341 -11.410  20.031  0.00  0.00    -0.493 OA
ATOM     31  C   UNL     1      -8.139 -12.820  19.963  0.00  0.00    +0.277 C 
ENDBRANCH  26   6
ENDBRANCH  10  25
ENDBRANCH  21   9
BRANCH  20  23
ATOM      4  O   UNL     1      -5.897 -15.365  12.246  0.00  0.00    -0.240 OA
ATOM     23  C   UNL     1      -4.706 -15.487  12.455  0.00  0.00    +0.392 C 
BRANCH  23   3
ATOM      3  O   UNL     1      -3.869 -16.413  11.969  0.00  0.00    -0.474 OA
ATOM     33  H   UNL     1      -3.089 -16.013  11.528  0.00  0.00    +0.296 HD
ENDBRANCH  23   3
ENDBRANCH  20  23
TORSDOF 5
ENDMDL
MODEL 7
REMARK VINA RESULT:      -6.5     29.666     32.475
REMARK  Name = 11884549
REMARK  6 active torsions:
REMARK  status: ('A' for Active; 'I' for Inactive)
REMARK    1  A    between atoms: O_3  and  C_23
REMARK    2  A    between atoms: O_6  and  C_26
REMARK    3  A    between atoms: O_6  and  C_31
REMARK    4  A    between atoms: N_9  and  C_21
REMARK    5  A    between atoms: N_10  and  C_25
REMARK    6  A    between atoms: C_20  and  C_23
REMARK                            x       y       z     vdW  Elec       q    Type
REMARK                         _______ _______ _______ _____ _____    ______ ____
ROOT
ATOM      1  O   UNL     1      -9.167  -4.544   8.818  0.00  0.00    -0.266 OA
ATOM      2  O   UNL     1     -12.857  -7.024  12.206  0.00  0.00    -0.263 OA
ATOM      7  N   UNL     1     -11.469  -4.935   8.715  0.00  0.00    -0.310 N 
ATOM      8  N   UNL     1     -13.645  -5.134  11.079  0.00  0.00    -0.291 N 
ATOM     11  C   UNL     1     -13.201  -3.229   9.516  0.00  0.00    +0.027 C 
ATOM     12  C   UNL     1     -13.944  -5.394   8.620  0.00  0.00    +0.054 C 
ATOM     13  C   UNL     1     -14.118  -3.883   8.490  0.00  0.00    +0.018 C 
ATOM     14  C   UNL     1     -11.746  -3.565   9.164  0.00  0.00    +0.130 C 
ATOM     15  C   UNL     1     -13.565  -3.678  10.943  0.00  0.00    +0.113 C 
ATOM     16  C   UNL     1     -14.383  -5.838  10.027  0.00  0.00    +0.118 C 
ATOM     17  C   UNL     1     -12.506  -5.808   8.373  0.00  0.00    +0.027 A 
ATOM     18  C   UNL     1     -12.229  -7.015   7.852  0.00  0.00    +0.024 A 
ATOM     19  C   UNL     1     -10.113  -5.285   8.547  0.00  0.00    +0.273 A 
ATOM     20  C   UNL     1     -13.187  -5.844  12.183  0.00  0.00    +0.324 C 
ATOM     21  C   UNL     1      -9.847  -6.648   7.989  0.00  0.00    +0.100 A 
ATOM     22  C   UNL     1     -10.871  -7.441   7.659  0.00  0.00    +0.030 A 
ENDROOT
BRANCH  21   9
ATOM      5  O   UNL     1      -8.381  -8.387   9.696  0.00  0.00    -0.252 OA
ATOM      9  N   UNL     1      -8.548  -7.030   7.824  0.00  0.00    -0.265 N 
ATOM     10  N   UNL     1      -6.556  -8.085   8.253  0.00  0.00    -0.266 N 
ATOM     24  C   UNL     1      -7.869  -7.891   8.696  0.00  0.00    +0.308 C 
ATOM     32  H   UNL     1      -7.983  -6.476   7.186  0.00  0.00    +0.157 HD
ATOM     34  H   UNL     1      -6.288  -7.607   7.397  0.00  0.00    +0.156 HD
BRANCH  10  25
ATOM     25  C   UNL     1      -5.547  -8.880   8.847  0.00  0.00    +0.077 A 
ATOM     26  C   UNL     1      -5.277 -10.145   8.347  0.00  0.00    +0.141 A 
ATOM     27  C   UNL     1      -4.845  -8.368   9.927  0.00  0.00    +0.027 A 
ATOM     28  C   UNL     1      -4.279 -10.917   8.943  0.00  0.00    +0.047 A 
ATOM     29  C   UNL     1      -3.848  -9.140  10.522  0.00  0.00    +0.002 A 
ATOM     30  C   UNL     1      -3.565 -10.415  10.030  0.00  0.00    +0.004 A 
BRANCH  26   6
ATOM      6  O   UNL     1      -5.963 -10.654   7.285  0.00  0.00    -0.493 OA
ATOM     31  C   UNL     1      -5.192 -11.110   6.175  0.00  0.00    +0.277 C 
ENDBRANCH  26   6
ENDBRANCH  10  25
ENDBRANCH  21   9
BRANCH  20  23
ATOM      4  O   UNL     1     -13.929  -5.279  14.363  0.00  0.00    -0.240 OA
ATOM     23  C   UNL     1     -13.042  -5.240  13.533  0.00  0.00    +0.392 C 
BRANCH  23   3
ATOM      3  O   UNL     1     -11.825  -4.691  13.645  0.00  0.00    -0.474 OA
ATOM     33  H   UNL     1     -11.438  -4.466  12.772  0.00  0.00    +0.296 HD
ENDBRANCH  23   3
ENDBRANCH  20  23
TORSDOF 5
ENDMDL
MODEL 8
REMARK VINA RESULT:      -6.3     33.043     34.568
REMARK  Name = 11884549
REMARK  6 active torsions:
REMARK  status: ('A' for Active; 'I' for Inactive)
REMARK    1  A    between atoms: O_3  and  C_23
REMARK    2  A    between atoms: O_6  and  C_26
REMARK    3  A    between atoms: O_6  and  C_31
REMARK    4  A    between atoms: N_9  and  C_21
REMARK    5  A    between atoms: N_10  and  C_25
REMARK    6  A    between atoms: C_20  and  C_23
REMARK                            x       y       z     vdW  Elec       q    Type
REMARK                         _______ _______ _______ _____ _____    ______ ____
ROOT
ATOM      1  O   UNL     1      -9.665  -7.095  38.733  0.00  0.00    -0.266 OA
ATOM      2  O   UNL     1      -7.996  -1.764  38.918  0.00  0.00    -0.263 OA
ATOM      7  N   UNL     1      -9.316  -5.555  40.455  0.00  0.00    -0.310 N 
ATOM      8  N   UNL     1      -9.642  -2.353  40.469  0.00  0.00    -0.291 N 
ATOM     11  C   UNL     1     -11.187  -4.088  41.402  0.00  0.00    +0.027 C 
ATOM     12  C   UNL     1      -8.905  -3.881  42.292  0.00  0.00    +0.054 C 
ATOM     13  C   UNL     1     -10.364  -4.104  42.684  0.00  0.00    +0.018 C 
ATOM     14  C   UNL     1     -10.754  -5.268  40.522  0.00  0.00    +0.130 C 
ATOM     15  C   UNL     1     -11.039  -2.741  40.671  0.00  0.00    +0.113 C 
ATOM     16  C   UNL     1      -8.761  -2.500  41.630  0.00  0.00    +0.118 C 
ATOM     17  C   UNL     1      -8.416  -4.962  41.346  0.00  0.00    +0.027 A 
ATOM     18  C   UNL     1      -7.124  -5.327  41.346  0.00  0.00    +0.024 A 
ATOM     19  C   UNL     1      -8.908  -6.533  39.524  0.00  0.00    +0.273 A 
ATOM     20  C   UNL     1      -9.155  -1.750  39.314  0.00  0.00    +0.324 C 
ATOM     21  C   UNL     1      -7.454  -6.894  39.539  0.00  0.00    +0.100 A 
ATOM     22  C   UNL     1      -6.636  -6.312  40.421  0.00  0.00    +0.030 A 
ENDROOT
BRANCH  21   9
ATOM      5  O   UNL     1      -7.463  -9.712  39.916  0.00  0.00    -0.252 OA
ATOM      9  N   UNL     1      -7.017  -7.826  38.644  0.00  0.00    -0.265 N 
ATOM     10  N   UNL     1      -6.527  -9.891  37.771  0.00  0.00    -0.266 N 
ATOM     24  C   UNL     1      -7.043  -9.207  38.878  0.00  0.00    +0.308 C 
ATOM     32  H   UNL     1      -6.427  -7.494  37.886  0.00  0.00    +0.157 HD
ATOM     34  H   UNL     1      -6.228  -9.322  36.983  0.00  0.00    +0.156 HD
BRANCH  10  25
ATOM     25  C   UNL     1      -6.379 -11.288  37.605  0.00  0.00    +0.077 A 
ATOM     26  C   UNL     1      -7.305 -11.999  36.857  0.00  0.00    +0.141 A 
ATOM     27  C   UNL     1      -5.298 -11.918  38.202  0.00  0.00    +0.027 A 
ATOM     28  C   UNL     1      -7.145 -13.376  36.701  0.00  0.00    +0.047 A 
ATOM     29  C   UNL     1      -5.139 -13.295  38.046  0.00  0.00    +0.002 A 
ATOM     30  C   UNL     1      -6.063 -14.024  37.297  0.00  0.00    +0.004 A 
BRANCH  26   6
ATOM      6  O   UNL     1      -8.369 -11.385  36.267  0.00  0.00    -0.493 OA
ATOM     31  C   UNL     1      -9.652 -11.621  36.842  0.00  0.00    +0.277 C 
ENDBRANCH  26   6
ENDBRANCH  10  25
ENDBRANCH  21   9
BRANCH  20  23
ATOM      4  O   UNL     1      -9.778   0.184  38.093  0.00  0.00    -0.240 OA
ATOM     23  C   UNL     1     -10.012  -0.973  38.382  0.00  0.00    +0.392 C 
BRANCH  23   3
ATOM      3  O   UNL     1     -11.015  -1.750  37.950  0.00  0.00    -0.474 OA
ATOM     33  H   UNL     1     -11.785  -1.226  37.643  0.00  0.00    +0.296 HD
ENDBRANCH  23   3
ENDBRANCH  20  23
TORSDOF 5
ENDMDL
MODEL 9
REMARK VINA RESULT:      -6.3     28.149     31.150
REMARK  Name = 11884549
REMARK  6 active torsions:
REMARK  status: ('A' for Active; 'I' for Inactive)
REMARK    1  A    between atoms: O_3  and  C_23
REMARK    2  A    between atoms: O_6  and  C_26
REMARK    3  A    between atoms: O_6  and  C_31
REMARK    4  A    between atoms: N_9  and  C_21
REMARK    5  A    between atoms: N_10  and  C_25
REMARK    6  A    between atoms: C_20  and  C_23
REMARK                            x       y       z     vdW  Elec       q    Type
REMARK                         _______ _______ _______ _____ _____    ______ ____
ROOT
ATOM      1  O   UNL     1      -5.086 -12.284  10.148  0.00  0.00    -0.266 OA
ATOM      2  O   UNL     1      -4.674 -10.297  15.355  0.00  0.00    -0.263 OA
ATOM      7  N   UNL     1      -3.368 -12.199  11.729  0.00  0.00    -0.310 N 
ATOM      8  N   UNL     1      -3.505 -12.278  14.944  0.00  0.00    -0.291 N 
ATOM     11  C   UNL     1      -2.887 -14.114  13.357  0.00  0.00    +0.027 C 
ATOM     12  C   UNL     1      -1.527 -12.069  13.444  0.00  0.00    +0.054 C 
ATOM     13  C   UNL     1      -1.457 -13.590  13.337  0.00  0.00    +0.018 C 
ATOM     14  C   UNL     1      -3.622 -13.592  12.116  0.00  0.00    +0.130 C 
ATOM     15  C   UNL     1      -3.602 -13.711  14.660  0.00  0.00    +0.113 C 
ATOM     16  C   UNL     1      -2.176 -11.681  14.784  0.00  0.00    +0.118 C 
ATOM     17  C   UNL     1      -2.318 -11.470  12.295  0.00  0.00    +0.027 A 
ATOM     18  C   UNL     1      -2.028 -10.239  11.842  0.00  0.00    +0.024 A 
ATOM     19  C   UNL     1      -4.163 -11.675  10.688  0.00  0.00    +0.273 A 
ATOM     20  C   UNL     1      -4.540 -11.510  15.464  0.00  0.00    +0.324 C 
ATOM     21  C   UNL     1      -3.824 -10.291  10.230  0.00  0.00    +0.100 A 
ATOM     22  C   UNL     1      -2.799  -9.639  10.789  0.00  0.00    +0.030 A 
ENDROOT
BRANCH  21   9
ATOM      5  O   UNL     1      -6.312  -8.953  10.557  0.00  0.00    -0.252 OA
ATOM      9  N   UNL     1      -4.579  -9.743   9.235  0.00  0.00    -0.265 N 
ATOM     10  N   UNL     1      -6.325  -8.645   8.230  0.00  0.00    -0.266 N 
ATOM     24  C   UNL     1      -5.801  -9.093   9.448  0.00  0.00    +0.308 C 
ATOM     32  H   UNL     1      -4.367 -10.033   8.284  0.00  0.00    +0.157 HD
ATOM     34  H   UNL     1      -5.771  -8.833   7.399  0.00  0.00    +0.156 HD
BRANCH  10  25
ATOM     25  C   UNL     1      -7.535  -7.945   8.010  0.00  0.00    +0.077 A 
ATOM     26  C   UNL     1      -8.643  -8.615   7.514  0.00  0.00    +0.141 A 
ATOM     27  C   UNL     1      -7.583  -6.590   8.300  0.00  0.00    +0.027 A 
ATOM     28  C   UNL     1      -9.829  -7.912   7.303  0.00  0.00    +0.047 A 
ATOM     29  C   UNL     1      -8.769  -5.888   8.087  0.00  0.00    +0.002 A 
ATOM     30  C   UNL     1      -9.892  -6.549   7.588  0.00  0.00    +0.004 A 
BRANCH  26   6
ATOM      6  O   UNL     1      -8.603  -9.947   7.228  0.00  0.00    -0.493 OA
ATOM     31  C   UNL     1      -8.650 -10.315   5.851  0.00  0.00    +0.277 C 
ENDBRANCH  26   6
ENDBRANCH  10  25
ENDBRANCH  21   9
BRANCH  20  23
ATOM      4  O   UNL     1      -5.520 -12.430  17.417  0.00  0.00    -0.240 OA
ATOM     23  C   UNL     1      -5.656 -12.085  16.260  0.00  0.00    +0.392 C 
BRANCH  23   3
ATOM      3  O   UNL     1      -6.760 -12.135  15.503  0.00  0.00    -0.474 OA
ATOM     33  H   UNL     1      -7.036 -11.248  15.190  0.00  0.00    +0.296 HD
ENDBRANCH  23   3
ENDBRANCH  20  23
TORSDOF 5
ENDMDL
MODEL 10
REMARK VINA RESULT:      -6.2      3.591     10.083
REMARK  Name = 11884549
REMARK  6 active torsions:
REMARK  status: ('A' for Active; 'I' for Inactive)
REMARK    1  A    between atoms: O_3  and  C_23
REMARK    2  A    between atoms: O_6  and  C_26
REMARK    3  A    between atoms: O_6  and  C_31
REMARK    4  A    between atoms: N_9  and  C_21
REMARK    5  A    between atoms: N_10  and  C_25
REMARK    6  A    between atoms: C_20  and  C_23
REMARK                            x       y       z     vdW  Elec       q    Type
REMARK                         _______ _______ _______ _____ _____    ______ ____
ROOT
ATOM      1  O   UNL     1      20.791   3.432  20.626  0.00  0.00    -0.266 OA
ATOM      2  O   UNL     1      23.560   4.730  25.304  0.00  0.00    -0.263 OA
ATOM      7  N   UNL     1      23.048   3.716  21.159  0.00  0.00    -0.310 N 
ATOM      8  N   UNL     1      24.611   3.168  23.919  0.00  0.00    -0.291 N 
ATOM     11  C   UNL     1      24.566   1.772  21.841  0.00  0.00    +0.027 C 
ATOM     12  C   UNL     1      25.472   4.055  21.757  0.00  0.00    +0.054 C 
ATOM     13  C   UNL     1      25.689   2.626  21.266  0.00  0.00    +0.018 C 
ATOM     14  C   UNL     1      23.230   2.264  21.271  0.00  0.00    +0.130 C 
ATOM     15  C   UNL     1      24.583   1.807  23.380  0.00  0.00    +0.113 C 
ATOM     16  C   UNL     1      25.566   4.087  23.292  0.00  0.00    +0.118 C 
ATOM     17  C   UNL     1      24.126   4.594  21.310  0.00  0.00    +0.027 A 
ATOM     18  C   UNL     1      23.964   5.909  21.085  0.00  0.00    +0.024 A 
ATOM     19  C   UNL     1      21.765   4.168  20.787  0.00  0.00    +0.273 A 
ATOM     20  C   UNL     1      23.900   3.582  25.039  0.00  0.00    +0.324 C 
ATOM     21  C   UNL     1      21.620   5.642  20.572  0.00  0.00    +0.100 A 
ATOM     22  C   UNL     1      22.683   6.441  20.711  0.00  0.00    +0.030 A 
ENDROOT
BRANCH  21   9
ATOM      5  O   UNL     1      19.648   6.647  22.358  0.00  0.00    -0.252 OA
ATOM      9  N   UNL     1      20.390   6.121  20.226  0.00  0.00    -0.265 N 
ATOM     10  N   UNL     1      18.295   7.021  20.477  0.00  0.00    -0.266 N 
ATOM     24  C   UNL     1      19.452   6.606  21.146  0.00  0.00    +0.308 C 
ATOM     32  H   UNL     1      20.051   5.888  19.296  0.00  0.00    +0.157 HD
ATOM     34  H   UNL     1      18.295   6.928  19.465  0.00  0.00    +0.156 HD
BRANCH  10  25
ATOM     25  C   UNL     1      17.117   7.569  21.038  0.00  0.00    +0.077 A 
ATOM     26  C   UNL     1      17.047   8.926  21.312  0.00  0.00    +0.141 A 
ATOM     27  C   UNL     1      16.049   6.725  21.302  0.00  0.00    +0.027 A 
ATOM     28  C   UNL     1      15.879   9.453  21.864  0.00  0.00    +0.047 A 
ATOM     29  C   UNL     1      14.882   7.252  21.854  0.00  0.00    +0.002 A 
ATOM     30  C   UNL     1      14.797   8.616  22.136  0.00  0.00    +0.004 A 
BRANCH  26   6
ATOM      6  O   UNL     1      18.093   9.762  21.055  0.00  0.00    -0.493 OA
ATOM     31  C   UNL     1      18.777  10.307  22.180  0.00  0.00    +0.277 C 
ENDBRANCH  26   6
ENDBRANCH  10  25
ENDBRANCH  21   9
BRANCH  20  23
ATOM      4  O   UNL     1      24.211   2.207  26.945  0.00  0.00    -0.240 OA
ATOM     23  C   UNL     1      23.452   2.651  26.106  0.00  0.00    +0.392 C 
BRANCH  23   3
ATOM      3  O   UNL     1      22.139   2.421  25.971  0.00  0.00    -0.474 OA
ATOM     33  H   UNL     1      21.860   1.589  26.409  0.00  0.00    +0.296 HD
ENDBRANCH  23   3
ENDBRANCH  20  23
TORSDOF 5
ENDMDL
