MODEL 1
REMARK VINA RESULT:      -6.6      0.000      0.000
REMARK  Name = 40776907
REMARK  11 active torsions:
REMARK  status: ('A' for Active; 'I' for Inactive)
REMARK    1  A    between atoms: O_2  and  C_26
REMARK    2  A    between atoms: O_2  and  C_32
REMARK    3  A    between atoms: O_3  and  C_30
REMARK    4  A    between atoms: N_6  and  C_16
REMARK    5  A    between atoms: C_10  and  C_17
REMARK    6  A    between atoms: C_11  and  C_16
REMARK    7  A    between atoms: C_19  and  C_23
REMARK    8  A    between atoms: C_20  and  C_22
REMARK    9  A    between atoms: C_21  and  C_24
REMARK   10  A    between atoms: C_22  and  C_25
REMARK   11  A    between atoms: C_25  and  C_30
REMARK                            x       y       z     vdW  Elec       q    Type
REMARK                         _______ _______ _______ _____ _____    ______ ____
ROOT
ATOM      5  N   UNL     1      11.925  11.470  24.861  0.00  0.00    -0.297 NA
ATOM      9  C   UNL     1      11.301  12.048  22.399  0.00  0.00    +0.002 C 
ATOM     10  C   UNL     1      10.829  10.612  22.757  0.00  0.00    +0.055 C 
ATOM     11  C   UNL     1      13.114  12.007  24.148  0.00  0.00    +0.074 C 
ATOM     12  C   UNL     1      12.821  12.161  22.640  0.00  0.00    +0.024 C 
ATOM     13  C   UNL     1      10.613  13.005  23.397  0.00  0.00    +0.019 C 
ATOM     14  C   UNL     1      11.410  10.269  24.159  0.00  0.00    +0.094 C 
ATOM     15  C   UNL     1      10.870  12.511  24.832  0.00  0.00    +0.085 C 
ENDROOT
BRANCH  10  17
ATOM      7  N   UNL     1      11.081   8.239  22.221  0.00  0.00    -0.237 NA
ATOM      8  N   UNL     1      11.508   7.469  19.977  0.00  0.00    -0.232 NA
ATOM     17  C   UNL     1      11.072   9.502  21.744  0.00  0.00    +0.050 A 
ATOM     18  C   UNL     1      11.272   9.824  20.418  0.00  0.00    +0.052 A 
ATOM     19  C   UNL     1      11.487   8.755  19.570  0.00  0.00    +0.078 A 
ATOM     21  C   UNL     1      11.301   7.286  21.295  0.00  0.00    +0.127 A 
ATOM     24  C   UNL     1      11.319   5.877  21.783  0.00  0.00    +0.088 C 
BRANCH  19  23
ATOM     23  C   UNL     1      11.710   8.956  18.159  0.00  0.00    +0.042 A 
ATOM     26  C   UNL     1      12.955   9.367  17.682  0.00  0.00    +0.129 A 
ATOM     27  C   UNL     1      10.660   8.735  17.268  0.00  0.00    +0.013 A 
ATOM     28  C   UNL     1      13.150   9.556  16.314  0.00  0.00    +0.046 A 
ATOM     29  C   UNL     1      10.855   8.925  15.899  0.00  0.00    +0.001 A 
ATOM     31  C   UNL     1      12.100   9.335  15.422  0.00  0.00    +0.004 A 
BRANCH  26   2
ATOM      2  O   UNL     1      13.999   9.590  18.530  0.00  0.00    -0.494 OA
ATOM     32  C   UNL     1      14.535  10.911  18.561  0.00  0.00    +0.277 C 
ENDBRANCH  26   2
ENDBRANCH  19  23
ENDBRANCH  10  17
BRANCH  11  16
ATOM     16  C   UNL     1      14.371  11.174  24.404  0.00  0.00    +0.123 C 
BRANCH  16   6
ATOM      1  O   UNL     1      16.749  11.158  22.756  0.00  0.00    -0.276 OA
ATOM      6  N   UNL     1      14.649  10.315  23.293  0.00  0.00    -0.314 N 
ATOM     20  C   UNL     1      15.827  10.374  22.548  0.00  0.00    +0.214 C 
ATOM     33  H   UNL     1      13.944   9.630  23.037  0.00  0.00    +0.149 HD
BRANCH  20  22
ATOM     22  C   UNL     1      15.846   9.347  21.431  0.00  0.00    +0.107 C 
BRANCH  22  25
ATOM     25  C   UNL     1      14.862   8.206  21.670  0.00  0.00    +0.129 C 
BRANCH  25  30
ATOM      4  O   UNL     1      16.121   6.176  21.210  0.00  0.00    -0.251 OA
ATOM     30  C   UNL     1      15.239   6.963  20.899  0.00  0.00    +0.305 C 
BRANCH  30   3
ATOM      3  O   UNL     1      14.468   6.813  19.791  0.00  0.00    -0.481 OA
ATOM     34  H   UNL     1      13.518   6.964  19.982  0.00  0.00    +0.295 HD
ENDBRANCH  30   3
ENDBRANCH  25  30
ENDBRANCH  22  25
ENDBRANCH  20  22
ENDBRANCH  16   6
ENDBRANCH  11  16
TORSDOF 9
ENDMDL
MODEL 2
REMARK VINA RESULT:      -6.5     13.728     17.292
REMARK  Name = 40776907
REMARK  11 active torsions:
REMARK  status: ('A' for Active; 'I' for Inactive)
REMARK    1  A    between atoms: O_2  and  C_26
REMARK    2  A    between atoms: O_2  and  C_32
REMARK    3  A    between atoms: O_3  and  C_30
REMARK    4  A    between atoms: N_6  and  C_16
REMARK    5  A    between atoms: C_10  and  C_17
REMARK    6  A    between atoms: C_11  and  C_16
REMARK    7  A    between atoms: C_19  and  C_23
REMARK    8  A    between atoms: C_20  and  C_22
REMARK    9  A    between atoms: C_21  and  C_24
REMARK   10  A    between atoms: C_22  and  C_25
REMARK   11  A    between atoms: C_25  and  C_30
REMARK                            x       y       z     vdW  Elec       q    Type
REMARK                         _______ _______ _______ _____ _____    ______ ____
ROOT
ATOM      5  N   UNL     1      13.291   9.965   5.618  0.00  0.00    -0.297 NA
ATOM      9  C   UNL     1      14.130   7.511   5.865  0.00  0.00    +0.002 C 
ATOM     10  C   UNL     1      13.473   7.723   4.473  0.00  0.00    +0.055 C 
ATOM     11  C   UNL     1      12.806   9.388   6.900  0.00  0.00    +0.074 C 
ATOM     12  C   UNL     1      13.116   7.877   6.969  0.00  0.00    +0.024 C 
ATOM     13  C   UNL     1      15.294   8.520   5.966  0.00  0.00    +0.019 C 
ATOM     14  C   UNL     1      12.823   9.137   4.479  0.00  0.00    +0.094 C 
ATOM     15  C   UNL     1      14.773   9.930   5.636  0.00  0.00    +0.085 C 
ENDROOT
BRANCH  10  17
ATOM      7  N   UNL     1      11.539   6.261   4.793  0.00  0.00    -0.237 NA
ATOM      8  N   UNL     1      10.789   4.733   3.087  0.00  0.00    -0.232 NA
ATOM     17  C   UNL     1      12.522   6.653   3.956  0.00  0.00    +0.050 A 
ATOM     18  C   UNL     1      12.701   6.139   2.689  0.00  0.00    +0.052 A 
ATOM     19  C   UNL     1      11.795   5.171   2.303  0.00  0.00    +0.078 A 
ATOM     21  C   UNL     1      10.720   5.312   4.302  0.00  0.00    +0.127 A 
ATOM     24  C   UNL     1       9.621   4.851   5.198  0.00  0.00    +0.088 C 
BRANCH  19  23
ATOM     23  C   UNL     1      11.873   4.553   1.001  0.00  0.00    +0.042 A 
ATOM     26  C   UNL     1      12.809   3.554   0.739  0.00  0.00    +0.129 A 
ATOM     27  C   UNL     1      10.996   4.968  -0.001  0.00  0.00    +0.013 A 
ATOM     28  C   UNL     1      12.869   2.969  -0.526  0.00  0.00    +0.046 A 
ATOM     29  C   UNL     1      11.055   4.383  -1.266  0.00  0.00    +0.001 A 
ATOM     31  C   UNL     1      11.992   3.384  -1.529  0.00  0.00    +0.004 A 
BRANCH  26   2
ATOM      2  O   UNL     1      13.679   3.128   1.699  0.00  0.00    -0.494 OA
ATOM     32  C   UNL     1      15.046   3.498   1.542  0.00  0.00    +0.277 C 
ENDBRANCH  26   2
ENDBRANCH  19  23
ENDBRANCH  10  17
BRANCH  11  16
ATOM     16  C   UNL     1      11.324   9.678   7.145  0.00  0.00    +0.123 C 
BRANCH  16   6
ATOM      1  O   UNL     1       8.602   8.826   6.660  0.00  0.00    -0.276 OA
ATOM      6  N   UNL     1      10.664   8.534   7.696  0.00  0.00    -0.314 N 
ATOM     20  C   UNL     1       9.342   8.193   7.408  0.00  0.00    +0.214 C 
ATOM     33  H   UNL     1      11.192   7.945   8.332  0.00  0.00    +0.149 HD
BRANCH  20  22
ATOM     22  C   UNL     1       8.908   6.933   8.135  0.00  0.00    +0.107 C 
BRANCH  22  25
ATOM     25  C   UNL     1      10.089   6.059   8.544  0.00  0.00    +0.129 C 
BRANCH  25  30
ATOM      4  O   UNL     1       8.802   4.540   9.943  0.00  0.00    -0.251 OA
ATOM     30  C   UNL     1       9.643   4.716   9.072  0.00  0.00    +0.305 C 
BRANCH  30   3
ATOM      3  O   UNL     1      10.296   3.697   8.455  0.00  0.00    -0.481 OA
ATOM     34  H   UNL     1      10.631   3.035   9.096  0.00  0.00    +0.295 HD
ENDBRANCH  30   3
ENDBRANCH  25  30
ENDBRANCH  22  25
ENDBRANCH  20  22
ENDBRANCH  16   6
ENDBRANCH  11  16
TORSDOF 9
ENDMDL
MODEL 3
REMARK VINA RESULT:      -6.2      2.471      4.900
REMARK  Name = 40776907
REMARK  11 active torsions:
REMARK  status: ('A' for Active; 'I' for Inactive)
REMARK    1  A    between atoms: O_2  and  C_26
REMARK    2  A    between atoms: O_2  and  C_32
REMARK    3  A    between atoms: O_3  and  C_30
REMARK    4  A    between atoms: N_6  and  C_16
REMARK    5  A    between atoms: C_10  and  C_17
REMARK    6  A    between atoms: C_11  and  C_16
REMARK    7  A    between atoms: C_19  and  C_23
REMARK    8  A    between atoms: C_20  and  C_22
REMARK    9  A    between atoms: C_21  and  C_24
REMARK   10  A    between atoms: C_22  and  C_25
REMARK   11  A    between atoms: C_25  and  C_30
REMARK                            x       y       z     vdW  Elec       q    Type
REMARK                         _______ _______ _______ _____ _____    ______ ____
ROOT
ATOM      5  N   UNL     1      14.396  13.666  20.654  0.00  0.00    -0.297 NA
ATOM      9  C   UNL     1      12.515  12.321  21.853  0.00  0.00    +0.002 C 
ATOM     10  C   UNL     1      13.862  11.549  21.919  0.00  0.00    +0.055 C 
ATOM     11  C   UNL     1      13.203  13.566  19.773  0.00  0.00    +0.074 C 
ATOM     12  C   UNL     1      12.159  12.602  20.378  0.00  0.00    +0.024 C 
ATOM     13  C   UNL     1      12.752  13.689  22.530  0.00  0.00    +0.019 C 
ATOM     14  C   UNL     1      14.876  12.310  21.017  0.00  0.00    +0.094 C 
ATOM     15  C   UNL     1      13.985  14.359  21.898  0.00  0.00    +0.085 C 
ENDROOT
BRANCH  10  17
ATOM      7  N   UNL     1      12.703   9.395  21.918  0.00  0.00    -0.237 NA
ATOM      8  N   UNL     1      13.763   7.369  21.157  0.00  0.00    -0.232 NA
ATOM     17  C   UNL     1      13.847  10.054  21.637  0.00  0.00    +0.050 A 
ATOM     18  C   UNL     1      14.975   9.448  21.122  0.00  0.00    +0.052 A 
ATOM     19  C   UNL     1      14.874   8.089  20.900  0.00  0.00    +0.078 A 
ATOM     21  C   UNL     1      12.731   8.074  21.657  0.00  0.00    +0.127 A 
ATOM     24  C   UNL     1      11.485   7.312  21.956  0.00  0.00    +0.088 C 
BRANCH  19  23
ATOM     23  C   UNL     1      15.983   7.337  20.365  0.00  0.00    +0.042 A 
ATOM     26  C   UNL     1      17.265   7.474  20.898  0.00  0.00    +0.129 A 
ATOM     27  C   UNL     1      15.761   6.464  19.300  0.00  0.00    +0.013 A 
ATOM     28  C   UNL     1      18.324   6.739  20.366  0.00  0.00    +0.046 A 
ATOM     29  C   UNL     1      16.820   5.728  18.768  0.00  0.00    +0.001 A 
ATOM     31  C   UNL     1      18.102   5.865  19.301  0.00  0.00    +0.004 A 
BRANCH  26   2
ATOM      2  O   UNL     1      17.512   8.320  21.938  0.00  0.00    -0.494 OA
ATOM     32  C   UNL     1      18.835   8.839  22.050  0.00  0.00    +0.277 C 
ENDBRANCH  26   2
ENDBRANCH  19  23
ENDBRANCH  10  17
BRANCH  11  16
ATOM     16  C   UNL     1      13.568  13.183  18.338  0.00  0.00    +0.123 C 
BRANCH  16   6
ATOM      1  O   UNL     1      14.715  11.610  16.198  0.00  0.00    -0.276 OA
ATOM      6  N   UNL     1      13.442  11.772  18.138  0.00  0.00    -0.314 N 
ATOM     20  C   UNL     1      14.030  11.088  17.074  0.00  0.00    +0.214 C 
ATOM     33  H   UNL     1      12.890  11.247  18.810  0.00  0.00    +0.149 HD
BRANCH  20  22
ATOM     22  C   UNL     1      13.726   9.601  17.114  0.00  0.00    +0.107 C 
BRANCH  22  25
ATOM     25  C   UNL     1      12.631   9.257  18.119  0.00  0.00    +0.129 C 
BRANCH  25  30
ATOM      4  O   UNL     1      10.971   7.977  16.883  0.00  0.00    -0.251 OA
ATOM     30  C   UNL     1      11.864   8.019  17.718  0.00  0.00    +0.305 C 
BRANCH  30   3
ATOM      3  O   UNL     1      12.289   6.927  18.405  0.00  0.00    -0.481 OA
ATOM     34  H   UNL     1      12.977   7.155  19.067  0.00  0.00    +0.295 HD
ENDBRANCH  30   3
ENDBRANCH  25  30
ENDBRANCH  22  25
ENDBRANCH  20  22
ENDBRANCH  16   6
ENDBRANCH  11  16
TORSDOF 9
ENDMDL
MODEL 4
REMARK VINA RESULT:      -6.0      2.248      4.848
REMARK  Name = 40776907
REMARK  11 active torsions:
REMARK  status: ('A' for Active; 'I' for Inactive)
REMARK    1  A    between atoms: O_2  and  C_26
REMARK    2  A    between atoms: O_2  and  C_32
REMARK    3  A    between atoms: O_3  and  C_30
REMARK    4  A    between atoms: N_6  and  C_16
REMARK    5  A    between atoms: C_10  and  C_17
REMARK    6  A    between atoms: C_11  and  C_16
REMARK    7  A    between atoms: C_19  and  C_23
REMARK    8  A    between atoms: C_20  and  C_22
REMARK    9  A    between atoms: C_21  and  C_24
REMARK   10  A    between atoms: C_22  and  C_25
REMARK   11  A    between atoms: C_25  and  C_30
REMARK                            x       y       z     vdW  Elec       q    Type
REMARK                         _______ _______ _______ _____ _____    ______ ____
ROOT
ATOM      5  N   UNL     1      10.968  12.554  22.855  0.00  0.00    -0.297 NA
ATOM      9  C   UNL     1      13.564  12.771  22.886  0.00  0.00    +0.002 C 
ATOM     10  C   UNL     1      13.049  12.619  21.428  0.00  0.00    +0.055 C 
ATOM     11  C   UNL     1      11.546  11.602  23.839  0.00  0.00    +0.074 C 
ATOM     12  C   UNL     1      13.086  11.568  23.725  0.00  0.00    +0.024 C 
ATOM     13  C   UNL     1      12.884  14.029  23.469  0.00  0.00    +0.019 C 
ATOM     14  C   UNL     1      11.529  12.294  21.506  0.00  0.00    +0.094 C 
ATOM     15  C   UNL     1      11.363  13.924  23.263  0.00  0.00    +0.085 C 
ENDROOT
BRANCH  10  17
ATOM      7  N   UNL     1      13.530  11.787  19.180  0.00  0.00    -0.237 NA
ATOM      8  N   UNL     1      15.096  10.000  18.780  0.00  0.00    -0.232 NA
ATOM     17  C   UNL     1      13.794  11.673  20.498  0.00  0.00    +0.050 A 
ATOM     18  C   UNL     1      14.683  10.760  21.026  0.00  0.00    +0.052 A 
ATOM     19  C   UNL     1      15.312   9.940  20.110  0.00  0.00    +0.078 A 
ATOM     21  C   UNL     1      14.206  10.932  18.389  0.00  0.00    +0.127 A 
ATOM     24  C   UNL     1      13.940  11.026  16.925  0.00  0.00    +0.088 C 
BRANCH  19  23
ATOM     23  C   UNL     1      16.265   8.942  20.534  0.00  0.00    +0.042 A 
ATOM     26  C   UNL     1      17.553   9.304  20.928  0.00  0.00    +0.129 A 
ATOM     27  C   UNL     1      15.883   7.601  20.545  0.00  0.00    +0.013 A 
ATOM     28  C   UNL     1      18.459   8.325  21.334  0.00  0.00    +0.046 A 
ATOM     29  C   UNL     1      16.789   6.621  20.951  0.00  0.00    +0.001 A 
ATOM     31  C   UNL     1      18.077   6.983  21.345  0.00  0.00    +0.004 A 
BRANCH  26   2
ATOM      2  O   UNL     1      17.954  10.607  20.927  0.00  0.00    -0.494 OA
ATOM     32  C   UNL     1      18.262  11.190  22.190  0.00  0.00    +0.277 C 
ENDBRANCH  26   2
ENDBRANCH  19  23
ENDBRANCH  10  17
BRANCH  11  16
ATOM     16  C   UNL     1      10.935  10.204  23.726  0.00  0.00    +0.123 C 
BRANCH  16   6
ATOM      1  O   UNL     1      10.107   7.721  22.495  0.00  0.00    -0.276 OA
ATOM      6  N   UNL     1      11.696   9.385  22.834  0.00  0.00    -0.314 N 
ATOM     20  C   UNL     1      11.219   8.196  22.282  0.00  0.00    +0.214 C 
ATOM     33  H   UNL     1      12.635   9.691  22.596  0.00  0.00    +0.149 HD
BRANCH  20  22
ATOM     22  C   UNL     1      12.244   7.538  21.375  0.00  0.00    +0.107 C 
BRANCH  22  25
ATOM     25  C   UNL     1      12.246   8.132  19.970  0.00  0.00    +0.129 C 
BRANCH  25  30
ATOM      4  O   UNL     1      12.173   7.265  17.698  0.00  0.00    -0.251 OA
ATOM     30  C   UNL     1      12.178   7.064  18.904  0.00  0.00    +0.305 C 
BRANCH  30   3
ATOM      3  O   UNL     1      12.123   5.821  19.450  0.00  0.00    -0.481 OA
ATOM     34  H   UNL     1      12.960   5.327  19.322  0.00  0.00    +0.295 HD
ENDBRANCH  30   3
ENDBRANCH  25  30
ENDBRANCH  22  25
ENDBRANCH  20  22
ENDBRANCH  16   6
ENDBRANCH  11  16
TORSDOF 9
ENDMDL
MODEL 5
REMARK VINA RESULT:      -6.0     15.069     18.306
REMARK  Name = 40776907
REMARK  11 active torsions:
REMARK  status: ('A' for Active; 'I' for Inactive)
REMARK    1  A    between atoms: O_2  and  C_26
REMARK    2  A    between atoms: O_2  and  C_32
REMARK    3  A    between atoms: O_3  and  C_30
REMARK    4  A    between atoms: N_6  and  C_16
REMARK    5  A    between atoms: C_10  and  C_17
REMARK    6  A    between atoms: C_11  and  C_16
REMARK    7  A    between atoms: C_19  and  C_23
REMARK    8  A    between atoms: C_20  and  C_22
REMARK    9  A    between atoms: C_21  and  C_24
REMARK   10  A    between atoms: C_22  and  C_25
REMARK   11  A    between atoms: C_25  and  C_30
REMARK                            x       y       z     vdW  Elec       q    Type
REMARK                         _______ _______ _______ _____ _____    ______ ____
ROOT
ATOM      5  N   UNL     1       9.463   5.134   6.014  0.00  0.00    -0.297 NA
ATOM      9  C   UNL     1      10.491   7.338   6.947  0.00  0.00    +0.002 C 
ATOM     10  C   UNL     1       8.988   7.540   6.608  0.00  0.00    +0.055 C 
ATOM     11  C   UNL     1      10.724   5.451   5.294  0.00  0.00    +0.074 C 
ATOM     12  C   UNL     1      11.237   6.853   5.687  0.00  0.00    +0.024 C 
ATOM     13  C   UNL     1      10.564   6.196   7.984  0.00  0.00    +0.019 C 
ATOM     14  C   UNL     1       8.502   6.256   5.875  0.00  0.00    +0.094 C 
ATOM     15  C   UNL     1       9.788   4.978   7.452  0.00  0.00    +0.085 C 
ENDROOT
BRANCH  10  17
ATOM      7  N   UNL     1       9.086   9.970   6.349  0.00  0.00    -0.237 NA
ATOM      8  N   UNL     1       7.881  11.124   4.611  0.00  0.00    -0.232 NA
ATOM     17  C   UNL     1       8.580   8.811   5.877  0.00  0.00    +0.050 A 
ATOM     18  C   UNL     1       7.730   8.729   4.794  0.00  0.00    +0.052 A 
ATOM     19  C   UNL     1       7.412   9.931   4.193  0.00  0.00    +0.078 A 
ATOM     21  C   UNL     1       8.701  11.072   5.678  0.00  0.00    +0.127 A 
ATOM     24  C   UNL     1       9.238  12.372   6.170  0.00  0.00    +0.088 C 
BRANCH  19  23
ATOM     23  C   UNL     1       6.532   9.983   3.050  0.00  0.00    +0.042 A 
ATOM     26  C   UNL     1       5.235  10.481   3.167  0.00  0.00    +0.129 A 
ATOM     27  C   UNL     1       6.995   9.526   1.816  0.00  0.00    +0.013 A 
ATOM     28  C   UNL     1       4.400  10.523   2.051  0.00  0.00    +0.046 A 
ATOM     29  C   UNL     1       6.160   9.568   0.699  0.00  0.00    +0.001 A 
ATOM     31  C   UNL     1       4.862  10.066   0.816  0.00  0.00    +0.004 A 
BRANCH  26   2
ATOM      2  O   UNL     1       4.756  10.934   4.361  0.00  0.00    -0.494 OA
ATOM     32  C   UNL     1       3.981  12.130   4.335  0.00  0.00    +0.277 C 
ENDBRANCH  26   2
ENDBRANCH  19  23
ENDBRANCH  10  17
BRANCH  11  16
ATOM     16  C   UNL     1      10.584   5.299   3.778  0.00  0.00    +0.123 C 
BRANCH  16   6
ATOM      1  O   UNL     1      10.666   4.039   1.176  0.00  0.00    -0.276 OA
ATOM      6  N   UNL     1      11.627   4.476   3.248  0.00  0.00    -0.314 N 
ATOM     20  C   UNL     1      11.587   3.904   1.977  0.00  0.00    +0.214 C 
ATOM     33  H   UNL     1      12.435   4.300   3.837  0.00  0.00    +0.149 HD
BRANCH  20  22
ATOM     22  C   UNL     1      12.828   3.079   1.684  0.00  0.00    +0.107 C 
BRANCH  22  25
ATOM     25  C   UNL     1      13.708   3.710   0.610  0.00  0.00    +0.129 C 
BRANCH  25  30
ATOM      4  O   UNL     1      16.094   4.063   0.285  0.00  0.00    -0.251 OA
ATOM     30  C   UNL     1      15.168   3.695   0.995  0.00  0.00    +0.305 C 
BRANCH  30   3
ATOM      3  O   UNL     1      15.345   3.214   2.253  0.00  0.00    -0.481 OA
ATOM     34  H   UNL     1      15.338   2.234   2.275  0.00  0.00    +0.295 HD
ENDBRANCH  30   3
ENDBRANCH  25  30
ENDBRANCH  22  25
ENDBRANCH  20  22
ENDBRANCH  16   6
ENDBRANCH  11  16
TORSDOF 9
ENDMDL
MODEL 6
REMARK VINA RESULT:      -5.8     25.947     29.311
REMARK  Name = 40776907
REMARK  11 active torsions:
REMARK  status: ('A' for Active; 'I' for Inactive)
REMARK    1  A    between atoms: O_2  and  C_26
REMARK    2  A    between atoms: O_2  and  C_32
REMARK    3  A    between atoms: O_3  and  C_30
REMARK    4  A    between atoms: N_6  and  C_16
REMARK    5  A    between atoms: C_10  and  C_17
REMARK    6  A    between atoms: C_11  and  C_16
REMARK    7  A    between atoms: C_19  and  C_23
REMARK    8  A    between atoms: C_20  and  C_22
REMARK    9  A    between atoms: C_21  and  C_24
REMARK   10  A    between atoms: C_22  and  C_25
REMARK   11  A    between atoms: C_25  and  C_30
REMARK                            x       y       z     vdW  Elec       q    Type
REMARK                         _______ _______ _______ _____ _____    ______ ____
ROOT
ATOM      5  N   UNL     1      -6.872 -11.204  11.271  0.00  0.00    -0.297 NA
ATOM      9  C   UNL     1      -4.973  -9.506  11.817  0.00  0.00    +0.002 C 
ATOM     10  C   UNL     1      -4.684 -10.878  12.485  0.00  0.00    +0.055 C 
ATOM     11  C   UNL     1      -7.456  -9.929  11.766  0.00  0.00    +0.074 C 
ATOM     12  C   UNL     1      -6.349  -8.989  12.287  0.00  0.00    +0.024 C 
ATOM     13  C   UNL     1      -5.082  -9.764  10.298  0.00  0.00    +0.019 C 
ATOM     14  C   UNL     1      -5.946 -11.766  12.285  0.00  0.00    +0.094 C 
ATOM     15  C   UNL     1      -6.089 -10.901  10.049  0.00  0.00    +0.085 C 
ENDROOT
BRANCH  10  17
ATOM      7  N   UNL     1      -2.887 -10.620  14.124  0.00  0.00    -0.237 NA
ATOM      8  N   UNL     1      -3.258 -10.893  16.489  0.00  0.00    -0.232 NA
ATOM     17  C   UNL     1      -4.195 -10.887  13.926  0.00  0.00    +0.050 A 
ATOM     18  C   UNL     1      -5.084 -11.164  14.945  0.00  0.00    +0.052 A 
ATOM     19  C   UNL     1      -4.553 -11.153  16.219  0.00  0.00    +0.078 A 
ATOM     21  C   UNL     1      -2.492 -10.639  15.411  0.00  0.00    +0.127 A 
ATOM     24  C   UNL     1      -1.052 -10.350  15.670  0.00  0.00    +0.088 C 
BRANCH  19  23
ATOM     23  C   UNL     1      -5.378 -11.427  17.372  0.00  0.00    +0.042 A 
ATOM     26  C   UNL     1      -6.259 -12.508  17.381  0.00  0.00    +0.129 A 
ATOM     27  C   UNL     1      -5.285 -10.594  18.487  0.00  0.00    +0.013 A 
ATOM     28  C   UNL     1      -7.048 -12.756  18.504  0.00  0.00    +0.046 A 
ATOM     29  C   UNL     1      -6.074 -10.841  19.611  0.00  0.00    +0.001 A 
ATOM     31  C   UNL     1      -6.955 -11.922  19.619  0.00  0.00    +0.004 A 
BRANCH  26   2
ATOM      2  O   UNL     1      -6.371 -13.338  16.305  0.00  0.00    -0.494 OA
ATOM     32  C   UNL     1      -6.749 -14.688  16.567  0.00  0.00    +0.277 C 
ENDBRANCH  26   2
ENDBRANCH  19  23
ENDBRANCH  10  17
BRANCH  11  16
ATOM     16  C   UNL     1      -8.550 -10.157  12.810  0.00  0.00    +0.123 C 
BRANCH  16   6
ATOM      1  O   UNL     1      -8.923 -11.199  15.483  0.00  0.00    -0.276 OA
ATOM      6  N   UNL     1      -8.221  -9.512  14.044  0.00  0.00    -0.314 N 
ATOM     20  C   UNL     1      -8.435 -10.088  15.296  0.00  0.00    +0.214 C 
ATOM     33  H   UNL     1      -7.812  -8.584  13.997  0.00  0.00    +0.149 HD
BRANCH  20  22
ATOM     22  C   UNL     1      -7.991  -9.175  16.426  0.00  0.00    +0.107 C 
BRANCH  22  25
ATOM     25  C   UNL     1      -8.933  -9.230  17.625  0.00  0.00    +0.129 C 
BRANCH  25  30
ATOM      4  O   UNL     1     -11.323  -9.081  17.196  0.00  0.00    -0.251 OA
ATOM     30  C   UNL     1     -10.242  -8.530  17.348  0.00  0.00    +0.305 C 
BRANCH  30   3
ATOM      3  O   UNL     1     -10.080  -7.182  17.284  0.00  0.00    -0.481 OA
ATOM     34  H   UNL     1      -9.690  -6.821  18.108  0.00  0.00    +0.295 HD
ENDBRANCH  30   3
ENDBRANCH  25  30
ENDBRANCH  22  25
ENDBRANCH  20  22
ENDBRANCH  16   6
ENDBRANCH  11  16
TORSDOF 9
ENDMDL
MODEL 7
REMARK VINA RESULT:      -5.8      1.923      3.788
REMARK  Name = 40776907
REMARK  11 active torsions:
REMARK  status: ('A' for Active; 'I' for Inactive)
REMARK    1  A    between atoms: O_2  and  C_26
REMARK    2  A    between atoms: O_2  and  C_32
REMARK    3  A    between atoms: O_3  and  C_30
REMARK    4  A    between atoms: N_6  and  C_16
REMARK    5  A    between atoms: C_10  and  C_17
REMARK    6  A    between atoms: C_11  and  C_16
REMARK    7  A    between atoms: C_19  and  C_23
REMARK    8  A    between atoms: C_20  and  C_22
REMARK    9  A    between atoms: C_21  and  C_24
REMARK   10  A    between atoms: C_22  and  C_25
REMARK   11  A    between atoms: C_25  and  C_30
REMARK                            x       y       z     vdW  Elec       q    Type
REMARK                         _______ _______ _______ _____ _____    ______ ____
ROOT
ATOM      5  N   UNL     1      10.649  12.221  22.746  0.00  0.00    -0.297 NA
ATOM      9  C   UNL     1      13.099  12.464  23.600  0.00  0.00    +0.002 C 
ATOM     10  C   UNL     1      13.037  12.668  22.060  0.00  0.00    +0.055 C 
ATOM     11  C   UNL     1      11.004  11.065  23.611  0.00  0.00    +0.074 C 
ATOM     12  C   UNL     1      12.508  11.084  23.956  0.00  0.00    +0.024 C 
ATOM     13  C   UNL     1      12.172  13.529  24.227  0.00  0.00    +0.019 C 
ATOM     14  C   UNL     1      11.592  12.311  21.604  0.00  0.00    +0.094 C 
ATOM     15  C   UNL     1      10.789  13.454  23.558  0.00  0.00    +0.085 C 
ENDROOT
BRANCH  10  17
ATOM      7  N   UNL     1      15.378  12.128  21.605  0.00  0.00    -0.237 NA
ATOM      8  N   UNL     1      16.043  10.808  19.702  0.00  0.00    -0.232 NA
ATOM     17  C   UNL     1      14.096  11.993  21.203  0.00  0.00    +0.050 A 
ATOM     18  C   UNL     1      13.715  11.292  20.077  0.00  0.00    +0.052 A 
ATOM     19  C   UNL     1      14.742  10.714  19.358  0.00  0.00    +0.078 A 
ATOM     21  C   UNL     1      16.286  11.518  20.819  0.00  0.00    +0.127 A 
ATOM     24  C   UNL     1      17.713  11.646  21.230  0.00  0.00    +0.088 C 
BRANCH  19  23
ATOM     23  C   UNL     1      14.477   9.953  18.160  0.00  0.00    +0.042 A 
ATOM     26  C   UNL     1      14.497  10.564  16.906  0.00  0.00    +0.129 A 
ATOM     27  C   UNL     1      14.198   8.591  18.268  0.00  0.00    +0.013 A 
ATOM     28  C   UNL     1      14.238   9.812  15.760  0.00  0.00    +0.046 A 
ATOM     29  C   UNL     1      13.938   7.839  17.122  0.00  0.00    +0.001 A 
ATOM     31  C   UNL     1      13.958   8.449  15.868  0.00  0.00    +0.004 A 
BRANCH  26   2
ATOM      2  O   UNL     1      14.767  11.893  16.770  0.00  0.00    -0.494 OA
ATOM     32  C   UNL     1      15.875  12.247  15.945  0.00  0.00    +0.277 C 
ENDBRANCH  26   2
ENDBRANCH  19  23
ENDBRANCH  10  17
BRANCH  11  16
ATOM     16  C   UNL     1      10.576   9.729  23.000  0.00  0.00    +0.123 C 
BRANCH  16   6
ATOM      1  O   UNL     1      10.856   7.847  20.821  0.00  0.00    -0.276 OA
ATOM      6  N   UNL     1      11.715   8.917  22.700  0.00  0.00    -0.314 N 
ATOM     20  C   UNL     1      11.767   8.030  21.624  0.00  0.00    +0.214 C 
ATOM     33  H   UNL     1      12.523   8.993  23.309  0.00  0.00    +0.149 HD
BRANCH  20  22
ATOM     22  C   UNL     1      13.097   7.301  21.551  0.00  0.00    +0.107 C 
BRANCH  22  25
ATOM     25  C   UNL     1      14.266   8.174  21.996  0.00  0.00    +0.129 C 
BRANCH  25  30
ATOM      4  O   UNL     1      15.748   6.586  20.899  0.00  0.00    -0.251 OA
ATOM     30  C   UNL     1      15.594   7.610  21.550  0.00  0.00    +0.305 C 
BRANCH  30   3
ATOM      3  O   UNL     1      16.628   8.388  21.964  0.00  0.00    -0.481 OA
ATOM     34  H   UNL     1      16.559   8.613  22.917  0.00  0.00    +0.295 HD
ENDBRANCH  30   3
ENDBRANCH  25  30
ENDBRANCH  22  25
ENDBRANCH  20  22
ENDBRANCH  16   6
ENDBRANCH  11  16
TORSDOF 9
ENDMDL
MODEL 8
REMARK VINA RESULT:      -5.8     25.663     29.115
REMARK  Name = 40776907
REMARK  11 active torsions:
REMARK  status: ('A' for Active; 'I' for Inactive)
REMARK    1  A    between atoms: O_2  and  C_26
REMARK    2  A    between atoms: O_2  and  C_32
REMARK    3  A    between atoms: O_3  and  C_30
REMARK    4  A    between atoms: N_6  and  C_16
REMARK    5  A    between atoms: C_10  and  C_17
REMARK    6  A    between atoms: C_11  and  C_16
REMARK    7  A    between atoms: C_19  and  C_23
REMARK    8  A    between atoms: C_20  and  C_22
REMARK    9  A    between atoms: C_21  and  C_24
REMARK   10  A    between atoms: C_22  and  C_25
REMARK   11  A    between atoms: C_25  and  C_30
REMARK                            x       y       z     vdW  Elec       q    Type
REMARK                         _______ _______ _______ _____ _____    ______ ____
ROOT
ATOM      5  N   UNL     1      -5.393 -10.938   9.535  0.00  0.00    -0.297 NA
ATOM      9  C   UNL     1      -3.745  -9.376  10.812  0.00  0.00    +0.002 C 
ATOM     10  C   UNL     1      -3.227 -10.841  10.828  0.00  0.00    +0.055 C 
ATOM     11  C   UNL     1      -6.138 -10.107  10.517  0.00  0.00    +0.074 C 
ATOM     12  C   UNL     1      -5.161  -9.328  11.424  0.00  0.00    +0.024 C 
ATOM     13  C   UNL     1      -3.879  -8.967   9.329  0.00  0.00    +0.019 C 
ATOM     14  C   UNL     1      -4.352 -11.736  10.230  0.00  0.00    +0.094 C 
ATOM     15  C   UNL     1      -4.716 -10.022   8.586  0.00  0.00    +0.085 C 
ENDROOT
BRANCH  10  17
ATOM      7  N   UNL     1      -2.239 -10.497  13.038  0.00  0.00    -0.237 NA
ATOM      8  N   UNL     1      -1.688 -12.333  14.497  0.00  0.00    -0.232 NA
ATOM     17  C   UNL     1      -2.682 -11.397  12.135  0.00  0.00    +0.050 A 
ATOM     18  C   UNL     1      -2.661 -12.761  12.338  0.00  0.00    +0.052 A 
ATOM     19  C   UNL     1      -2.147 -13.177  13.550  0.00  0.00    +0.078 A 
ATOM     21  C   UNL     1      -1.762 -11.027  14.180  0.00  0.00    +0.127 A 
ATOM     24  C   UNL     1      -1.261 -10.063  15.202  0.00  0.00    +0.088 C 
BRANCH  19  23
ATOM     23  C   UNL     1      -2.069 -14.578  13.886  0.00  0.00    +0.042 A 
ATOM     26  C   UNL     1      -3.049 -15.182  14.673  0.00  0.00    +0.129 A 
ATOM     27  C   UNL     1      -0.995 -15.331  13.411  0.00  0.00    +0.013 A 
ATOM     28  C   UNL     1      -2.955 -16.537  14.986  0.00  0.00    +0.046 A 
ATOM     29  C   UNL     1      -0.900 -16.687  13.724  0.00  0.00    +0.001 A 
ATOM     31  C   UNL     1      -1.881 -17.291  14.512  0.00  0.00    +0.004 A 
BRANCH  26   2
ATOM      2  O   UNL     1      -4.110 -14.471  15.151  0.00  0.00    -0.494 OA
ATOM     32  C   UNL     1      -5.224 -15.217  15.633  0.00  0.00    +0.277 C 
ENDBRANCH  26   2
ENDBRANCH  19  23
ENDBRANCH  10  17
BRANCH  11  16
ATOM     16  C   UNL     1      -7.141 -10.927  11.331  0.00  0.00    +0.123 C 
BRANCH  16   6
ATOM      1  O   UNL     1      -6.008 -12.681  13.332  0.00  0.00    -0.276 OA
ATOM      6  N   UNL     1      -6.999 -10.664  12.730  0.00  0.00    -0.314 N 
ATOM     20  C   UNL     1      -6.438 -11.570  13.631  0.00  0.00    +0.214 C 
ATOM     33  H   UNL     1      -7.329  -9.770  13.080  0.00  0.00    +0.149 HD
BRANCH  20  22
ATOM     22  C   UNL     1      -6.418 -11.025  15.048  0.00  0.00    +0.107 C 
BRANCH  22  25
ATOM     25  C   UNL     1      -5.074 -10.406  15.416  0.00  0.00    +0.129 C 
BRANCH  25  30
ATOM      4  O   UNL     1      -4.671 -10.378  17.816  0.00  0.00    -0.251 OA
ATOM     30  C   UNL     1      -4.551 -10.931  16.732  0.00  0.00    +0.305 C 
BRANCH  30   3
ATOM      3  O   UNL     1      -3.913 -12.121  16.573  0.00  0.00    -0.481 OA
ATOM     34  H   UNL     1      -4.493 -12.880  16.797  0.00  0.00    +0.295 HD
ENDBRANCH  30   3
ENDBRANCH  25  30
ENDBRANCH  22  25
ENDBRANCH  20  22
ENDBRANCH  16   6
ENDBRANCH  11  16
TORSDOF 9
ENDMDL
MODEL 9
REMARK VINA RESULT:      -5.7     27.187     28.783
REMARK  Name = 40776907
REMARK  11 active torsions:
REMARK  status: ('A' for Active; 'I' for Inactive)
REMARK    1  A    between atoms: O_2  and  C_26
REMARK    2  A    between atoms: O_2  and  C_32
REMARK    3  A    between atoms: O_3  and  C_30
REMARK    4  A    between atoms: N_6  and  C_16
REMARK    5  A    between atoms: C_10  and  C_17
REMARK    6  A    between atoms: C_11  and  C_16
REMARK    7  A    between atoms: C_19  and  C_23
REMARK    8  A    between atoms: C_20  and  C_22
REMARK    9  A    between atoms: C_21  and  C_24
REMARK   10  A    between atoms: C_22  and  C_25
REMARK   11  A    between atoms: C_25  and  C_30
REMARK                            x       y       z     vdW  Elec       q    Type
REMARK                         _______ _______ _______ _____ _____    ______ ____
ROOT
ATOM      5  N   UNL     1      -6.248 -10.291  17.767  0.00  0.00    -0.297 NA
ATOM      9  C   UNL     1      -5.062 -12.599  17.538  0.00  0.00    +0.002 C 
ATOM     10  C   UNL     1      -4.354 -11.534  16.656  0.00  0.00    +0.055 C 
ATOM     11  C   UNL     1      -7.250 -11.351  17.482  0.00  0.00    +0.074 C 
ATOM     12  C   UNL     1      -6.550 -12.684  17.140  0.00  0.00    +0.024 C 
ATOM     13  C   UNL     1      -5.012 -12.079  18.991  0.00  0.00    +0.019 C 
ATOM     14  C   UNL     1      -5.231 -10.249  16.688  0.00  0.00    +0.094 C 
ATOM     15  C   UNL     1      -5.563 -10.642  19.034  0.00  0.00    +0.085 C 
ENDROOT
BRANCH  10  17
ATOM      7  N   UNL     1      -3.464 -13.170  15.071  0.00  0.00    -0.237 NA
ATOM      8  N   UNL     1      -3.213 -12.679  12.725  0.00  0.00    -0.232 NA
ATOM     17  C   UNL     1      -3.954 -11.924  15.240  0.00  0.00    +0.050 A 
ATOM     18  C   UNL     1      -4.100 -11.011  14.216  0.00  0.00    +0.052 A 
ATOM     19  C   UNL     1      -3.709 -11.449  12.966  0.00  0.00    +0.078 A 
ATOM     21  C   UNL     1      -3.119 -13.477  13.806  0.00  0.00    +0.127 A 
ATOM     24  C   UNL     1      -2.573 -14.845  13.579  0.00  0.00    +0.088 C 
BRANCH  19  23
ATOM     23  C   UNL     1      -3.811 -10.590  11.810  0.00  0.00    +0.042 A 
ATOM     26  C   UNL     1      -5.040 -10.371  11.187  0.00  0.00    +0.129 A 
ATOM     27  C   UNL     1      -2.660  -9.975  11.318  0.00  0.00    +0.013 A 
ATOM     28  C   UNL     1      -5.117  -9.538  10.072  0.00  0.00    +0.046 A 
ATOM     29  C   UNL     1      -2.737  -9.141  10.202  0.00  0.00    +0.001 A 
ATOM     31  C   UNL     1      -3.966  -8.923   9.578  0.00  0.00    +0.004 A 
BRANCH  26   2
ATOM      2  O   UNL     1      -6.181 -10.959  11.647  0.00  0.00    -0.494 OA
ATOM     32  C   UNL     1      -7.161 -10.103  12.228  0.00  0.00    +0.277 C 
ENDBRANCH  26   2
ENDBRANCH  19  23
ENDBRANCH  10  17
BRANCH  11  16
ATOM     16  C   UNL     1      -8.247 -10.935  16.399  0.00  0.00    +0.123 C 
BRANCH  16   6
ATOM      1  O   UNL     1     -10.611  -9.933  17.731  0.00  0.00    -0.276 OA
ATOM      6  N   UNL     1      -8.635  -9.567  16.560  0.00  0.00    -0.314 N 
ATOM     20  C   UNL     1      -9.798  -9.168  17.219  0.00  0.00    +0.214 C 
ATOM     33  H   UNL     1      -8.027  -8.854  16.168  0.00  0.00    +0.149 HD
BRANCH  20  22
ATOM     22  C   UNL     1      -9.953  -7.658  17.236  0.00  0.00    +0.107 C 
BRANCH  22  25
ATOM     25  C   UNL     1     -11.263  -7.199  16.603  0.00  0.00    +0.129 C 
BRANCH  25  30
ATOM      4  O   UNL     1     -11.921  -5.573  14.916  0.00  0.00    -0.251 OA
ATOM     30  C   UNL     1     -11.043  -6.119  15.570  0.00  0.00    +0.305 C 
BRANCH  30   3
ATOM      3  O   UNL     1      -9.726  -5.813  15.444  0.00  0.00    -0.481 OA
ATOM     34  H   UNL     1      -9.150  -6.581  15.646  0.00  0.00    +0.295 HD
ENDBRANCH  30   3
ENDBRANCH  25  30
ENDBRANCH  22  25
ENDBRANCH  20  22
ENDBRANCH  16   6
ENDBRANCH  11  16
TORSDOF 9
ENDMDL
MODEL 10
REMARK VINA RESULT:      -5.7     14.979     19.159
REMARK  Name = 40776907
REMARK  11 active torsions:
REMARK  status: ('A' for Active; 'I' for Inactive)
REMARK    1  A    between atoms: O_2  and  C_26
REMARK    2  A    between atoms: O_2  and  C_32
REMARK    3  A    between atoms: O_3  and  C_30
REMARK    4  A    between atoms: N_6  and  C_16
REMARK    5  A    between atoms: C_10  and  C_17
REMARK    6  A    between atoms: C_11  and  C_16
REMARK    7  A    between atoms: C_19  and  C_23
REMARK    8  A    between atoms: C_20  and  C_22
REMARK    9  A    between atoms: C_21  and  C_24
REMARK   10  A    between atoms: C_22  and  C_25
REMARK   11  A    between atoms: C_25  and  C_30
REMARK                            x       y       z     vdW  Elec       q    Type
REMARK                         _______ _______ _______ _____ _____    ______ ____
ROOT
ATOM      5  N   UNL     1      10.153   6.909   7.243  0.00  0.00    -0.297 NA
ATOM      9  C   UNL     1       9.526   5.059   5.520  0.00  0.00    +0.002 C 
ATOM     10  C   UNL     1      10.827   5.789   5.084  0.00  0.00    +0.055 C 
ATOM     11  C   UNL     1       8.725   7.043   6.850  0.00  0.00    +0.074 C 
ATOM     12  C   UNL     1       8.391   6.091   5.681  0.00  0.00    +0.024 C 
ATOM     13  C   UNL     1       9.797   4.462   6.918  0.00  0.00    +0.019 C 
ATOM     14  C   UNL     1      11.021   6.999   6.043  0.00  0.00    +0.094 C 
ATOM     15  C   UNL     1      10.334   5.567   7.845  0.00  0.00    +0.085 C 
ENDROOT
BRANCH  10  17
ATOM      7  N   UNL     1      10.729   7.473   3.314  0.00  0.00    -0.237 NA
ATOM      8  N   UNL     1      11.220   6.946   1.014  0.00  0.00    -0.232 NA
ATOM     17  C   UNL     1      10.975   6.182   3.622  0.00  0.00    +0.050 A 
ATOM     18  C   UNL     1      11.342   5.228   2.695  0.00  0.00    +0.052 A 
ATOM     19  C   UNL     1      11.451   5.672   1.392  0.00  0.00    +0.078 A 
ATOM     21  C   UNL     1      10.869   7.781   2.010  0.00  0.00    +0.127 A 
ATOM     24  C   UNL     1      10.604   9.198   1.630  0.00  0.00    +0.088 C 
BRANCH  19  23
ATOM     23  C   UNL     1      11.827   4.773   0.327  0.00  0.00    +0.042 A 
ATOM     26  C   UNL     1      13.135   4.301   0.218  0.00  0.00    +0.129 A 
ATOM     27  C   UNL     1      10.862   4.377  -0.599  0.00  0.00    +0.013 A 
ATOM     28  C   UNL     1      13.478   3.434  -0.818  0.00  0.00    +0.046 A 
ATOM     29  C   UNL     1      11.206   3.509  -1.636  0.00  0.00    +0.001 A 
ATOM     31  C   UNL     1      12.514   3.037  -1.746  0.00  0.00    +0.004 A 
BRANCH  26   2
ATOM      2  O   UNL     1      14.098   4.672   1.109  0.00  0.00    -0.494 OA
ATOM     32  C   UNL     1      14.931   3.638   1.627  0.00  0.00    +0.277 C 
ENDBRANCH  26   2
ENDBRANCH  19  23
ENDBRANCH  10  17
BRANCH  11  16
ATOM     16  C   UNL     1       8.341   8.490   6.535  0.00  0.00    +0.123 C 
BRANCH  16   6
ATOM      1  O   UNL     1       8.799  10.440   4.447  0.00  0.00    -0.276 OA
ATOM      6  N   UNL     1       7.675   8.578   5.272  0.00  0.00    -0.314 N 
ATOM     20  C   UNL     1       7.957   9.555   4.317  0.00  0.00    +0.214 C 
ATOM     33  H   UNL     1       6.956   7.891   5.068  0.00  0.00    +0.149 HD
BRANCH  20  22
ATOM     22  C   UNL     1       7.095   9.405   3.076  0.00  0.00    +0.107 C 
BRANCH  22  25
ATOM     25  C   UNL     1       5.747  10.106   3.215  0.00  0.00    +0.129 C 
BRANCH  25  30
ATOM      4  O   UNL     1       5.337  10.441   0.840  0.00  0.00    -0.251 OA
ATOM     30  C   UNL     1       4.949  10.053   1.933  0.00  0.00    +0.305 C 
BRANCH  30   3
ATOM      3  O   UNL     1       3.719   9.513   2.136  0.00  0.00    -0.481 OA
ATOM     34  H   UNL     1       3.774   8.593   2.472  0.00  0.00    +0.295 HD
ENDBRANCH  30   3
ENDBRANCH  25  30
ENDBRANCH  22  25
ENDBRANCH  20  22
ENDBRANCH  16   6
ENDBRANCH  11  16
TORSDOF 9
ENDMDL
