MODEL 1
REMARK VINA RESULT:      -7.6      0.000      0.000
REMARK  Name = 75536522
REMARK  13 active torsions:
REMARK  status: ('A' for Active; 'I' for Inactive)
REMARK    1  A    between atoms: O_2  and  C_9
REMARK    2  A    between atoms: N_5  and  C_8
REMARK    3  A    between atoms: N_5  and  C_14
REMARK    4  A    between atoms: N_6  and  C_12
REMARK    5  A    between atoms: N_7  and  C_25
REMARK    6  A    between atoms: C_10  and  C_12
REMARK    7  A    between atoms: C_13  and  C_15
REMARK    8  A    between atoms: C_13  and  C_17
REMARK    9  A    between atoms: C_13  and  C_18
REMARK   10  A    between atoms: C_13  and  C_19
REMARK   11  A    between atoms: C_14  and  C_20
REMARK   12  A    between atoms: C_15  and  C_16
REMARK   13  A    between atoms: C_26  and  C_27
REMARK                            x       y       z     vdW  Elec       q    Type
REMARK                         _______ _______ _______ _____ _____    ______ ____
ROOT
ATOM      1  O   UNL     1      10.858   8.677  20.147  0.00  0.00    -0.371 OA
ATOM      8  C   UNL     1      12.374   6.927  19.618  0.00  0.00    +0.111 C 
ATOM      9  C   UNL     1      12.100   6.910  21.110  0.00  0.00    +0.164 C 
ATOM     10  C   UNL     1      10.785   7.676  21.175  0.00  0.00    +0.165 C 
ATOM     11  C   UNL     1      11.924   8.330  19.245  0.00  0.00    +0.181 C 
ENDROOT
BRANCH   9   2
ATOM      2  O   UNL     1      11.972   5.600  21.627  0.00  0.00    -0.388 OA
ATOM     30  H   UNL     1      12.862   5.225  21.736  0.00  0.00    +0.210 HD
ENDBRANCH   9   2
BRANCH   8   5
ATOM      5  N   UNL     1      13.763   6.669  19.278  0.00  0.00    -0.305 NA
ATOM     28  H   UNL     1      13.902   6.848  18.283  0.00  0.00    +0.123 HD
BRANCH   5  14
ATOM     14  C   UNL     1      14.660   7.531  20.041  0.00  0.00    +0.116 C 
BRANCH  14  20
ATOM     20  C   UNL     1      16.054   6.966  20.110  0.00  0.00    -0.033 A 
ATOM     21  C   UNL     1      16.860   7.234  21.216  0.00  0.00    +0.007 A 
ATOM     22  C   UNL     1      16.539   6.176  19.067  0.00  0.00    +0.007 A 
ATOM     23  C   UNL     1      18.152   6.712  21.281  0.00  0.00    +0.023 A 
ATOM     24  C   UNL     1      17.832   5.654  19.132  0.00  0.00    +0.023 A 
ATOM     25  C   UNL     1      18.637   5.922  20.238  0.00  0.00    +0.033 A 
BRANCH  25   7
ATOM      4  O   UNL     1      21.303   7.315  20.393  0.00  0.00    -0.276 OA
ATOM      7  N   UNL     1      19.930   5.400  20.302  0.00  0.00    -0.286 N 
ATOM     26  C   UNL     1      21.143   6.099  20.371  0.00  0.00    +0.214 C 
ATOM     27  C   UNL     1      22.325   5.163  20.426  0.00  0.00    +0.109 C 
ATOM     31  H   UNL     1      19.988   4.383  20.296  0.00  0.00    +0.155 HD
ENDBRANCH  25   7
ENDBRANCH  14  20
ENDBRANCH   5  14
ENDBRANCH   8   5
BRANCH  10  12
ATOM     12  C   UNL     1      10.542   8.339  22.520  0.00  0.00    +0.138 C 
BRANCH  12   6
ATOM      3  O   UNL     1      12.688  10.278  22.677  0.00  0.00    -0.276 OA
ATOM      6  N   UNL     1      10.437   9.774  22.391  0.00  0.00    -0.313 N 
ATOM     16  C   UNL     1      11.525  10.625  22.481  0.00  0.00    +0.214 C 
ATOM     29  H   UNL     1       9.515  10.162  22.217  0.00  0.00    +0.149 HD
BRANCH  16  15
ATOM     15  C   UNL     1      11.150  12.090  22.320  0.00  0.00    +0.102 C 
BRANCH  15  13
ATOM     13  C   UNL     1      11.097  12.893  23.641  0.00  0.00    -0.029 C 
ATOM     17  C   UNL     1      10.845  11.975  24.849  0.00  0.00    +0.011 C 
ATOM     18  C   UNL     1      12.401  13.677  23.865  0.00  0.00    +0.011 C 
ATOM     19  C   UNL     1       9.934  13.899  23.542  0.00  0.00    +0.011 C 
ENDBRANCH  15  13
ENDBRANCH  16  15
ENDBRANCH  12   6
ENDBRANCH  10  12
TORSDOF 9
ENDMDL
MODEL 2
REMARK VINA RESULT:      -6.7      3.682      7.294
REMARK  Name = 75536522
REMARK  13 active torsions:
REMARK  status: ('A' for Active; 'I' for Inactive)
REMARK    1  A    between atoms: O_2  and  C_9
REMARK    2  A    between atoms: N_5  and  C_8
REMARK    3  A    between atoms: N_5  and  C_14
REMARK    4  A    between atoms: N_6  and  C_12
REMARK    5  A    between atoms: N_7  and  C_25
REMARK    6  A    between atoms: C_10  and  C_12
REMARK    7  A    between atoms: C_13  and  C_15
REMARK    8  A    between atoms: C_13  and  C_17
REMARK    9  A    between atoms: C_13  and  C_18
REMARK   10  A    between atoms: C_13  and  C_19
REMARK   11  A    between atoms: C_14  and  C_20
REMARK   12  A    between atoms: C_15  and  C_16
REMARK   13  A    between atoms: C_26  and  C_27
REMARK                            x       y       z     vdW  Elec       q    Type
REMARK                         _______ _______ _______ _____ _____    ______ ____
ROOT
ATOM      1  O   UNL     1      14.713   7.944  18.005  0.00  0.00    -0.371 OA
ATOM      8  C   UNL     1      12.885   6.655  18.805  0.00  0.00    +0.111 C 
ATOM      9  C   UNL     1      12.357   7.754  17.902  0.00  0.00    +0.164 C 
ATOM     10  C   UNL     1      13.605   8.101  17.102  0.00  0.00    +0.165 C 
ATOM     11  C   UNL     1      14.271   7.181  19.141  0.00  0.00    +0.181 C 
ENDROOT
BRANCH   9   2
ATOM      2  O   UNL     1      11.302   7.317  17.070  0.00  0.00    -0.388 OA
ATOM     30  H   UNL     1      11.568   6.481  16.651  0.00  0.00    +0.210 HD
ENDBRANCH   9   2
BRANCH   8   5
ATOM      5  N   UNL     1      12.066   6.423  19.983  0.00  0.00    -0.305 NA
ATOM     28  H   UNL     1      11.849   5.428  20.048  0.00  0.00    +0.123 HD
BRANCH   5  14
ATOM     14  C   UNL     1      12.763   6.833  21.197  0.00  0.00    +0.116 C 
BRANCH  14  20
ATOM     20  C   UNL     1      12.249   8.147  21.721  0.00  0.00    -0.033 A 
ATOM     21  C   UNL     1      10.895   8.298  22.019  0.00  0.00    +0.007 A 
ATOM     22  C   UNL     1      13.128   9.215  21.908  0.00  0.00    +0.007 A 
ATOM     23  C   UNL     1      10.418   9.515  22.503  0.00  0.00    +0.023 A 
ATOM     24  C   UNL     1      12.650  10.434  22.392  0.00  0.00    +0.023 A 
ATOM     25  C   UNL     1      11.296  10.583  22.690  0.00  0.00    +0.033 A 
BRANCH  25   7
ATOM      4  O   UNL     1      10.911  11.549  25.516  0.00  0.00    -0.276 OA
ATOM      7  N   UNL     1      10.819  11.802  23.174  0.00  0.00    -0.286 N 
ATOM     26  C   UNL     1      10.658  12.201  24.508  0.00  0.00    +0.214 C 
ATOM     27  C   UNL     1      10.112  13.603  24.610  0.00  0.00    +0.109 C 
ATOM     31  H   UNL     1      10.558  12.480  22.460  0.00  0.00    +0.155 HD
ENDBRANCH  25   7
ENDBRANCH  14  20
ENDBRANCH   5  14
ENDBRANCH   8   5
BRANCH  10  12
ATOM     12  C   UNL     1      13.590   9.516  16.549  0.00  0.00    +0.138 C 
BRANCH  12   6
ATOM      3  O   UNL     1      13.424  11.582  18.573  0.00  0.00    -0.276 OA
ATOM      6  N   UNL     1      14.675  10.306  17.087  0.00  0.00    -0.313 N 
ATOM     16  C   UNL     1      14.498  11.276  18.057  0.00  0.00    +0.214 C 
ATOM     29  H   UNL     1      15.608  10.121  16.732  0.00  0.00    +0.149 HD
BRANCH  16  15
ATOM     15  C   UNL     1      15.793  11.970  18.448  0.00  0.00    +0.102 C 
BRANCH  15  13
ATOM     13  C   UNL     1      16.284  11.661  19.882  0.00  0.00    -0.029 C 
ATOM     17  C   UNL     1      16.115  10.173  20.228  0.00  0.00    +0.011 C 
ATOM     18  C   UNL     1      17.760  12.058  20.059  0.00  0.00    +0.011 C 
ATOM     19  C   UNL     1      15.435  12.489  20.866  0.00  0.00    +0.011 C 
ENDBRANCH  15  13
ENDBRANCH  16  15
ENDBRANCH  12   6
ENDBRANCH  10  12
TORSDOF 9
ENDMDL
MODEL 3
REMARK VINA RESULT:      -6.6     25.998     30.147
REMARK  Name = 75536522
REMARK  13 active torsions:
REMARK  status: ('A' for Active; 'I' for Inactive)
REMARK    1  A    between atoms: O_2  and  C_9
REMARK    2  A    between atoms: N_5  and  C_8
REMARK    3  A    between atoms: N_5  and  C_14
REMARK    4  A    between atoms: N_6  and  C_12
REMARK    5  A    between atoms: N_7  and  C_25
REMARK    6  A    between atoms: C_10  and  C_12
REMARK    7  A    between atoms: C_13  and  C_15
REMARK    8  A    between atoms: C_13  and  C_17
REMARK    9  A    between atoms: C_13  and  C_18
REMARK   10  A    between atoms: C_13  and  C_19
REMARK   11  A    between atoms: C_14  and  C_20
REMARK   12  A    between atoms: C_15  and  C_16
REMARK   13  A    between atoms: C_26  and  C_27
REMARK                            x       y       z     vdW  Elec       q    Type
REMARK                         _______ _______ _______ _____ _____    ______ ____
ROOT
ATOM      1  O   UNL     1     -16.317   6.283  23.213  0.00  0.00    -0.371 OA
ATOM      8  C   UNL     1     -15.304   4.320  24.085  0.00  0.00    +0.111 C 
ATOM      9  C   UNL     1     -14.622   4.691  22.782  0.00  0.00    +0.164 C 
ATOM     10  C   UNL     1     -14.994   6.163  22.665  0.00  0.00    +0.165 C 
ATOM     11  C   UNL     1     -16.605   5.099  23.978  0.00  0.00    +0.181 C 
ENDROOT
BRANCH   9   2
ATOM      2  O   UNL     1     -13.222   4.503  22.825  0.00  0.00    -0.388 OA
ATOM     30  H   UNL     1     -12.805   5.356  23.034  0.00  0.00    +0.210 HD
ENDBRANCH   9   2
BRANCH   8   5
ATOM      5  N   UNL     1     -15.512   2.891  24.249  0.00  0.00    -0.305 NA
ATOM     28  H   UNL     1     -14.727   2.497  24.769  0.00  0.00    +0.123 HD
BRANCH   5  14
ATOM     14  C   UNL     1     -16.746   2.619  24.979  0.00  0.00    +0.116 C 
BRANCH  14  20
ATOM     20  C   UNL     1     -16.489   2.378  26.442  0.00  0.00    -0.033 A 
ATOM     21  C   UNL     1     -15.997   3.408  27.243  0.00  0.00    +0.007 A 
ATOM     22  C   UNL     1     -16.741   1.122  26.997  0.00  0.00    +0.007 A 
ATOM     23  C   UNL     1     -15.758   3.184  28.599  0.00  0.00    +0.023 A 
ATOM     24  C   UNL     1     -16.502   0.898  28.353  0.00  0.00    +0.023 A 
ATOM     25  C   UNL     1     -16.010   1.929  29.154  0.00  0.00    +0.033 A 
BRANCH  25   7
ATOM      4  O   UNL     1     -13.543   0.933  30.564  0.00  0.00    -0.276 OA
ATOM      7  N   UNL     1     -15.770   1.704  30.510  0.00  0.00    -0.286 N 
ATOM     26  C   UNL     1     -14.596   1.236  31.115  0.00  0.00    +0.214 C 
ATOM     27  C   UNL     1     -14.743   1.130  32.612  0.00  0.00    +0.109 C 
ATOM     31  H   UNL     1     -16.552   1.910  31.129  0.00  0.00    +0.155 HD
ENDBRANCH  25   7
ENDBRANCH  14  20
ENDBRANCH   5  14
ENDBRANCH   8   5
BRANCH  10  12
ATOM     12  C   UNL     1     -14.983   6.674  21.235  0.00  0.00    +0.138 C 
BRANCH  12   6
ATOM      3  O   UNL     1     -13.010   8.730  21.756  0.00  0.00    -0.276 OA
ATOM      6  N   UNL     1     -13.638   6.752  20.711  0.00  0.00    -0.313 N 
ATOM     16  C   UNL     1     -12.763   7.778  21.018  0.00  0.00    +0.214 C 
ATOM     29  H   UNL     1     -13.332   6.003  20.096  0.00  0.00    +0.149 HD
BRANCH  16  15
ATOM     15  C   UNL     1     -11.413   7.634  20.334  0.00  0.00    +0.102 C 
BRANCH  15  13
ATOM     13  C   UNL     1     -11.260   8.449  19.028  0.00  0.00    -0.029 C 
ATOM     17  C   UNL     1     -10.899   7.545  17.838  0.00  0.00    +0.011 C 
ATOM     18  C   UNL     1     -12.549   9.223  18.704  0.00  0.00    +0.011 C 
ATOM     19  C   UNL     1     -10.120   9.466  19.231  0.00  0.00    +0.011 C 
ENDBRANCH  15  13
ENDBRANCH  16  15
ENDBRANCH  12   6
ENDBRANCH  10  12
TORSDOF 9
ENDMDL
MODEL 4
REMARK VINA RESULT:      -6.6     26.705     30.013
REMARK  Name = 75536522
REMARK  13 active torsions:
REMARK  status: ('A' for Active; 'I' for Inactive)
REMARK    1  A    between atoms: O_2  and  C_9
REMARK    2  A    between atoms: N_5  and  C_8
REMARK    3  A    between atoms: N_5  and  C_14
REMARK    4  A    between atoms: N_6  and  C_12
REMARK    5  A    between atoms: N_7  and  C_25
REMARK    6  A    between atoms: C_10  and  C_12
REMARK    7  A    between atoms: C_13  and  C_15
REMARK    8  A    between atoms: C_13  and  C_17
REMARK    9  A    between atoms: C_13  and  C_18
REMARK   10  A    between atoms: C_13  and  C_19
REMARK   11  A    between atoms: C_14  and  C_20
REMARK   12  A    between atoms: C_15  and  C_16
REMARK   13  A    between atoms: C_26  and  C_27
REMARK                            x       y       z     vdW  Elec       q    Type
REMARK                         _______ _______ _______ _____ _____    ______ ____
ROOT
ATOM      1  O   UNL     1     -17.199   5.260  25.407  0.00  0.00    -0.371 OA
ATOM      8  C   UNL     1     -16.139   4.184  23.574  0.00  0.00    +0.111 C 
ATOM      9  C   UNL     1     -15.733   3.486  24.859  0.00  0.00    +0.164 C 
ATOM     10  C   UNL     1     -16.855   3.919  25.795  0.00  0.00    +0.165 C 
ATOM     11  C   UNL     1     -16.651   5.514  24.102  0.00  0.00    +0.181 C 
ENDROOT
BRANCH   9   2
ATOM      2  O   UNL     1     -15.675   2.080  24.722  0.00  0.00    -0.388 OA
ATOM     30  H   UNL     1     -16.378   1.802  24.111  0.00  0.00    +0.210 HD
ENDBRANCH   9   2
BRANCH   8   5
ATOM      5  N   UNL     1     -15.051   4.333  22.622  0.00  0.00    -0.305 NA
ATOM     28  H   UNL     1     -15.440   4.526  21.699  0.00  0.00    +0.123 HD
BRANCH   5  14
ATOM     14  C   UNL     1     -14.168   5.430  23.001  0.00  0.00    +0.116 C 
BRANCH  14  20
ATOM     20  C   UNL     1     -13.675   6.191  21.800  0.00  0.00    -0.033 A 
ATOM     21  C   UNL     1     -14.558   6.977  21.060  0.00  0.00    +0.007 A 
ATOM     22  C   UNL     1     -12.332   6.110  21.426  0.00  0.00    +0.007 A 
ATOM     23  C   UNL     1     -14.102   7.682  19.947  0.00  0.00    +0.023 A 
ATOM     24  C   UNL     1     -11.875   6.815  20.312  0.00  0.00    +0.023 A 
ATOM     25  C   UNL     1     -12.760   7.601  19.573  0.00  0.00    +0.033 A 
BRANCH  25   7
ATOM      4  O   UNL     1     -11.733  10.421  19.328  0.00  0.00    -0.276 OA
ATOM      7  N   UNL     1     -12.302   8.305  18.458  0.00  0.00    -0.286 N 
ATOM     26  C   UNL     1     -11.834   9.625  18.401  0.00  0.00    +0.214 C 
ATOM     27  C   UNL     1     -11.431  10.014  17.000  0.00  0.00    +0.109 C 
ATOM     31  H   UNL     1     -12.314   7.786  17.582  0.00  0.00    +0.155 HD
ENDBRANCH  25   7
ENDBRANCH  14  20
ENDBRANCH   5  14
ENDBRANCH   8   5
BRANCH  10  12
ATOM     12  C   UNL     1     -16.457   3.894  27.260  0.00  0.00    +0.138 C 
BRANCH  12   6
ATOM      3  O   UNL     1     -16.650   2.778  29.926  0.00  0.00    -0.276 OA
ATOM      6  N   UNL     1     -16.081   2.564  27.684  0.00  0.00    -0.313 N 
ATOM     16  C   UNL     1     -16.210   2.118  28.987  0.00  0.00    +0.214 C 
ATOM     29  H   UNL     1     -15.714   1.935  26.976  0.00  0.00    +0.149 HD
BRANCH  16  15
ATOM     15  C   UNL     1     -15.737   0.686  29.176  0.00  0.00    +0.102 C 
BRANCH  15  13
ATOM     13  C   UNL     1     -14.503   0.529  30.096  0.00  0.00    -0.029 C 
ATOM     17  C   UNL     1     -13.572  -0.591  29.604  0.00  0.00    +0.011 C 
ATOM     18  C   UNL     1     -13.710   1.844  30.187  0.00  0.00    +0.011 C 
ATOM     19  C   UNL     1     -15.003   0.163  31.507  0.00  0.00    +0.011 C 
ENDBRANCH  15  13
ENDBRANCH  16  15
ENDBRANCH  12   6
ENDBRANCH  10  12
TORSDOF 9
ENDMDL
MODEL 5
REMARK VINA RESULT:      -6.4     30.849     32.354
REMARK  Name = 75536522
REMARK  13 active torsions:
REMARK  status: ('A' for Active; 'I' for Inactive)
REMARK    1  A    between atoms: O_2  and  C_9
REMARK    2  A    between atoms: N_5  and  C_8
REMARK    3  A    between atoms: N_5  and  C_14
REMARK    4  A    between atoms: N_6  and  C_12
REMARK    5  A    between atoms: N_7  and  C_25
REMARK    6  A    between atoms: C_10  and  C_12
REMARK    7  A    between atoms: C_13  and  C_15
REMARK    8  A    between atoms: C_13  and  C_17
REMARK    9  A    between atoms: C_13  and  C_18
REMARK   10  A    between atoms: C_13  and  C_19
REMARK   11  A    between atoms: C_14  and  C_20
REMARK   12  A    between atoms: C_15  and  C_16
REMARK   13  A    between atoms: C_26  and  C_27
REMARK                            x       y       z     vdW  Elec       q    Type
REMARK                         _______ _______ _______ _____ _____    ______ ____
ROOT
ATOM      1  O   UNL     1     -14.599   0.908  32.736  0.00  0.00    -0.371 OA
ATOM      8  C   UNL     1     -14.266   0.490  30.422  0.00  0.00    +0.111 C 
ATOM      9  C   UNL     1     -14.019   1.961  30.699  0.00  0.00    +0.164 C 
ATOM     10  C   UNL     1     -13.750   1.936  32.198  0.00  0.00    +0.165 C 
ATOM     11  C   UNL     1     -15.057   0.080  31.653  0.00  0.00    +0.181 C 
ENDROOT
BRANCH   9   2
ATOM      2  O   UNL     1     -12.919   2.476  29.975  0.00  0.00    -0.388 OA
ATOM     30  H   UNL     1     -12.760   1.901  29.208  0.00  0.00    +0.210 HD
ENDBRANCH   9   2
BRANCH   8   5
ATOM      5  N   UNL     1     -14.980   0.242  29.181  0.00  0.00    -0.305 NA
ATOM     28  H   UNL     1     -15.074  -0.765  29.046  0.00  0.00    +0.123 HD
BRANCH   5  14
ATOM     14  C   UNL     1     -16.310   0.840  29.211  0.00  0.00    +0.116 C 
BRANCH  14  20
ATOM     20  C   UNL     1     -16.635   1.548  27.924  0.00  0.00    -0.033 A 
ATOM     21  C   UNL     1     -17.557   0.993  27.036  0.00  0.00    +0.007 A 
ATOM     22  C   UNL     1     -16.012   2.758  27.616  0.00  0.00    +0.007 A 
ATOM     23  C   UNL     1     -17.858   1.648  25.842  0.00  0.00    +0.023 A 
ATOM     24  C   UNL     1     -16.312   3.414  26.422  0.00  0.00    +0.023 A 
ATOM     25  C   UNL     1     -17.235   2.859  25.535  0.00  0.00    +0.033 A 
BRANCH  25   7
ATOM      4  O   UNL     1     -16.703   2.060  22.681  0.00  0.00    -0.276 OA
ATOM      7  N   UNL     1     -17.535   3.514  24.340  0.00  0.00    -0.286 N 
ATOM     26  C   UNL     1     -17.261   3.095  23.031  0.00  0.00    +0.214 C 
ATOM     27  C   UNL     1     -17.750   4.093  22.011  0.00  0.00    +0.109 C 
ATOM     31  H   UNL     1     -18.012   4.408  24.443  0.00  0.00    +0.155 HD
ENDBRANCH  25   7
ENDBRANCH  14  20
ENDBRANCH   5  14
ENDBRANCH   8   5
BRANCH  10  12
ATOM     12  C   UNL     1     -14.048   3.259  32.883  0.00  0.00    +0.138 C 
BRANCH  12   6
ATOM      3  O   UNL     1     -16.057   5.290  33.359  0.00  0.00    -0.276 OA
ATOM      6  N   UNL     1     -14.540   4.242  31.945  0.00  0.00    -0.313 N 
ATOM     16  C   UNL     1     -15.507   5.178  32.265  0.00  0.00    +0.214 C 
ATOM     29  H   UNL     1     -14.139   4.239  31.012  0.00  0.00    +0.149 HD
BRANCH  16  15
ATOM     15  C   UNL     1     -15.858   6.092  31.102  0.00  0.00    +0.102 C 
BRANCH  15  13
ATOM     13  C   UNL     1     -17.196   5.760  30.400  0.00  0.00    -0.029 C 
ATOM     17  C   UNL     1     -17.150   6.113  28.904  0.00  0.00    +0.011 C 
ATOM     18  C   UNL     1     -17.550   4.272  30.559  0.00  0.00    +0.011 C 
ATOM     19  C   UNL     1     -18.305   6.599  31.065  0.00  0.00    +0.011 C 
ENDBRANCH  15  13
ENDBRANCH  16  15
ENDBRANCH  12   6
ENDBRANCH  10  12
TORSDOF 9
ENDMDL
MODEL 6
REMARK VINA RESULT:      -6.4     27.092     29.655
REMARK  Name = 75536522
REMARK  13 active torsions:
REMARK  status: ('A' for Active; 'I' for Inactive)
REMARK    1  A    between atoms: O_2  and  C_9
REMARK    2  A    between atoms: N_5  and  C_8
REMARK    3  A    between atoms: N_5  and  C_14
REMARK    4  A    between atoms: N_6  and  C_12
REMARK    5  A    between atoms: N_7  and  C_25
REMARK    6  A    between atoms: C_10  and  C_12
REMARK    7  A    between atoms: C_13  and  C_15
REMARK    8  A    between atoms: C_13  and  C_17
REMARK    9  A    between atoms: C_13  and  C_18
REMARK   10  A    between atoms: C_13  and  C_19
REMARK   11  A    between atoms: C_14  and  C_20
REMARK   12  A    between atoms: C_15  and  C_16
REMARK   13  A    between atoms: C_26  and  C_27
REMARK                            x       y       z     vdW  Elec       q    Type
REMARK                         _______ _______ _______ _____ _____    ______ ____
ROOT
ATOM      1  O   UNL     1     -10.257 -12.744  18.558  0.00  0.00    -0.371 OA
ATOM      8  C   UNL     1      -8.723 -11.393  19.768  0.00  0.00    +0.111 C 
ATOM      9  C   UNL     1     -10.054 -10.672  19.681  0.00  0.00    +0.164 C 
ATOM     10  C   UNL     1     -10.997 -11.831  19.386  0.00  0.00    +0.165 C 
ATOM     11  C   UNL     1      -8.859 -12.414  18.651  0.00  0.00    +0.181 C 
ENDROOT
BRANCH   9   2
ATOM      2  O   UNL     1     -10.396 -10.009  20.882  0.00  0.00    -0.388 OA
ATOM     30  H   UNL     1      -9.592  -9.917  21.421  0.00  0.00    +0.210 HD
ENDBRANCH   9   2
BRANCH   8   5
ATOM      5  N   UNL     1      -7.574 -10.520  19.599  0.00  0.00    -0.305 NA
ATOM     28  H   UNL     1      -7.548  -9.850  20.368  0.00  0.00    +0.123 HD
BRANCH   5  14
ATOM     14  C   UNL     1      -6.329 -11.281  19.595  0.00  0.00    +0.116 C 
BRANCH  14  20
ATOM     20  C   UNL     1      -5.516 -11.019  18.356  0.00  0.00    -0.033 A 
ATOM     21  C   UNL     1      -4.210 -11.498  18.264  0.00  0.00    +0.007 A 
ATOM     22  C   UNL     1      -6.069 -10.293  17.300  0.00  0.00    +0.007 A 
ATOM     23  C   UNL     1      -3.456 -11.254  17.117  0.00  0.00    +0.023 A 
ATOM     24  C   UNL     1      -5.315 -10.049  16.152  0.00  0.00    +0.023 A 
ATOM     25  C   UNL     1      -4.009 -10.529  16.060  0.00  0.00    +0.033 A 
BRANCH  25   7
ATOM      4  O   UNL     1      -3.325 -12.332  13.748  0.00  0.00    -0.276 OA
ATOM      7  N   UNL     1      -3.254 -10.283  14.913  0.00  0.00    -0.286 N 
ATOM     26  C   UNL     1      -2.964 -11.165  13.862  0.00  0.00    +0.214 C 
ATOM     27  C   UNL     1      -2.114 -10.511  12.802  0.00  0.00    +0.109 C 
ATOM     31  H   UNL     1      -2.870  -9.343  14.838  0.00  0.00    +0.155 HD
ENDBRANCH  25   7
ENDBRANCH  14  20
ENDBRANCH   5  14
ENDBRANCH   8   5
BRANCH  10  12
ATOM     12  C   UNL     1     -12.267 -11.405  18.671  0.00  0.00    +0.138 C 
BRANCH  12   6
ATOM      3  O   UNL     1     -12.683 -10.382  15.993  0.00  0.00    -0.276 OA
ATOM      6  N   UNL     1     -12.194 -10.028  18.237  0.00  0.00    -0.313 N 
ATOM     16  C   UNL     1     -12.409  -9.633  16.929  0.00  0.00    +0.214 C 
ATOM     29  H   UNL     1     -11.982  -9.327  18.941  0.00  0.00    +0.149 HD
BRANCH  16  15
ATOM     15  C   UNL     1     -12.265  -8.133  16.729  0.00  0.00    +0.102 C 
BRANCH  15  13
ATOM     13  C   UNL     1     -10.877  -7.678  16.219  0.00  0.00    -0.029 C 
ATOM     17  C   UNL     1      -9.772  -7.987  17.242  0.00  0.00    +0.011 C 
ATOM     18  C   UNL     1     -10.531  -8.353  14.880  0.00  0.00    +0.011 C 
ATOM     19  C   UNL     1     -10.925  -6.154  15.998  0.00  0.00    +0.011 C 
ENDBRANCH  15  13
ENDBRANCH  16  15
ENDBRANCH  12   6
ENDBRANCH  10  12
TORSDOF 9
ENDMDL
MODEL 7
REMARK VINA RESULT:      -6.3     26.173     28.764
REMARK  Name = 75536522
REMARK  13 active torsions:
REMARK  status: ('A' for Active; 'I' for Inactive)
REMARK    1  A    between atoms: O_2  and  C_9
REMARK    2  A    between atoms: N_5  and  C_8
REMARK    3  A    between atoms: N_5  and  C_14
REMARK    4  A    between atoms: N_6  and  C_12
REMARK    5  A    between atoms: N_7  and  C_25
REMARK    6  A    between atoms: C_10  and  C_12
REMARK    7  A    between atoms: C_13  and  C_15
REMARK    8  A    between atoms: C_13  and  C_17
REMARK    9  A    between atoms: C_13  and  C_18
REMARK   10  A    between atoms: C_13  and  C_19
REMARK   11  A    between atoms: C_14  and  C_20
REMARK   12  A    between atoms: C_15  and  C_16
REMARK   13  A    between atoms: C_26  and  C_27
REMARK                            x       y       z     vdW  Elec       q    Type
REMARK                         _______ _______ _______ _____ _____    ______ ____
ROOT
ATOM      1  O   UNL     1      -3.032 -12.377  15.056  0.00  0.00    -0.371 OA
ATOM      8  C   UNL     1      -1.838 -11.384  13.259  0.00  0.00    +0.111 C 
ATOM      9  C   UNL     1      -2.073 -10.339  14.333  0.00  0.00    +0.164 C 
ATOM     10  C   UNL     1      -2.334 -11.220  15.547  0.00  0.00    +0.165 C 
ATOM     11  C   UNL     1      -2.873 -12.434  13.628  0.00  0.00    +0.181 C 
ENDROOT
BRANCH   9   2
ATOM      2  O   UNL     1      -0.957  -9.493  14.525  0.00  0.00    -0.388 OA
ATOM     30  H   UNL     1      -1.193  -8.819  15.184  0.00  0.00    +0.210 HD
ENDBRANCH   9   2
BRANCH   8   5
ATOM      5  N   UNL     1      -2.001 -10.879  11.906  0.00  0.00    -0.305 NA
ATOM     28  H   UNL     1      -1.162 -11.091  11.366  0.00  0.00    +0.123 HD
BRANCH   5  14
ATOM     14  C   UNL     1      -3.151 -11.492  11.251  0.00  0.00    +0.116 C 
BRANCH  14  20
ATOM     20  C   UNL     1      -4.028 -10.467  10.584  0.00  0.00    -0.033 A 
ATOM     21  C   UNL     1      -4.227 -10.511   9.204  0.00  0.00    +0.007 A 
ATOM     22  C   UNL     1      -4.642  -9.473  11.346  0.00  0.00    +0.007 A 
ATOM     23  C   UNL     1      -5.039  -9.560   8.585  0.00  0.00    +0.023 A 
ATOM     24  C   UNL     1      -5.455  -8.522  10.727  0.00  0.00    +0.023 A 
ATOM     25  C   UNL     1      -5.653  -8.566   9.348  0.00  0.00    +0.033 A 
BRANCH  25   7
ATOM      4  O   UNL     1      -8.632  -8.525   8.910  0.00  0.00    -0.276 OA
ATOM      7  N   UNL     1      -6.465  -7.614   8.729  0.00  0.00    -0.286 N 
ATOM     26  C   UNL     1      -7.855  -7.647   8.551  0.00  0.00    +0.214 C 
ATOM     27  C   UNL     1      -8.354  -6.419   7.831  0.00  0.00    +0.109 C 
ATOM     31  H   UNL     1      -5.977  -6.797   8.366  0.00  0.00    +0.155 HD
ENDBRANCH  25   7
ENDBRANCH  14  20
ENDBRANCH   5  14
ENDBRANCH   8   5
BRANCH  10  12
ATOM     12  C   UNL     1      -3.165 -10.535  16.618  0.00  0.00    +0.138 C 
BRANCH  12   6
ATOM      3  O   UNL     1      -3.640 -11.850  19.156  0.00  0.00    -0.276 OA
ATOM      6  N   UNL     1      -4.310 -11.335  16.991  0.00  0.00    -0.313 N 
ATOM     16  C   UNL     1      -4.450 -11.927  18.234  0.00  0.00    +0.214 C 
ATOM     29  H   UNL     1      -5.044 -11.450  16.299  0.00  0.00    +0.149 HD
BRANCH  16  15
ATOM     15  C   UNL     1      -5.739 -12.721  18.373  0.00  0.00    +0.102 C 
BRANCH  15  13
ATOM     13  C   UNL     1      -6.971 -11.885  18.794  0.00  0.00    -0.029 C 
ATOM     17  C   UNL     1      -6.555 -10.583  19.497  0.00  0.00    +0.011 C 
ATOM     18  C   UNL     1      -7.851 -11.546  17.579  0.00  0.00    +0.011 C 
ATOM     19  C   UNL     1      -7.804 -12.727  19.780  0.00  0.00    +0.011 C 
ENDBRANCH  15  13
ENDBRANCH  16  15
ENDBRANCH  12   6
ENDBRANCH  10  12
TORSDOF 9
ENDMDL
MODEL 8
REMARK VINA RESULT:      -6.3      1.886      9.147
REMARK  Name = 75536522
REMARK  13 active torsions:
REMARK  status: ('A' for Active; 'I' for Inactive)
REMARK    1  A    between atoms: O_2  and  C_9
REMARK    2  A    between atoms: N_5  and  C_8
REMARK    3  A    between atoms: N_5  and  C_14
REMARK    4  A    between atoms: N_6  and  C_12
REMARK    5  A    between atoms: N_7  and  C_25
REMARK    6  A    between atoms: C_10  and  C_12
REMARK    7  A    between atoms: C_13  and  C_15
REMARK    8  A    between atoms: C_13  and  C_17
REMARK    9  A    between atoms: C_13  and  C_18
REMARK   10  A    between atoms: C_13  and  C_19
REMARK   11  A    between atoms: C_14  and  C_20
REMARK   12  A    between atoms: C_15  and  C_16
REMARK   13  A    between atoms: C_26  and  C_27
REMARK                            x       y       z     vdW  Elec       q    Type
REMARK                         _______ _______ _______ _____ _____    ______ ____
ROOT
ATOM      1  O   UNL     1      16.912   6.793  19.440  0.00  0.00    -0.371 OA
ATOM      8  C   UNL     1      14.635   7.147  20.015  0.00  0.00    +0.111 C 
ATOM      9  C   UNL     1      15.425   6.863  21.278  0.00  0.00    +0.164 C 
ATOM     10  C   UNL     1      16.840   7.191  20.819  0.00  0.00    +0.165 C 
ATOM     11  C   UNL     1      15.573   6.612  18.946  0.00  0.00    +0.181 C 
ENDROOT
BRANCH   9   2
ATOM      2  O   UNL     1      15.024   7.671  22.366  0.00  0.00    -0.388 OA
ATOM     30  H   UNL     1      15.806   7.862  22.912  0.00  0.00    +0.210 HD
ENDBRANCH   9   2
BRANCH   8   5
ATOM      5  N   UNL     1      13.328   6.512  19.989  0.00  0.00    -0.305 NA
ATOM     28  H   UNL     1      13.079   6.222  20.936  0.00  0.00    +0.123 HD
BRANCH   5  14
ATOM     14  C   UNL     1      12.307   7.429  19.494  0.00  0.00    +0.116 C 
BRANCH  14  20
ATOM     20  C   UNL     1      11.871   8.406  20.552  0.00  0.00    -0.033 A 
ATOM     21  C   UNL     1      11.269   7.945  21.722  0.00  0.00    +0.007 A 
ATOM     22  C   UNL     1      12.067   9.775  20.361  0.00  0.00    +0.007 A 
ATOM     23  C   UNL     1      10.863   8.850  22.702  0.00  0.00    +0.023 A 
ATOM     24  C   UNL     1      11.662  10.681  21.342  0.00  0.00    +0.023 A 
ATOM     25  C   UNL     1      11.060  10.218  22.512  0.00  0.00    +0.033 A 
BRANCH  25   7
ATOM      4  O   UNL     1      12.636  11.593  24.678  0.00  0.00    -0.276 OA
ATOM      7  N   UNL     1      10.653  11.124  23.492  0.00  0.00    -0.286 N 
ATOM     26  C   UNL     1      11.434  11.736  24.483  0.00  0.00    +0.214 C 
ATOM     27  C   UNL     1      10.613  12.657  25.351  0.00  0.00    +0.109 C 
ATOM     31  H   UNL     1       9.664  11.365  23.477  0.00  0.00    +0.155 HD
ENDBRANCH  25   7
ENDBRANCH  14  20
ENDBRANCH   5  14
ENDBRANCH   8   5
BRANCH  10  12
ATOM     12  C   UNL     1      17.913   6.472  21.618  0.00  0.00    +0.138 C 
BRANCH  12   6
ATOM      3  O   UNL     1      20.292   6.096  23.227  0.00  0.00    -0.276 OA
ATOM      6  N   UNL     1      19.214   7.067  21.412  0.00  0.00    -0.313 N 
ATOM     16  C   UNL     1      20.298   6.827  22.238  0.00  0.00    +0.214 C 
ATOM     29  H   UNL     1      19.325   7.681  20.611  0.00  0.00    +0.149 HD
BRANCH  16  15
ATOM     15  C   UNL     1      21.549   7.577  21.812  0.00  0.00    +0.102 C 
BRANCH  15  13
ATOM     13  C   UNL     1      22.677   6.683  21.244  0.00  0.00    -0.029 C 
ATOM     17  C   UNL     1      23.649   7.491  20.368  0.00  0.00    +0.011 C 
ATOM     18  C   UNL     1      23.463   5.998  22.374  0.00  0.00    +0.011 C 
ATOM     19  C   UNL     1      22.027   5.592  20.372  0.00  0.00    +0.011 C 
ENDBRANCH  15  13
ENDBRANCH  16  15
ENDBRANCH  12   6
ENDBRANCH  10  12
TORSDOF 9
ENDMDL
MODEL 9
REMARK VINA RESULT:      -6.2     26.691     28.810
REMARK  Name = 75536522
REMARK  13 active torsions:
REMARK  status: ('A' for Active; 'I' for Inactive)
REMARK    1  A    between atoms: O_2  and  C_9
REMARK    2  A    between atoms: N_5  and  C_8
REMARK    3  A    between atoms: N_5  and  C_14
REMARK    4  A    between atoms: N_6  and  C_12
REMARK    5  A    between atoms: N_7  and  C_25
REMARK    6  A    between atoms: C_10  and  C_12
REMARK    7  A    between atoms: C_13  and  C_15
REMARK    8  A    between atoms: C_13  and  C_17
REMARK    9  A    between atoms: C_13  and  C_18
REMARK   10  A    between atoms: C_13  and  C_19
REMARK   11  A    between atoms: C_14  and  C_20
REMARK   12  A    between atoms: C_15  and  C_16
REMARK   13  A    between atoms: C_26  and  C_27
REMARK                            x       y       z     vdW  Elec       q    Type
REMARK                         _______ _______ _______ _____ _____    ______ ____
ROOT
ATOM      1  O   UNL     1      -5.068 -11.850  15.677  0.00  0.00    -0.371 OA
ATOM      8  C   UNL     1      -3.034 -11.368  14.549  0.00  0.00    +0.111 C 
ATOM      9  C   UNL     1      -2.937 -10.868  15.978  0.00  0.00    +0.164 C 
ATOM     10  C   UNL     1      -4.023 -11.696  16.653  0.00  0.00    +0.165 C 
ATOM     11  C   UNL     1      -4.537 -11.515  14.382  0.00  0.00    +0.181 C 
ENDROOT
BRANCH   9   2
ATOM      2  O   UNL     1      -1.666 -11.099  16.552  0.00  0.00    -0.388 OA
ATOM     30  H   UNL     1      -1.533 -12.059  16.627  0.00  0.00    +0.210 HD
ENDBRANCH   9   2
BRANCH   8   5
ATOM      5  N   UNL     1      -2.442 -10.467  13.574  0.00  0.00    -0.305 NA
ATOM     28  H   UNL     1      -1.619 -10.024  13.985  0.00  0.00    +0.123 HD
BRANCH   5  14
ATOM     14  C   UNL     1      -2.039 -11.186  12.370  0.00  0.00    +0.116 C 
BRANCH  14  20
ATOM     20  C   UNL     1      -2.851 -10.772  11.173  0.00  0.00    -0.033 A 
ATOM     21  C   UNL     1      -2.880  -9.435  10.777  0.00  0.00    +0.007 A 
ATOM     22  C   UNL     1      -3.577 -11.727  10.460  0.00  0.00    +0.007 A 
ATOM     23  C   UNL     1      -3.634  -9.052   9.668  0.00  0.00    +0.023 A 
ATOM     24  C   UNL     1      -4.331 -11.343   9.350  0.00  0.00    +0.023 A 
ATOM     25  C   UNL     1      -4.360 -10.006   8.955  0.00  0.00    +0.033 A 
BRANCH  25   7
ATOM      4  O   UNL     1      -7.315  -9.493   8.684  0.00  0.00    -0.276 OA
ATOM      7  N   UNL     1      -5.115  -9.623   7.846  0.00  0.00    -0.286 N 
ATOM     26  C   UNL     1      -6.497  -9.398   7.775  0.00  0.00    +0.214 C 
ATOM     27  C   UNL     1      -6.927  -8.995   6.387  0.00  0.00    +0.109 C 
ATOM     31  H   UNL     1      -4.587  -9.493   6.985  0.00  0.00    +0.155 HD
ENDBRANCH  25   7
ENDBRANCH  14  20
ENDBRANCH   5  14
ENDBRANCH   8   5
BRANCH  10  12
ATOM     12  C   UNL     1      -4.583 -11.045  17.905  0.00  0.00    +0.138 C 
BRANCH  12   6
ATOM      3  O   UNL     1      -6.328 -10.154  20.039  0.00  0.00    -0.276 OA
ATOM      6  N   UNL     1      -6.013 -11.227  18.002  0.00  0.00    -0.313 N 
ATOM     16  C   UNL     1      -6.767 -10.764  19.066  0.00  0.00    +0.214 C 
ATOM     29  H   UNL     1      -6.475 -11.713  17.239  0.00  0.00    +0.149 HD
BRANCH  16  15
ATOM     15  C   UNL     1      -8.246 -11.090  18.935  0.00  0.00    +0.102 C 
BRANCH  15  13
ATOM     13  C   UNL     1      -8.989 -10.290  17.839  0.00  0.00    -0.029 C 
ATOM     17  C   UNL     1      -8.157  -9.091  17.354  0.00  0.00    +0.011 C 
ATOM     18  C   UNL     1      -9.335 -11.186  16.637  0.00  0.00    +0.011 C 
ATOM     19  C   UNL     1     -10.303  -9.758  18.444  0.00  0.00    +0.011 C 
ENDBRANCH  15  13
ENDBRANCH  16  15
ENDBRANCH  12   6
ENDBRANCH  10  12
TORSDOF 9
ENDMDL
MODEL 10
REMARK VINA RESULT:      -6.2     27.245     30.664
REMARK  Name = 75536522
REMARK  13 active torsions:
REMARK  status: ('A' for Active; 'I' for Inactive)
REMARK    1  A    between atoms: O_2  and  C_9
REMARK    2  A    between atoms: N_5  and  C_8
REMARK    3  A    between atoms: N_5  and  C_14
REMARK    4  A    between atoms: N_6  and  C_12
REMARK    5  A    between atoms: N_7  and  C_25
REMARK    6  A    between atoms: C_10  and  C_12
REMARK    7  A    between atoms: C_13  and  C_15
REMARK    8  A    between atoms: C_13  and  C_17
REMARK    9  A    between atoms: C_13  and  C_18
REMARK   10  A    between atoms: C_13  and  C_19
REMARK   11  A    between atoms: C_14  and  C_20
REMARK   12  A    between atoms: C_15  and  C_16
REMARK   13  A    between atoms: C_26  and  C_27
REMARK                            x       y       z     vdW  Elec       q    Type
REMARK                         _______ _______ _______ _____ _____    ______ ____
ROOT
ATOM      1  O   UNL     1      -9.094 -11.869  20.270  0.00  0.00    -0.371 OA
ATOM      8  C   UNL     1     -10.038 -10.447  18.617  0.00  0.00    +0.111 C 
ATOM      9  C   UNL     1      -8.583 -10.706  18.273  0.00  0.00    +0.164 C 
ATOM     10  C   UNL     1      -8.317 -11.980  19.065  0.00  0.00    +0.165 C 
ATOM     11  C   UNL     1     -10.074 -10.831  20.087  0.00  0.00    +0.181 C 
ENDROOT
BRANCH   9   2
ATOM      2  O   UNL     1      -8.375 -10.894  16.888  0.00  0.00    -0.388 OA
ATOM     30  H   UNL     1      -8.739 -11.760  16.637  0.00  0.00    +0.210 HD
ENDBRANCH   9   2
BRANCH   8   5
ATOM      5  N   UNL     1     -10.459  -9.077  18.380  0.00  0.00    -0.305 NA
ATOM     28  H   UNL     1      -9.758  -8.607  17.806  0.00  0.00    +0.123 HD
BRANCH   5  14
ATOM     14  C   UNL     1     -11.742  -9.033  17.687  0.00  0.00    +0.116 C 
BRANCH  14  20
ATOM     20  C   UNL     1     -11.811  -7.892  16.708  0.00  0.00    -0.033 A 
ATOM     21  C   UNL     1     -10.656  -7.181  16.383  0.00  0.00    +0.007 A 
ATOM     22  C   UNL     1     -13.031  -7.545  16.126  0.00  0.00    +0.007 A 
ATOM     23  C   UNL     1     -10.719  -6.123  15.476  0.00  0.00    +0.023 A 
ATOM     24  C   UNL     1     -13.095  -6.486  15.219  0.00  0.00    +0.023 A 
ATOM     25  C   UNL     1     -11.940  -5.776  14.894  0.00  0.00    +0.033 A 
BRANCH  25   7
ATOM      4  O   UNL     1     -12.402  -5.775  11.919  0.00  0.00    -0.276 OA
ATOM      7  N   UNL     1     -12.004  -4.717  13.988  0.00  0.00    -0.286 N 
ATOM     26  C   UNL     1     -12.222  -4.774  12.605  0.00  0.00    +0.214 C 
ATOM     27  C   UNL     1     -12.220  -3.400  11.982  0.00  0.00    +0.109 C 
ATOM     31  H   UNL     1     -11.876  -3.791  14.392  0.00  0.00    +0.155 HD
ENDBRANCH  25   7
ENDBRANCH  14  20
ENDBRANCH   5  14
ENDBRANCH   8   5
BRANCH  10  12
ATOM     12  C   UNL     1      -6.852 -12.175  19.415  0.00  0.00    +0.138 C 
BRANCH  12   6
ATOM      3  O   UNL     1      -3.985 -12.439  19.100  0.00  0.00    -0.276 OA
ATOM      6  N   UNL     1      -5.993 -11.416  18.535  0.00  0.00    -0.313 N 
ATOM     16  C   UNL     1      -4.626 -11.614  18.453  0.00  0.00    +0.214 C 
ATOM     29  H   UNL     1      -6.430 -10.712  17.947  0.00  0.00    +0.149 HD
BRANCH  16  15
ATOM     15  C   UNL     1      -3.948 -10.683  17.460  0.00  0.00    +0.102 C 
BRANCH  15  13
ATOM     13  C   UNL     1      -4.080 -11.112  15.979  0.00  0.00    -0.029 C 
ATOM     17  C   UNL     1      -4.414 -12.607  15.852  0.00  0.00    +0.011 C 
ATOM     18  C   UNL     1      -5.162 -10.288  15.259  0.00  0.00    +0.011 C 
ATOM     19  C   UNL     1      -2.729 -10.853  15.285  0.00  0.00    +0.011 C 
ENDBRANCH  15  13
ENDBRANCH  16  15
ENDBRANCH  12   6
ENDBRANCH  10  12
TORSDOF 9
ENDMDL
