MODEL 1
REMARK VINA RESULT:      -6.8      0.000      0.000
REMARK  Name = 26743246
REMARK  10 active torsions:
REMARK  status: ('A' for Active; 'I' for Inactive)
REMARK    1  A    between atoms: N_4  and  C_24
REMARK    2  A    between atoms: C_6  and  C_10
REMARK    3  A    between atoms: C_7  and  C_12
REMARK    4  A    between atoms: C_10  and  C_20
REMARK    5  A    between atoms: C_11  and  C_16
REMARK    6  A    between atoms: C_12  and  C_22
REMARK    7  A    between atoms: C_16  and  C_21
REMARK    8  A    between atoms: C_24  and  C_25
REMARK    9  A    between atoms: C_24  and  C_26
REMARK   10  A    between atoms: C_24  and  C_27
REMARK                            x       y       z     vdW  Elec       q    Type
REMARK                         _______ _______ _______ _____ _____    ______ ____
ROOT
ATOM      3  N   UNL     1      16.306   4.304   0.091  0.00  0.00    -0.316 NA
ATOM      6  C   UNL     1      13.926   4.306   0.801  0.00  0.00    +0.012 C 
ATOM      7  C   UNL     1      13.459   4.505  -0.660  0.00  0.00    +0.004 C 
ATOM      8  C   UNL     1      14.591   5.169  -1.463  0.00  0.00    +0.019 C 
ATOM      9  C   UNL     1      15.290   3.597   0.871  0.00  0.00    +0.085 C 
ATOM     13  C   UNL     1      15.922   4.432  -1.314  0.00  0.00    +0.081 C 
ATOM     28  H   UNL     1      17.191   3.801   0.154  0.00  0.00    +0.122 HD
ENDROOT
BRANCH   6  10
ATOM     10  C   UNL     1      12.898   3.577   1.666  0.00  0.00    +0.064 C 
BRANCH  10  20
ATOM      1  O   UNL     1      11.475   6.411   3.369  0.00  0.00    -0.359 OA
ATOM      5  N   UNL     1      12.473   5.801   2.619  0.00  0.00    -0.083 NA
ATOM     20  C   UNL     1      12.056   4.543   2.447  0.00  0.00    +0.084 A 
ATOM     21  C   UNL     1      10.493   5.510   3.628  0.00  0.00    +0.138 A 
ATOM     23  C   UNL     1      10.815   4.303   3.062  0.00  0.00    +0.071 A 
BRANCH  21  16
ATOM     16  C   UNL     1       9.353   5.990   4.417  0.00  0.00    +0.080 C 
BRANCH  16  11
ATOM     11  C   UNL     1       9.685   6.187   5.895  0.00  0.00    -0.004 C 
ATOM     14  C   UNL     1       8.656   7.110   6.563  0.00  0.00    +0.004 C 
ATOM     15  C   UNL     1       9.760   4.837   6.619  0.00  0.00    +0.004 C 
ATOM     17  C   UNL     1       8.936   7.281   8.054  0.00  0.00    +0.000 C 
ATOM     18  C   UNL     1      10.038   5.011   8.111  0.00  0.00    +0.000 C 
ATOM     19  C   UNL     1       9.018   5.936   8.769  0.00  0.00    +0.000 C 
ENDBRANCH  16  11
ENDBRANCH  21  16
ENDBRANCH  10  20
ENDBRANCH   6  10
BRANCH   7  12
ATOM     12  C   UNL     1      12.987   3.216  -1.345  0.00  0.00    +0.099 C 
BRANCH  12  22
ATOM      2  O   UNL     1      10.615   3.607  -1.081  0.00  0.00    -0.276 OA
ATOM      4  N   UNL     1      11.449   3.016  -3.168  0.00  0.00    -0.311 N 
ATOM     22  C   UNL     1      11.552   3.310  -1.817  0.00  0.00    +0.214 C 
ATOM     29  H   UNL     1      12.294   2.781  -3.682  0.00  0.00    +0.149 HD
BRANCH   4  24
ATOM     24  C   UNL     1      10.193   3.027  -3.884  0.00  0.00    +0.026 C 
ATOM     25  C   UNL     1       9.399   4.279  -3.497  0.00  0.00    +0.031 C 
ATOM     26  C   UNL     1      10.477   3.038  -5.390  0.00  0.00    +0.031 C 
ATOM     27  C   UNL     1       9.391   1.774  -3.516  0.00  0.00    +0.031 C 
ENDBRANCH   4  24
ENDBRANCH  12  22
ENDBRANCH   7  12
TORSDOF 7
ENDMDL
MODEL 2
REMARK VINA RESULT:      -6.4     24.084     27.386
REMARK  Name = 26743246
REMARK  10 active torsions:
REMARK  status: ('A' for Active; 'I' for Inactive)
REMARK    1  A    between atoms: N_4  and  C_24
REMARK    2  A    between atoms: C_6  and  C_10
REMARK    3  A    between atoms: C_7  and  C_12
REMARK    4  A    between atoms: C_10  and  C_20
REMARK    5  A    between atoms: C_11  and  C_16
REMARK    6  A    between atoms: C_12  and  C_22
REMARK    7  A    between atoms: C_16  and  C_21
REMARK    8  A    between atoms: C_24  and  C_25
REMARK    9  A    between atoms: C_24  and  C_26
REMARK   10  A    between atoms: C_24  and  C_27
REMARK                            x       y       z     vdW  Elec       q    Type
REMARK                         _______ _______ _______ _____ _____    ______ ____
ROOT
ATOM      3  N   UNL     1      -6.567 -11.661  20.079  0.00  0.00    -0.316 NA
ATOM      6  C   UNL     1      -5.525 -11.214  17.870  0.00  0.00    +0.012 C 
ATOM      7  C   UNL     1      -6.764 -11.780  17.137  0.00  0.00    +0.004 C 
ATOM      8  C   UNL     1      -7.496 -12.760  18.070  0.00  0.00    +0.019 C 
ATOM      9  C   UNL     1      -5.889 -10.658  19.257  0.00  0.00    +0.085 C 
ATOM     13  C   UNL     1      -7.788 -12.151  19.441  0.00  0.00    +0.081 C 
ATOM     28  H   UNL     1      -6.800 -11.254  20.985  0.00  0.00    +0.122 HD
ENDROOT
BRANCH   6  10
ATOM     10  C   UNL     1      -4.772 -10.164  17.052  0.00  0.00    +0.064 C 
BRANCH  10  20
ATOM      1  O   UNL     1      -1.837 -11.428  15.394  0.00  0.00    -0.359 OA
ATOM      5  N   UNL     1      -2.469 -10.754  16.433  0.00  0.00    -0.083 NA
ATOM     20  C   UNL     1      -3.771 -10.800  16.133  0.00  0.00    +0.084 A 
ATOM     21  C   UNL     1      -2.769 -11.856  14.505  0.00  0.00    +0.138 A 
ATOM     23  C   UNL     1      -4.017 -11.482  14.929  0.00  0.00    +0.071 A 
BRANCH  21  16
ATOM     16  C   UNL     1      -2.271 -12.592  13.336  0.00  0.00    +0.080 C 
BRANCH  16  11
ATOM     11  C   UNL     1      -2.274 -11.759  12.055  0.00  0.00    -0.004 C 
ATOM     14  C   UNL     1      -3.662 -11.778  11.401  0.00  0.00    +0.004 C 
ATOM     15  C   UNL     1      -1.824 -10.321  12.342  0.00  0.00    +0.004 C 
ATOM     17  C   UNL     1      -3.706 -10.909  10.146  0.00  0.00    +0.000 C 
ATOM     18  C   UNL     1      -1.870  -9.455  11.086  0.00  0.00    +0.000 C 
ATOM     19  C   UNL     1      -3.250  -9.482  10.434  0.00  0.00    +0.000 C 
ENDBRANCH  16  11
ENDBRANCH  21  16
ENDBRANCH  10  20
ENDBRANCH   6  10
BRANCH   7  12
ATOM     12  C   UNL     1      -7.725 -10.705  16.614  0.00  0.00    +0.099 C 
BRANCH  12  22
ATOM      2  O   UNL     1      -8.989 -11.701  14.809  0.00  0.00    -0.276 OA
ATOM      4  N   UNL     1      -7.324 -10.155  14.320  0.00  0.00    -0.311 N 
ATOM     22  C   UNL     1      -8.103 -10.928  15.166  0.00  0.00    +0.214 C 
ATOM     29  H   UNL     1      -6.616  -9.549  14.726  0.00  0.00    +0.149 HD
BRANCH   4  24
ATOM     24  C   UNL     1      -7.467 -10.170  12.881  0.00  0.00    +0.026 C 
ATOM     25  C   UNL     1      -6.519  -9.134  12.267  0.00  0.00    +0.031 C 
ATOM     26  C   UNL     1      -7.117 -11.567  12.358  0.00  0.00    +0.031 C 
ATOM     27  C   UNL     1      -8.914  -9.825  12.513  0.00  0.00    +0.031 C 
ENDBRANCH   4  24
ENDBRANCH  12  22
ENDBRANCH   7  12
TORSDOF 7
ENDMDL
MODEL 3
REMARK VINA RESULT:      -6.1     24.510     28.143
REMARK  Name = 26743246
REMARK  10 active torsions:
REMARK  status: ('A' for Active; 'I' for Inactive)
REMARK    1  A    between atoms: N_4  and  C_24
REMARK    2  A    between atoms: C_6  and  C_10
REMARK    3  A    between atoms: C_7  and  C_12
REMARK    4  A    between atoms: C_10  and  C_20
REMARK    5  A    between atoms: C_11  and  C_16
REMARK    6  A    between atoms: C_12  and  C_22
REMARK    7  A    between atoms: C_16  and  C_21
REMARK    8  A    between atoms: C_24  and  C_25
REMARK    9  A    between atoms: C_24  and  C_26
REMARK   10  A    between atoms: C_24  and  C_27
REMARK                            x       y       z     vdW  Elec       q    Type
REMARK                         _______ _______ _______ _____ _____    ______ ____
ROOT
ATOM      3  N   UNL     1      -6.220 -12.544  19.395  0.00  0.00    -0.316 NA
ATOM      6  C   UNL     1      -5.528 -11.261  17.385  0.00  0.00    +0.012 C 
ATOM      7  C   UNL     1      -7.005 -11.003  17.004  0.00  0.00    +0.004 C 
ATOM      8  C   UNL     1      -7.883 -12.105  17.622  0.00  0.00    +0.019 C 
ATOM      9  C   UNL     1      -5.359 -11.470  18.900  0.00  0.00    +0.085 C 
ATOM     13  C   UNL     1      -7.631 -12.281  19.119  0.00  0.00    +0.081 C 
ATOM     28  H   UNL     1      -6.087 -12.646  20.401  0.00  0.00    +0.122 HD
ENDROOT
BRANCH   6  10
ATOM     10  C   UNL     1      -4.580 -10.171  16.884  0.00  0.00    +0.064 C 
BRANCH  10  20
ATOM      1  O   UNL     1      -1.564 -11.277  15.260  0.00  0.00    -0.359 OA
ATOM      5  N   UNL     1      -2.245 -10.676  16.312  0.00  0.00    -0.083 NA
ATOM     20  C   UNL     1      -3.534 -10.733  15.966  0.00  0.00    +0.084 A 
ATOM     21  C   UNL     1      -2.456 -11.674  14.317  0.00  0.00    +0.138 A 
ATOM     23  C   UNL     1      -3.725 -11.351  14.719  0.00  0.00    +0.071 A 
BRANCH  21  16
ATOM     16  C   UNL     1      -1.902 -12.332  13.127  0.00  0.00    +0.080 C 
BRANCH  16  11
ATOM     11  C   UNL     1      -2.139 -11.544  11.840  0.00  0.00    -0.004 C 
ATOM     14  C   UNL     1      -3.596 -11.686  11.378  0.00  0.00    +0.004 C 
ATOM     15  C   UNL     1      -1.767 -10.069  12.031  0.00  0.00    +0.004 C 
ATOM     17  C   UNL     1      -3.871 -10.864  10.121  0.00  0.00    +0.000 C 
ATOM     18  C   UNL     1      -2.044  -9.249  10.773  0.00  0.00    +0.000 C 
ATOM     19  C   UNL     1      -3.492  -9.399  10.313  0.00  0.00    +0.000 C 
ENDBRANCH  16  11
ENDBRANCH  21  16
ENDBRANCH  10  20
ENDBRANCH   6  10
BRANCH   7  12
ATOM     12  C   UNL     1      -7.517  -9.613  17.400  0.00  0.00    +0.099 C 
BRANCH  12  22
ATOM      2  O   UNL     1      -8.879  -8.947  15.515  0.00  0.00    -0.276 OA
ATOM      4  N   UNL     1      -9.888  -9.331  17.573  0.00  0.00    -0.311 N 
ATOM     22  C   UNL     1      -8.813  -9.258  16.702  0.00  0.00    +0.214 C 
ATOM     29  H   UNL     1      -9.716  -9.600  18.539  0.00  0.00    +0.149 HD
BRANCH   4  24
ATOM     24  C   UNL     1     -11.248  -9.042  17.176  0.00  0.00    +0.026 C 
ATOM     25  C   UNL     1     -11.360  -7.563  16.792  0.00  0.00    +0.031 C 
ATOM     26  C   UNL     1     -11.614  -9.919  15.974  0.00  0.00    +0.031 C 
ATOM     27  C   UNL     1     -12.191  -9.344  18.346  0.00  0.00    +0.031 C 
ENDBRANCH   4  24
ENDBRANCH  12  22
ENDBRANCH   7  12
TORSDOF 7
ENDMDL
MODEL 4
REMARK VINA RESULT:      -6.1     28.657     33.022
REMARK  Name = 26743246
REMARK  10 active torsions:
REMARK  status: ('A' for Active; 'I' for Inactive)
REMARK    1  A    between atoms: N_4  and  C_24
REMARK    2  A    between atoms: C_6  and  C_10
REMARK    3  A    between atoms: C_7  and  C_12
REMARK    4  A    between atoms: C_10  and  C_20
REMARK    5  A    between atoms: C_11  and  C_16
REMARK    6  A    between atoms: C_12  and  C_22
REMARK    7  A    between atoms: C_16  and  C_21
REMARK    8  A    between atoms: C_24  and  C_25
REMARK    9  A    between atoms: C_24  and  C_26
REMARK   10  A    between atoms: C_24  and  C_27
REMARK                            x       y       z     vdW  Elec       q    Type
REMARK                         _______ _______ _______ _____ _____    ______ ____
ROOT
ATOM      3  N   UNL     1     -16.738   5.746  22.770  0.00  0.00    -0.316 NA
ATOM      6  C   UNL     1     -15.356   7.785  22.453  0.00  0.00    +0.012 C 
ATOM      7  C   UNL     1     -14.162   6.935  21.959  0.00  0.00    +0.004 C 
ATOM      8  C   UNL     1     -14.291   5.510  22.525  0.00  0.00    +0.019 C 
ATOM      9  C   UNL     1     -16.701   7.086  22.186  0.00  0.00    +0.085 C 
ATOM     13  C   UNL     1     -15.664   4.898  22.254  0.00  0.00    +0.081 C 
ATOM     28  H   UNL     1     -17.638   5.313  22.565  0.00  0.00    +0.122 HD
ENDROOT
BRANCH   6  10
ATOM     10  C   UNL     1     -15.364   9.202  21.878  0.00  0.00    +0.064 C 
BRANCH  10  20
ATOM      1  O   UNL     1     -12.438  11.276  22.194  0.00  0.00    -0.359 OA
ATOM      5  N   UNL     1     -13.450  10.682  21.449  0.00  0.00    -0.083 NA
ATOM     20  C   UNL     1     -14.167   9.984  22.335  0.00  0.00    +0.084 A 
ATOM     21  C   UNL     1     -12.574  10.922  23.497  0.00  0.00    +0.138 A 
ATOM     23  C   UNL     1     -13.660  10.099  23.641  0.00  0.00    +0.071 A 
BRANCH  21  16
ATOM     16  C   UNL     1     -11.580  11.466  24.431  0.00  0.00    +0.080 C 
BRANCH  16  11
ATOM     11  C   UNL     1     -11.869  11.113  25.889  0.00  0.00    -0.004 C 
ATOM     14  C   UNL     1     -10.718  10.293  26.487  0.00  0.00    +0.004 C 
ATOM     15  C   UNL     1     -12.123  12.381  26.714  0.00  0.00    +0.004 C 
ATOM     17  C   UNL     1     -10.959   9.973  27.960  0.00  0.00    +0.000 C 
ATOM     18  C   UNL     1     -12.363  12.057  28.187  0.00  0.00    +0.000 C 
ATOM     19  C   UNL     1     -11.219  11.235  28.775  0.00  0.00    +0.000 C 
ENDBRANCH  16  11
ENDBRANCH  21  16
ENDBRANCH  10  20
ENDBRANCH   6  10
BRANCH   7  12
ATOM     12  C   UNL     1     -14.007   6.904  20.433  0.00  0.00    +0.099 C 
BRANCH  12  22
ATOM      2  O   UNL     1     -11.599   6.712  20.323  0.00  0.00    -0.276 OA
ATOM      4  N   UNL     1     -12.660   8.428  19.171  0.00  0.00    -0.311 N 
ATOM     22  C   UNL     1     -12.618   7.309  19.989  0.00  0.00    +0.214 C 
ATOM     29  H   UNL     1     -13.564   8.844  18.959  0.00  0.00    +0.149 HD
BRANCH   4  24
ATOM     24  C   UNL     1     -11.478   9.035  18.602  0.00  0.00    +0.026 C 
ATOM     25  C   UNL     1     -10.490   9.371  19.725  0.00  0.00    +0.031 C 
ATOM     26  C   UNL     1     -10.834   8.051  17.621  0.00  0.00    +0.031 C 
ATOM     27  C   UNL     1     -11.874  10.319  17.865  0.00  0.00    +0.031 C 
ENDBRANCH   4  24
ENDBRANCH  12  22
ENDBRANCH   7  12
TORSDOF 7
ENDMDL
MODEL 5
REMARK VINA RESULT:      -6.1     27.711     30.019
REMARK  Name = 26743246
REMARK  10 active torsions:
REMARK  status: ('A' for Active; 'I' for Inactive)
REMARK    1  A    between atoms: N_4  and  C_24
REMARK    2  A    between atoms: C_6  and  C_10
REMARK    3  A    between atoms: C_7  and  C_12
REMARK    4  A    between atoms: C_10  and  C_20
REMARK    5  A    between atoms: C_11  and  C_16
REMARK    6  A    between atoms: C_12  and  C_22
REMARK    7  A    between atoms: C_16  and  C_21
REMARK    8  A    between atoms: C_24  and  C_25
REMARK    9  A    between atoms: C_24  and  C_26
REMARK   10  A    between atoms: C_24  and  C_27
REMARK                            x       y       z     vdW  Elec       q    Type
REMARK                         _______ _______ _______ _____ _____    ______ ____
ROOT
ATOM      3  N   UNL     1     -10.070  14.507  17.978  0.00  0.00    -0.316 NA
ATOM      6  C   UNL     1     -10.346  12.045  17.809  0.00  0.00    +0.012 C 
ATOM      7  C   UNL     1     -11.827  12.209  17.394  0.00  0.00    +0.004 C 
ATOM      8  C   UNL     1     -12.350  13.557  17.920  0.00  0.00    +0.019 C 
ATOM      9  C   UNL     1      -9.507  13.275  17.424  0.00  0.00    +0.085 C 
ATOM     13  C   UNL     1     -11.445  14.726  17.532  0.00  0.00    +0.081 C 
ATOM     28  H   UNL     1      -9.493  15.298  17.695  0.00  0.00    +0.122 HD
ENDROOT
BRANCH   6  10
ATOM     10  C   UNL     1      -9.708  10.767  17.262  0.00  0.00    +0.064 C 
BRANCH  10  20
ATOM      1  O   UNL     1     -11.082   7.576  18.205  0.00  0.00    -0.359 OA
ATOM      5  N   UNL     1     -10.690   8.515  17.259  0.00  0.00    -0.083 NA
ATOM     20  C   UNL     1     -10.229   9.549  17.968  0.00  0.00    +0.084 A 
ATOM     21  C   UNL     1     -10.849   8.069  19.448  0.00  0.00    +0.138 A 
ATOM     23  C   UNL     1     -10.306   9.323  19.353  0.00  0.00    +0.071 A 
BRANCH  21  16
ATOM     16  C   UNL     1     -11.210   7.201  20.576  0.00  0.00    +0.080 C 
BRANCH  16  11
ATOM     11  C   UNL     1     -12.715   7.136  20.828  0.00  0.00    -0.004 C 
ATOM     14  C   UNL     1     -13.083   5.853  21.586  0.00  0.00    +0.004 C 
ATOM     15  C   UNL     1     -13.191   8.378  21.593  0.00  0.00    +0.004 C 
ATOM     17  C   UNL     1     -14.576   5.790  21.896  0.00  0.00    +0.000 C 
ATOM     18  C   UNL     1     -14.684   8.311  21.904  0.00  0.00    +0.000 C 
ATOM     19  C   UNL     1     -15.047   7.030  22.650  0.00  0.00    +0.000 C 
ENDBRANCH  16  11
ENDBRANCH  21  16
ENDBRANCH  10  20
ENDBRANCH   6  10
BRANCH   7  12
ATOM     12  C   UNL     1     -12.069  12.083  15.884  0.00  0.00    +0.099 C 
BRANCH  12  22
ATOM      2  O   UNL     1     -13.736  11.029  14.483  0.00  0.00    -0.276 OA
ATOM      4  N   UNL     1     -13.360  10.208  16.624  0.00  0.00    -0.311 N 
ATOM     22  C   UNL     1     -13.144  11.068  15.559  0.00  0.00    +0.214 C 
ATOM     29  H   UNL     1     -12.811  10.333  17.471  0.00  0.00    +0.149 HD
BRANCH   4  24
ATOM     24  C   UNL     1     -14.333   9.139  16.592  0.00  0.00    +0.026 C 
ATOM     25  C   UNL     1     -14.437   8.506  17.984  0.00  0.00    +0.031 C 
ATOM     26  C   UNL     1     -15.692   9.713  16.181  0.00  0.00    +0.031 C 
ATOM     27  C   UNL     1     -13.888   8.080  15.577  0.00  0.00    +0.031 C 
ENDBRANCH   4  24
ENDBRANCH  12  22
ENDBRANCH   7  12
TORSDOF 7
ENDMDL
MODEL 6
REMARK VINA RESULT:      -6.0     24.180     27.616
REMARK  Name = 26743246
REMARK  10 active torsions:
REMARK  status: ('A' for Active; 'I' for Inactive)
REMARK    1  A    between atoms: N_4  and  C_24
REMARK    2  A    between atoms: C_6  and  C_10
REMARK    3  A    between atoms: C_7  and  C_12
REMARK    4  A    between atoms: C_10  and  C_20
REMARK    5  A    between atoms: C_11  and  C_16
REMARK    6  A    between atoms: C_12  and  C_22
REMARK    7  A    between atoms: C_16  and  C_21
REMARK    8  A    between atoms: C_24  and  C_25
REMARK    9  A    between atoms: C_24  and  C_26
REMARK   10  A    between atoms: C_24  and  C_27
REMARK                            x       y       z     vdW  Elec       q    Type
REMARK                         _______ _______ _______ _____ _____    ______ ____
ROOT
ATOM      3  N   UNL     1      -7.558 -12.342  19.941  0.00  0.00    -0.316 NA
ATOM      6  C   UNL     1      -7.303 -11.781  17.535  0.00  0.00    +0.012 C 
ATOM      7  C   UNL     1      -5.996 -11.006  17.824  0.00  0.00    +0.004 C 
ATOM      8  C   UNL     1      -6.003 -10.536  19.289  0.00  0.00    +0.019 C 
ATOM      9  C   UNL     1      -7.555 -12.881  18.581  0.00  0.00    +0.085 C 
ATOM     13  C   UNL     1      -6.298 -11.675  20.265  0.00  0.00    +0.081 C 
ATOM     28  H   UNL     1      -7.718 -13.100  20.604  0.00  0.00    +0.122 HD
ENDROOT
BRANCH   6  10
ATOM     10  C   UNL     1      -7.357 -12.362  16.122  0.00  0.00    +0.064 C 
BRANCH  10  20
ATOM      1  O   UNL     1      -8.281  -9.584  14.027  0.00  0.00    -0.359 OA
ATOM      5  N   UNL     1      -8.503 -10.448  15.093  0.00  0.00    -0.083 NA
ATOM     20  C   UNL     1      -7.456 -11.278  15.088  0.00  0.00    +0.084 A 
ATOM     21  C   UNL     1      -7.116  -9.917  13.415  0.00  0.00    +0.138 A 
ATOM     23  C   UNL     1      -6.550 -10.990  14.052  0.00  0.00    +0.071 A 
BRANCH  21  16
ATOM     16  C   UNL     1      -6.726  -9.100  12.259  0.00  0.00    +0.080 C 
BRANCH  16  11
ATOM     11  C   UNL     1      -5.874  -9.862  11.245  0.00  0.00    -0.004 C 
ATOM     14  C   UNL     1      -6.672 -10.133   9.962  0.00  0.00    +0.004 C 
ATOM     15  C   UNL     1      -4.584  -9.093  10.934  0.00  0.00    +0.004 C 
ATOM     17  C   UNL     1      -5.826 -10.847   8.912  0.00  0.00    +0.000 C 
ATOM     18  C   UNL     1      -3.740  -9.810   9.882  0.00  0.00    +0.000 C 
ATOM     19  C   UNL     1      -4.540 -10.084   8.611  0.00  0.00    +0.000 C 
ENDBRANCH  16  11
ENDBRANCH  21  16
ENDBRANCH  10  20
ENDBRANCH   6  10
BRANCH   7  12
ATOM     12  C   UNL     1      -4.720 -11.797  17.512  0.00  0.00    +0.099 C 
BRANCH  12  22
ATOM      2  O   UNL     1      -3.769  -9.840  16.454  0.00  0.00    -0.276 OA
ATOM      4  N   UNL     1      -3.054 -11.952  15.799  0.00  0.00    -0.311 N 
ATOM     22  C   UNL     1      -3.812 -11.064  16.547  0.00  0.00    +0.214 C 
ATOM     29  H   UNL     1      -3.172 -12.949  15.959  0.00  0.00    +0.149 HD
BRANCH   4  24
ATOM     24  C   UNL     1      -2.102 -11.528  14.797  0.00  0.00    +0.026 C 
ATOM     25  C   UNL     1      -1.569 -12.757  14.053  0.00  0.00    +0.031 C 
ATOM     26  C   UNL     1      -2.799 -10.587  13.811  0.00  0.00    +0.031 C 
ATOM     27  C   UNL     1      -0.941 -10.797  15.481  0.00  0.00    +0.031 C 
ENDBRANCH   4  24
ENDBRANCH  12  22
ENDBRANCH   7  12
TORSDOF 7
ENDMDL
MODEL 7
REMARK VINA RESULT:      -6.0      3.194      8.239
REMARK  Name = 26743246
REMARK  10 active torsions:
REMARK  status: ('A' for Active; 'I' for Inactive)
REMARK    1  A    between atoms: N_4  and  C_24
REMARK    2  A    between atoms: C_6  and  C_10
REMARK    3  A    between atoms: C_7  and  C_12
REMARK    4  A    between atoms: C_10  and  C_20
REMARK    5  A    between atoms: C_11  and  C_16
REMARK    6  A    between atoms: C_12  and  C_22
REMARK    7  A    between atoms: C_16  and  C_21
REMARK    8  A    between atoms: C_24  and  C_25
REMARK    9  A    between atoms: C_24  and  C_26
REMARK   10  A    between atoms: C_24  and  C_27
REMARK                            x       y       z     vdW  Elec       q    Type
REMARK                         _______ _______ _______ _____ _____    ______ ____
ROOT
ATOM      3  N   UNL     1      15.772   9.762   4.776  0.00  0.00    -0.316 NA
ATOM      6  C   UNL     1      14.065   8.113   4.046  0.00  0.00    +0.012 C 
ATOM      7  C   UNL     1      13.923   7.576   5.489  0.00  0.00    +0.004 C 
ATOM      8  C   UNL     1      15.219   7.870   6.265  0.00  0.00    +0.019 C 
ATOM      9  C   UNL     1      14.529   9.580   4.027  0.00  0.00    +0.085 C 
ATOM     13  C   UNL     1      15.637   9.337   6.168  0.00  0.00    +0.081 C 
ATOM     28  H   UNL     1      16.042  10.745   4.748  0.00  0.00    +0.122 HD
ENDROOT
BRANCH   6  10
ATOM     10  C   UNL     1      12.794   7.941   3.214  0.00  0.00    +0.064 C 
BRANCH  10  20
ATOM      1  O   UNL     1      11.614   4.576   2.722  0.00  0.00    -0.359 OA
ATOM      5  N   UNL     1      11.499   5.853   3.256  0.00  0.00    -0.083 NA
ATOM     20  C   UNL     1      12.583   6.507   2.826  0.00  0.00    +0.084 A 
ATOM     21  C   UNL     1      12.755   4.496   1.992  0.00  0.00    +0.138 A 
ATOM     23  C   UNL     1      13.410   5.700   2.026  0.00  0.00    +0.071 A 
BRANCH  21  16
ATOM     16  C   UNL     1      13.036   3.205   1.351  0.00  0.00    +0.080 C 
BRANCH  16  11
ATOM     11  C   UNL     1      12.793   3.217  -0.157  0.00  0.00    -0.004 C 
ATOM     14  C   UNL     1      11.456   3.896  -0.486  0.00  0.00    +0.004 C 
ATOM     15  C   UNL     1      13.951   3.908  -0.887  0.00  0.00    +0.004 C 
ATOM     17  C   UNL     1      11.216   3.967  -1.991  0.00  0.00    +0.000 C 
ATOM     18  C   UNL     1      13.707   3.980  -2.393  0.00  0.00    +0.000 C 
ATOM     19  C   UNL     1      12.373   4.648  -2.715  0.00  0.00    +0.000 C 
ENDBRANCH  16  11
ENDBRANCH  21  16
ENDBRANCH  10  20
ENDBRANCH   6  10
BRANCH   7  12
ATOM     12  C   UNL     1      12.703   8.123   6.241  0.00  0.00    +0.099 C 
BRANCH  12  22
ATOM      2  O   UNL     1      12.158   6.203   7.606  0.00  0.00    -0.276 OA
ATOM      4  N   UNL     1      10.559   7.061   6.154  0.00  0.00    -0.311 N 
ATOM     22  C   UNL     1      11.806   7.020   6.759  0.00  0.00    +0.214 C 
ATOM     29  H   UNL     1      10.377   7.784   5.463  0.00  0.00    +0.149 HD
BRANCH   4  24
ATOM     24  C   UNL     1       9.502   6.122   6.458  0.00  0.00    +0.026 C 
ATOM     25  C   UNL     1       9.210   6.157   7.962  0.00  0.00    +0.031 C 
ATOM     26  C   UNL     1       8.245   6.516   5.676  0.00  0.00    +0.031 C 
ATOM     27  C   UNL     1       9.946   4.712   6.053  0.00  0.00    +0.031 C 
ENDBRANCH   4  24
ENDBRANCH  12  22
ENDBRANCH   7  12
TORSDOF 7
ENDMDL
MODEL 8
REMARK VINA RESULT:      -5.9     23.273     26.038
REMARK  Name = 26743246
REMARK  10 active torsions:
REMARK  status: ('A' for Active; 'I' for Inactive)
REMARK    1  A    between atoms: N_4  and  C_24
REMARK    2  A    between atoms: C_6  and  C_10
REMARK    3  A    between atoms: C_7  and  C_12
REMARK    4  A    between atoms: C_10  and  C_20
REMARK    5  A    between atoms: C_11  and  C_16
REMARK    6  A    between atoms: C_12  and  C_22
REMARK    7  A    between atoms: C_16  and  C_21
REMARK    8  A    between atoms: C_24  and  C_25
REMARK    9  A    between atoms: C_24  and  C_26
REMARK   10  A    between atoms: C_24  and  C_27
REMARK                            x       y       z     vdW  Elec       q    Type
REMARK                         _______ _______ _______ _____ _____    ______ ____
ROOT
ATOM      3  N   UNL     1      -4.783  -8.578   8.839  0.00  0.00    -0.316 NA
ATOM      6  C   UNL     1      -3.965  -9.729  10.881  0.00  0.00    +0.012 C 
ATOM      7  C   UNL     1      -5.391  -9.747  11.479  0.00  0.00    +0.004 C 
ATOM      8  C   UNL     1      -6.213  -8.606  10.853  0.00  0.00    +0.019 C 
ATOM      9  C   UNL     1      -3.992  -9.700   9.343  0.00  0.00    +0.085 C 
ATOM     13  C   UNL     1      -6.160  -8.619   9.326  0.00  0.00    +0.081 C 
ATOM     28  H   UNL     1      -4.784  -8.598   7.819  0.00  0.00    +0.122 HD
ENDROOT
BRANCH   6  10
ATOM     10  C   UNL     1      -3.091 -10.880  11.382  0.00  0.00    +0.064 C 
BRANCH  10  20
ATOM      1  O   UNL     1      -1.457  -9.922  14.443  0.00  0.00    -0.359 OA
ATOM      5  N   UNL     1      -1.570  -9.925  13.058  0.00  0.00    -0.083 NA
ATOM     20  C   UNL     1      -2.656 -10.660  12.801  0.00  0.00    +0.084 A 
ATOM     21  C   UNL     1      -2.471 -10.651  14.977  0.00  0.00    +0.138 A 
ATOM     23  C   UNL     1      -3.263 -11.143  13.973  0.00  0.00    +0.071 A 
BRANCH  21  16
ATOM     16  C   UNL     1      -2.505 -10.754  16.441  0.00  0.00    +0.080 C 
BRANCH  16  11
ATOM     11  C   UNL     1      -3.877 -11.149  16.984  0.00  0.00    -0.004 C 
ATOM     14  C   UNL     1      -3.747 -11.774  18.380  0.00  0.00    +0.004 C 
ATOM     15  C   UNL     1      -4.818  -9.938  17.013  0.00  0.00    +0.004 C 
ATOM     17  C   UNL     1      -5.111 -12.129  18.967  0.00  0.00    +0.000 C 
ATOM     18  C   UNL     1      -6.181 -10.296  17.602  0.00  0.00    +0.000 C 
ATOM     19  C   UNL     1      -6.047 -10.925  18.986  0.00  0.00    +0.000 C 
ENDBRANCH  16  11
ENDBRANCH  21  16
ENDBRANCH  10  20
ENDBRANCH   6  10
BRANCH   7  12
ATOM     12  C   UNL     1      -6.117 -11.089  11.322  0.00  0.00    +0.099 C 
BRANCH  12  22
ATOM      2  O   UNL     1      -8.511 -11.335  11.079  0.00  0.00    -0.276 OA
ATOM      4  N   UNL     1      -7.641 -10.563  13.091  0.00  0.00    -0.311 N 
ATOM     22  C   UNL     1      -7.556 -11.021  11.786  0.00  0.00    +0.214 C 
ATOM     29  H   UNL     1      -6.782 -10.331  13.584  0.00  0.00    +0.149 HD
BRANCH   4  24
ATOM     24  C   UNL     1      -8.896 -10.398  13.790  0.00  0.00    +0.026 C 
ATOM     25  C   UNL     1      -9.446 -11.774  14.177  0.00  0.00    +0.031 C 
ATOM     26  C   UNL     1      -8.658  -9.561  15.051  0.00  0.00    +0.031 C 
ATOM     27  C   UNL     1      -9.895  -9.683  12.874  0.00  0.00    +0.031 C 
ENDBRANCH   4  24
ENDBRANCH  12  22
ENDBRANCH   7  12
TORSDOF 7
ENDMDL
MODEL 9
REMARK VINA RESULT:      -5.9     23.271     25.578
REMARK  Name = 26743246
REMARK  10 active torsions:
REMARK  status: ('A' for Active; 'I' for Inactive)
REMARK    1  A    between atoms: N_4  and  C_24
REMARK    2  A    between atoms: C_6  and  C_10
REMARK    3  A    between atoms: C_7  and  C_12
REMARK    4  A    between atoms: C_10  and  C_20
REMARK    5  A    between atoms: C_11  and  C_16
REMARK    6  A    between atoms: C_12  and  C_22
REMARK    7  A    between atoms: C_16  and  C_21
REMARK    8  A    between atoms: C_24  and  C_25
REMARK    9  A    between atoms: C_24  and  C_26
REMARK   10  A    between atoms: C_24  and  C_27
REMARK                            x       y       z     vdW  Elec       q    Type
REMARK                         _______ _______ _______ _____ _____    ______ ____
ROOT
ATOM      3  N   UNL     1      -9.371 -10.522   5.895  0.00  0.00    -0.316 NA
ATOM      6  C   UNL     1      -8.877  -8.499   7.248  0.00  0.00    +0.012 C 
ATOM      7  C   UNL     1      -7.936  -9.309   8.170  0.00  0.00    +0.004 C 
ATOM      8  C   UNL     1      -8.342 -10.792   8.125  0.00  0.00    +0.019 C 
ATOM      9  C   UNL     1      -8.966  -9.117   5.842  0.00  0.00    +0.085 C 
ATOM     13  C   UNL     1      -8.448 -11.324   6.696  0.00  0.00    +0.081 C 
ATOM     28  H   UNL     1      -9.410 -10.898   4.948  0.00  0.00    +0.122 HD
ENDROOT
BRANCH   6  10
ATOM     10  C   UNL     1      -8.504  -7.019   7.161  0.00  0.00    +0.064 C 
BRANCH  10  20
ATOM      1  O   UNL     1     -11.538  -5.461   8.312  0.00  0.00    -0.359 OA
ATOM      5  N   UNL     1     -10.850  -6.445   7.613  0.00  0.00    -0.083 NA
ATOM     20  C   UNL     1      -9.558  -6.151   7.785  0.00  0.00    +0.084 A 
ATOM     21  C   UNL     1     -10.648  -4.609   8.880  0.00  0.00    +0.138 A 
ATOM     23  C   UNL     1      -9.372  -5.004   8.575  0.00  0.00    +0.071 A 
BRANCH  21  16
ATOM     16  C   UNL     1     -11.209  -3.500   9.662  0.00  0.00    +0.080 C 
BRANCH  16  11
ATOM     11  C   UNL     1     -12.394  -3.917  10.532  0.00  0.00    -0.004 C 
ATOM     14  C   UNL     1     -12.142  -3.552  12.001  0.00  0.00    +0.004 C 
ATOM     15  C   UNL     1     -13.692  -3.276  10.024  0.00  0.00    +0.004 C 
ATOM     17  C   UNL     1     -13.335  -3.911  12.884  0.00  0.00    +0.000 C 
ATOM     18  C   UNL     1     -14.883  -3.635  10.910  0.00  0.00    +0.000 C 
ATOM     19  C   UNL     1     -14.625  -3.278  12.371  0.00  0.00    +0.000 C 
ENDBRANCH  16  11
ENDBRANCH  21  16
ENDBRANCH  10  20
ENDBRANCH   6  10
BRANCH   7  12
ATOM     12  C   UNL     1      -6.447  -9.141   7.844  0.00  0.00    +0.099 C 
BRANCH  12  22
ATOM      2  O   UNL     1      -5.514  -7.943   9.726  0.00  0.00    -0.276 OA
ATOM      4  N   UNL     1      -4.949 -10.173   9.400  0.00  0.00    -0.311 N 
ATOM     22  C   UNL     1      -5.600  -8.989   9.089  0.00  0.00    +0.214 C 
ATOM     29  H   UNL     1      -5.092 -10.981   8.800  0.00  0.00    +0.149 HD
BRANCH   4  24
ATOM     24  C   UNL     1      -4.070 -10.315  10.540  0.00  0.00    +0.026 C 
ATOM     25  C   UNL     1      -3.514 -11.743  10.576  0.00  0.00    +0.031 C 
ATOM     26  C   UNL     1      -2.919  -9.313  10.411  0.00  0.00    +0.031 C 
ATOM     27  C   UNL     1      -4.859 -10.038  11.824  0.00  0.00    +0.031 C 
ENDBRANCH   4  24
ENDBRANCH  12  22
ENDBRANCH   7  12
TORSDOF 7
ENDMDL
MODEL 10
REMARK VINA RESULT:      -5.8     23.618     26.190
REMARK  Name = 26743246
REMARK  10 active torsions:
REMARK  status: ('A' for Active; 'I' for Inactive)
REMARK    1  A    between atoms: N_4  and  C_24
REMARK    2  A    between atoms: C_6  and  C_10
REMARK    3  A    between atoms: C_7  and  C_12
REMARK    4  A    between atoms: C_10  and  C_20
REMARK    5  A    between atoms: C_11  and  C_16
REMARK    6  A    between atoms: C_12  and  C_22
REMARK    7  A    between atoms: C_16  and  C_21
REMARK    8  A    between atoms: C_24  and  C_25
REMARK    9  A    between atoms: C_24  and  C_26
REMARK   10  A    between atoms: C_24  and  C_27
REMARK                            x       y       z     vdW  Elec       q    Type
REMARK                         _______ _______ _______ _____ _____    ______ ____
ROOT
ATOM      3  N   UNL     1      -4.881  -8.436   9.145  0.00  0.00    -0.316 NA
ATOM      6  C   UNL     1      -4.167 -10.144  10.800  0.00  0.00    +0.012 C 
ATOM      7  C   UNL     1      -5.627 -10.623  10.980  0.00  0.00    +0.004 C 
ATOM      8  C   UNL     1      -6.582  -9.477  10.603  0.00  0.00    +0.019 C 
ATOM      9  C   UNL     1      -3.940  -9.524   9.411  0.00  0.00    +0.085 C 
ATOM     13  C   UNL     1      -6.270  -8.886   9.229  0.00  0.00    +0.081 C 
ATOM     28  H   UNL     1      -4.705  -8.058   8.214  0.00  0.00    +0.122 HD
ENDROOT
BRANCH   6  10
ATOM     10  C   UNL     1      -3.138 -11.242  11.073  0.00  0.00    +0.064 C 
BRANCH  10  20
ATOM      1  O   UNL     1      -1.756 -11.960  14.318  0.00  0.00    -0.359 OA
ATOM      5  N   UNL     1      -1.846 -12.166  12.947  0.00  0.00    -0.083 NA
ATOM     20  C   UNL     1      -2.775 -11.302  12.528  0.00  0.00    +0.084 A 
ATOM     21  C   UNL     1      -2.627 -10.985  14.683  0.00  0.00    +0.138 A 
ATOM     23  C   UNL     1      -3.301 -10.532  13.580  0.00  0.00    +0.071 A 
BRANCH  21  16
ATOM     16  C   UNL     1      -2.662 -10.638  16.109  0.00  0.00    +0.080 C 
BRANCH  16  11
ATOM     11  C   UNL     1      -3.961 -11.055  16.798  0.00  0.00    -0.004 C 
ATOM     14  C   UNL     1      -3.691 -11.493  18.244  0.00  0.00    +0.004 C 
ATOM     15  C   UNL     1      -4.988  -9.917  16.754  0.00  0.00    +0.004 C 
ATOM     17  C   UNL     1      -4.981 -11.866  18.970  0.00  0.00    +0.000 C 
ATOM     18  C   UNL     1      -6.277 -10.292  17.483  0.00  0.00    +0.000 C 
ATOM     19  C   UNL     1      -6.003 -10.735  18.917  0.00  0.00    +0.000 C 
ENDBRANCH  16  11
ENDBRANCH  21  16
ENDBRANCH  10  20
ENDBRANCH   6  10
BRANCH   7  12
ATOM     12  C   UNL     1      -5.968 -11.896  10.196  0.00  0.00    +0.099 C 
BRANCH  12  22
ATOM      2  O   UNL     1      -7.056 -13.998  10.695  0.00  0.00    -0.276 OA
ATOM      4  N   UNL     1      -6.070 -12.786  12.415  0.00  0.00    -0.311 N 
ATOM     22  C   UNL     1      -6.435 -13.018  11.098  0.00  0.00    +0.214 C 
ATOM     29  H   UNL     1      -5.556 -11.938  12.637  0.00  0.00    +0.149 HD
BRANCH   4  24
ATOM     24  C   UNL     1      -6.388 -13.695  13.494  0.00  0.00    +0.026 C 
ATOM     25  C   UNL     1      -5.799 -15.075  13.184  0.00  0.00    +0.031 C 
ATOM     26  C   UNL     1      -5.787 -13.155  14.796  0.00  0.00    +0.031 C 
ATOM     27  C   UNL     1      -7.911 -13.804  13.632  0.00  0.00    +0.031 C 
ENDBRANCH   4  24
ENDBRANCH  12  22
ENDBRANCH   7  12
TORSDOF 7
ENDMDL
