MODEL 1
REMARK VINA RESULT:      -7.1      0.000      0.000
REMARK  Name = 51136987
REMARK  2 active torsions:
REMARK  status: ('A' for Active; 'I' for Inactive)
REMARK    1  A    between atoms: C_6  and  C_10
REMARK    2  A    between atoms: C_11  and  C_14
REMARK                            x       y       z     vdW  Elec       q    Type
REMARK                         _______ _______ _______ _____ _____    ______ ____
ROOT
ATOM      3  O   UNL     1      11.278   8.449  22.743  0.00  0.00    -0.270 OA
ATOM      4  N   UNL     1      12.365   8.555  20.693  0.00  0.00    -0.297 N 
ATOM      6  C   UNL     1      13.756   8.109  18.815  0.00  0.00    +0.094 C 
ATOM      7  C   UNL     1      12.657   7.039  18.909  0.00  0.00    +0.033 C 
ATOM      8  C   UNL     1      13.179   9.235  19.684  0.00  0.00    +0.121 C 
ATOM      9  C   UNL     1      12.150   7.161  20.340  0.00  0.00    +0.109 C 
ATOM     11  C   UNL     1      11.897   9.079  21.889  0.00  0.00    +0.247 C 
ENDROOT
BRANCH   6  10
ATOM      1 CL   UNL     1      20.407   4.776  20.374  0.00  0.00    -0.083 Cl
ATOM      2  O   UNL     1      15.775   8.270  20.180  0.00  0.00    -0.439 OA
ATOM      5  N   UNL     1      15.724   6.483  18.787  0.00  0.00    -0.213 NA
ATOM     10  C   UNL     1      15.110   7.559  19.228  0.00  0.00    +0.201 A 
ATOM     12  C   UNL     1      16.897   6.473  19.503  0.00  0.00    +0.111 A 
ATOM     13  C   UNL     1      16.933   7.565  20.357  0.00  0.00    +0.155 A 
ATOM     15  C   UNL     1      17.982   5.584  19.493  0.00  0.00    +0.051 A 
ATOM     16  C   UNL     1      17.977   7.859  21.225  0.00  0.00    +0.050 A 
ATOM     19  C   UNL     1      19.056   5.847  20.356  0.00  0.00    +0.043 A 
ATOM     20  C   UNL     1      19.051   6.962  21.203  0.00  0.00    +0.024 A 
ENDBRANCH   6  10
BRANCH  11  14
ATOM     14  C   UNL     1      12.177  10.497  22.165  0.00  0.00    +0.037 A 
ATOM     17  C   UNL     1      11.348  11.487  21.639  0.00  0.00    +0.013 A 
ATOM     18  C   UNL     1      13.272  10.850  22.954  0.00  0.00    +0.013 A 
ATOM     21  C   UNL     1      11.613  12.831  21.902  0.00  0.00    +0.001 A 
ATOM     22  C   UNL     1      13.537  12.193  23.217  0.00  0.00    +0.001 A 
ATOM     23  C   UNL     1      12.707  13.185  22.692  0.00  0.00    +0.000 A 
ENDBRANCH  11  14
TORSDOF 2
ENDMDL
MODEL 2
REMARK VINA RESULT:      -6.6     26.909     28.537
REMARK  Name = 51136987
REMARK  2 active torsions:
REMARK  status: ('A' for Active; 'I' for Inactive)
REMARK    1  A    between atoms: C_6  and  C_10
REMARK    2  A    between atoms: C_11  and  C_14
REMARK                            x       y       z     vdW  Elec       q    Type
REMARK                         _______ _______ _______ _____ _____    ______ ____
ROOT
ATOM      3  O   UNL     1      -3.787 -12.921  11.116  0.00  0.00    -0.270 OA
ATOM      4  N   UNL     1      -2.914 -11.560  12.784  0.00  0.00    -0.297 N 
ATOM      6  C   UNL     1      -2.297 -10.621  14.881  0.00  0.00    +0.094 C 
ATOM      7  C   UNL     1      -1.546 -11.944  14.668  0.00  0.00    +0.033 C 
ATOM      8  C   UNL     1      -2.735 -10.270  13.452  0.00  0.00    +0.121 C 
ATOM      9  C   UNL     1      -2.338 -12.641  13.569  0.00  0.00    +0.109 C 
ATOM     11  C   UNL     1      -3.599 -11.809  11.605  0.00  0.00    +0.247 C 
ENDROOT
BRANCH   6  10
ATOM      1 CL   UNL     1      -8.300 -11.024  19.525  0.00  0.00    -0.083 Cl
ATOM      2  O   UNL     1      -3.026 -11.287  17.115  0.00  0.00    -0.439 OA
ATOM      5  N   UNL     1      -4.671 -10.445  15.803  0.00  0.00    -0.213 NA
ATOM     10  C   UNL     1      -3.401 -10.763  15.915  0.00  0.00    +0.201 A 
ATOM     12  C   UNL     1      -5.191 -10.783  17.030  0.00  0.00    +0.111 A 
ATOM     13  C   UNL     1      -4.188 -11.299  17.836  0.00  0.00    +0.155 A 
ATOM     15  C   UNL     1      -6.492 -10.689  17.543  0.00  0.00    +0.051 A 
ATOM     16  C   UNL     1      -4.367 -11.740  19.141  0.00  0.00    +0.050 A 
ATOM     19  C   UNL     1      -6.714 -11.125  18.858  0.00  0.00    +0.043 A 
ATOM     20  C   UNL     1      -5.671 -11.640  19.638  0.00  0.00    +0.024 A 
ENDBRANCH   6  10
BRANCH  11  14
ATOM     14  C   UNL     1      -4.159 -10.652  10.888  0.00  0.00    +0.037 A 
ATOM     17  C   UNL     1      -5.485 -10.275  11.099  0.00  0.00    +0.013 A 
ATOM     18  C   UNL     1      -3.363  -9.932   9.997  0.00  0.00    +0.013 A 
ATOM     21  C   UNL     1      -6.015  -9.178  10.420  0.00  0.00    +0.001 A 
ATOM     22  C   UNL     1      -3.892  -8.835   9.319  0.00  0.00    +0.001 A 
ATOM     23  C   UNL     1      -5.218  -8.457   9.530  0.00  0.00    +0.000 A 
ENDBRANCH  11  14
TORSDOF 2
ENDMDL
MODEL 3
REMARK VINA RESULT:      -6.5     30.832     32.256
REMARK  Name = 51136987
REMARK  2 active torsions:
REMARK  status: ('A' for Active; 'I' for Inactive)
REMARK    1  A    between atoms: C_6  and  C_10
REMARK    2  A    between atoms: C_11  and  C_14
REMARK                            x       y       z     vdW  Elec       q    Type
REMARK                         _______ _______ _______ _____ _____    ______ ____
ROOT
ATOM      3  O   UNL     1     -12.337   3.577  31.588  0.00  0.00    -0.270 OA
ATOM      4  N   UNL     1     -14.215   2.312  31.071  0.00  0.00    -0.297 N 
ATOM      6  C   UNL     1     -15.869   1.028  29.941  0.00  0.00    +0.094 C 
ATOM      7  C   UNL     1     -14.554   0.236  30.003  0.00  0.00    +0.033 C 
ATOM      8  C   UNL     1     -15.660   2.078  31.041  0.00  0.00    +0.121 C 
ATOM      9  C   UNL     1     -13.504   1.294  30.315  0.00  0.00    +0.109 C 
ATOM     11  C   UNL     1     -13.549   3.381  31.650  0.00  0.00    +0.247 C 
ENDROOT
BRANCH   6  10
ATOM      1 CL   UNL     1     -16.938   4.343  23.186  0.00  0.00    -0.083 Cl
ATOM      2  O   UNL     1     -16.700   0.668  27.672  0.00  0.00    -0.439 OA
ATOM      5  N   UNL     1     -15.906   2.755  28.061  0.00  0.00    -0.213 NA
ATOM     10  C   UNL     1     -16.140   1.554  28.542  0.00  0.00    +0.201 A 
ATOM     12  C   UNL     1     -16.346   2.667  26.762  0.00  0.00    +0.111 A 
ATOM     13  C   UNL     1     -16.833   1.391  26.520  0.00  0.00    +0.155 A 
ATOM     15  C   UNL     1     -16.370   3.610  25.725  0.00  0.00    +0.051 A 
ATOM     16  C   UNL     1     -17.356   0.959  25.307  0.00  0.00    +0.050 A 
ATOM     19  C   UNL     1     -16.891   3.210  24.485  0.00  0.00    +0.043 A 
ATOM     20  C   UNL     1     -17.373   1.911  24.283  0.00  0.00    +0.024 A 
ENDBRANCH   6  10
BRANCH  11  14
ATOM     14  C   UNL     1     -14.356   4.368  32.384  0.00  0.00    +0.037 A 
ATOM     17  C   UNL     1     -14.933   5.441  31.705  0.00  0.00    +0.013 A 
ATOM     18  C   UNL     1     -14.545   4.230  33.759  0.00  0.00    +0.013 A 
ATOM     21  C   UNL     1     -15.699   6.376  32.401  0.00  0.00    +0.001 A 
ATOM     22  C   UNL     1     -15.311   5.164  34.455  0.00  0.00    +0.001 A 
ATOM     23  C   UNL     1     -15.889   6.238  33.776  0.00  0.00    +0.000 A 
ENDBRANCH  11  14
TORSDOF 2
ENDMDL
MODEL 4
REMARK VINA RESULT:      -6.5      4.047      7.105
REMARK  Name = 51136987
REMARK  2 active torsions:
REMARK  status: ('A' for Active; 'I' for Inactive)
REMARK    1  A    between atoms: C_6  and  C_10
REMARK    2  A    between atoms: C_11  and  C_14
REMARK                            x       y       z     vdW  Elec       q    Type
REMARK                         _______ _______ _______ _____ _____    ______ ____
ROOT
ATOM      3  O   UNL     1      12.109   6.455  19.396  0.00  0.00    -0.270 OA
ATOM      4  N   UNL     1      13.637   8.037  20.145  0.00  0.00    -0.297 N 
ATOM      6  C   UNL     1      14.810   9.649  21.442  0.00  0.00    +0.094 C 
ATOM      7  C   UNL     1      14.936   8.267  22.100  0.00  0.00    +0.033 C 
ATOM      8  C   UNL     1      14.393   9.283  20.011  0.00  0.00    +0.121 C 
ATOM      9  C   UNL     1      13.814   7.457  21.467  0.00  0.00    +0.109 C 
ATOM     11  C   UNL     1      12.782   7.467  19.213  0.00  0.00    +0.247 C 
ENDROOT
BRANCH   6  10
ATOM      1 CL   UNL     1      10.526  14.033  25.936  0.00  0.00    -0.083 Cl
ATOM      2  O   UNL     1      12.836  11.087  21.500  0.00  0.00    -0.439 OA
ATOM      5  N   UNL     1      13.912  10.890  23.485  0.00  0.00    -0.213 NA
ATOM     10  C   UNL     1      13.866  10.554  22.215  0.00  0.00    +0.201 A 
ATOM     12  C   UNL     1      12.823  11.715  23.634  0.00  0.00    +0.111 A 
ATOM     13  C   UNL     1      12.162  11.839  22.422  0.00  0.00    +0.155 A 
ATOM     15  C   UNL     1      12.324  12.399  24.752  0.00  0.00    +0.051 A 
ATOM     16  C   UNL     1      11.018  12.601  22.216  0.00  0.00    +0.050 A 
ATOM     19  C   UNL     1      11.170  13.179  24.584  0.00  0.00    +0.043 A 
ATOM     20  C   UNL     1      10.533  13.276  23.341  0.00  0.00    +0.024 A 
ENDBRANCH   6  10
BRANCH  11  14
ATOM     14  C   UNL     1      12.658   8.135  17.908  0.00  0.00    +0.037 A 
ATOM     17  C   UNL     1      11.406   8.541  17.448  0.00  0.00    +0.013 A 
ATOM     18  C   UNL     1      13.794   8.362  17.131  0.00  0.00    +0.013 A 
ATOM     21  C   UNL     1      11.289   9.175  16.211  0.00  0.00    +0.001 A 
ATOM     22  C   UNL     1      13.678   8.996  15.895  0.00  0.00    +0.001 A 
ATOM     23  C   UNL     1      12.425   9.403  15.434  0.00  0.00    +0.000 A 
ENDBRANCH  11  14
TORSDOF 2
ENDMDL
MODEL 5
REMARK VINA RESULT:      -6.4      2.326      3.778
REMARK  Name = 51136987
REMARK  2 active torsions:
REMARK  status: ('A' for Active; 'I' for Inactive)
REMARK    1  A    between atoms: C_6  and  C_10
REMARK    2  A    between atoms: C_11  and  C_14
REMARK                            x       y       z     vdW  Elec       q    Type
REMARK                         _______ _______ _______ _____ _____    ______ ____
ROOT
ATOM      3  O   UNL     1      13.153   9.631  18.439  0.00  0.00    -0.270 OA
ATOM      4  N   UNL     1      14.544   9.893  20.281  0.00  0.00    -0.297 N 
ATOM      6  C   UNL     1      16.429   9.981  21.730  0.00  0.00    +0.094 C 
ATOM      7  C   UNL     1      16.537  11.093  20.676  0.00  0.00    +0.033 C 
ATOM      8  C   UNL     1      14.937   9.625  21.665  0.00  0.00    +0.121 C 
ATOM      9  C   UNL     1      15.567  10.658  19.585  0.00  0.00    +0.109 C 
ATOM     11  C   UNL     1      13.408   9.442  19.627  0.00  0.00    +0.247 C 
ENDROOT
BRANCH   6  10
ATOM      1 CL   UNL     1      21.833   4.711  20.836  0.00  0.00    -0.083 Cl
ATOM      2  O   UNL     1      16.973   7.877  20.614  0.00  0.00    -0.439 OA
ATOM      5  N   UNL     1      18.627   8.696  21.929  0.00  0.00    -0.213 NA
ATOM     10  C   UNL     1      17.409   8.853  21.458  0.00  0.00    +0.201 A 
ATOM     12  C   UNL     1      19.040   7.518  21.354  0.00  0.00    +0.111 A 
ATOM     13  C   UNL     1      18.030   7.014  20.548  0.00  0.00    +0.155 A 
ATOM     15  C   UNL     1      20.244   6.808  21.457  0.00  0.00    +0.051 A 
ATOM     16  C   UNL     1      18.114   5.835  19.817  0.00  0.00    +0.050 A 
ATOM     19  C   UNL     1      20.367   5.612  20.734  0.00  0.00    +0.043 A 
ATOM     20  C   UNL     1      19.322   5.138  19.931  0.00  0.00    +0.024 A 
ENDBRANCH   6  10
BRANCH  11  14
ATOM     14  C   UNL     1      12.437   8.664  20.411  0.00  0.00    +0.037 A 
ATOM     17  C   UNL     1      11.452   9.317  21.151  0.00  0.00    +0.013 A 
ATOM     18  C   UNL     1      12.501   7.270  20.414  0.00  0.00    +0.013 A 
ATOM     21  C   UNL     1      10.531   8.579  21.893  0.00  0.00    +0.001 A 
ATOM     22  C   UNL     1      11.580   6.531  21.155  0.00  0.00    +0.001 A 
ATOM     23  C   UNL     1      10.594   7.185  21.896  0.00  0.00    +0.000 A 
ENDBRANCH  11  14
TORSDOF 2
ENDMDL
MODEL 6
REMARK VINA RESULT:      -6.2     27.729     29.555
REMARK  Name = 51136987
REMARK  2 active torsions:
REMARK  status: ('A' for Active; 'I' for Inactive)
REMARK    1  A    between atoms: C_6  and  C_10
REMARK    2  A    between atoms: C_11  and  C_14
REMARK                            x       y       z     vdW  Elec       q    Type
REMARK                         _______ _______ _______ _____ _____    ______ ____
ROOT
ATOM      3  O   UNL     1      -4.401 -13.791  14.037  0.00  0.00    -0.270 OA
ATOM      4  N   UNL     1      -4.297 -12.102  15.628  0.00  0.00    -0.297 N 
ATOM      6  C   UNL     1      -4.793 -10.597  17.403  0.00  0.00    +0.094 C 
ATOM      7  C   UNL     1      -4.639 -12.021  17.961  0.00  0.00    +0.033 C 
ATOM      8  C   UNL     1      -4.094 -10.712  16.042  0.00  0.00    +0.121 C 
ATOM      9  C   UNL     1      -4.783 -12.911  16.734  0.00  0.00    +0.109 C 
ATOM     11  C   UNL     1      -4.148 -12.631  14.355  0.00  0.00    +0.247 C 
ENDROOT
BRANCH   6  10
ATOM      1 CL   UNL     1     -11.870  -7.906  16.739  0.00  0.00    -0.083 Cl
ATOM      2  O   UNL     1      -7.059 -10.754  18.301  0.00  0.00    -0.439 OA
ATOM      5  N   UNL     1      -6.822  -9.271  16.604  0.00  0.00    -0.213 NA
ATOM     10  C   UNL     1      -6.246 -10.156  17.386  0.00  0.00    +0.201 A 
ATOM     12  C   UNL     1      -8.129  -9.275  17.030  0.00  0.00    +0.111 A 
ATOM     13  C   UNL     1      -8.278 -10.181  18.068  0.00  0.00    +0.155 A 
ATOM     15  C   UNL     1      -9.248  -8.550  16.597  0.00  0.00    +0.051 A 
ATOM     16  C   UNL     1      -9.472 -10.437  18.732  0.00  0.00    +0.050 A 
ATOM     19  C   UNL     1     -10.472  -8.780  17.243  0.00  0.00    +0.043 A 
ATOM     20  C   UNL     1     -10.579  -9.705  18.288  0.00  0.00    +0.024 A 
ENDBRANCH   6  10
BRANCH  11  14
ATOM     14  C   UNL     1      -3.665 -11.730  13.298  0.00  0.00    +0.037 A 
ATOM     17  C   UNL     1      -2.297 -11.609  13.055  0.00  0.00    +0.013 A 
ATOM     18  C   UNL     1      -4.575 -10.997  12.536  0.00  0.00    +0.013 A 
ATOM     21  C   UNL     1      -1.839 -10.756  12.052  0.00  0.00    +0.001 A 
ATOM     22  C   UNL     1      -4.118 -10.145  11.532  0.00  0.00    +0.001 A 
ATOM     23  C   UNL     1      -2.749 -10.023  11.289  0.00  0.00    +0.000 A 
ENDBRANCH  11  14
TORSDOF 2
ENDMDL
MODEL 7
REMARK VINA RESULT:      -6.1     27.210     28.908
REMARK  Name = 51136987
REMARK  2 active torsions:
REMARK  status: ('A' for Active; 'I' for Inactive)
REMARK    1  A    between atoms: C_6  and  C_10
REMARK    2  A    between atoms: C_11  and  C_14
REMARK                            x       y       z     vdW  Elec       q    Type
REMARK                         _______ _______ _______ _____ _____    ______ ____
ROOT
ATOM      3  O   UNL     1      -4.699 -13.320  10.313  0.00  0.00    -0.270 OA
ATOM      4  N   UNL     1      -3.420 -11.882  11.615  0.00  0.00    -0.297 N 
ATOM      6  C   UNL     1      -2.306 -10.818  13.428  0.00  0.00    +0.094 C 
ATOM      7  C   UNL     1      -1.668 -12.191  13.165  0.00  0.00    +0.033 C 
ATOM      8  C   UNL     1      -3.051 -10.556  12.112  0.00  0.00    +0.121 C 
ATOM      9  C   UNL     1      -2.714 -12.927  12.339  0.00  0.00    +0.109 C 
ATOM     11  C   UNL     1      -4.367 -12.185  10.648  0.00  0.00    +0.247 C 
ENDROOT
BRANCH   6  10
ATOM      1 CL   UNL     1      -5.912 -11.213  20.107  0.00  0.00    -0.083 Cl
ATOM      2  O   UNL     1      -4.381 -10.258  14.591  0.00  0.00    -0.439 OA
ATOM      5  N   UNL     1      -2.836 -11.305  15.878  0.00  0.00    -0.213 NA
ATOM     10  C   UNL     1      -3.146 -10.824  14.694  0.00  0.00    +0.201 A 
ATOM     12  C   UNL     1      -3.957 -11.040  16.629  0.00  0.00    +0.111 A 
ATOM     13  C   UNL     1      -4.904 -10.399  15.845  0.00  0.00    +0.155 A 
ATOM     15  C   UNL     1      -4.255 -11.305  17.973  0.00  0.00    +0.051 A 
ATOM     16  C   UNL     1      -6.154  -9.988  16.290  0.00  0.00    +0.050 A 
ATOM     19  C   UNL     1      -5.509 -10.904  18.460  0.00  0.00    +0.043 A 
ATOM     20  C   UNL     1      -6.437 -10.259  17.634  0.00  0.00    +0.024 A 
ENDBRANCH   6  10
BRANCH  11  14
ATOM     14  C   UNL     1      -5.039 -11.059   9.980  0.00  0.00    +0.037 A 
ATOM     17  C   UNL     1      -4.475 -10.486   8.841  0.00  0.00    +0.013 A 
ATOM     18  C   UNL     1      -6.242 -10.566  10.487  0.00  0.00    +0.013 A 
ATOM     21  C   UNL     1      -5.113  -9.420   8.207  0.00  0.00    +0.001 A 
ATOM     22  C   UNL     1      -6.880  -9.501   9.854  0.00  0.00    +0.001 A 
ATOM     23  C   UNL     1      -6.316  -8.927   8.713  0.00  0.00    +0.000 A 
ENDBRANCH  11  14
TORSDOF 2
ENDMDL
MODEL 8
REMARK VINA RESULT:      -6.0     16.211     18.887
REMARK  Name = 51136987
REMARK  2 active torsions:
REMARK  status: ('A' for Active; 'I' for Inactive)
REMARK    1  A    between atoms: C_6  and  C_10
REMARK    2  A    between atoms: C_11  and  C_14
REMARK                            x       y       z     vdW  Elec       q    Type
REMARK                         _______ _______ _______ _____ _____    ______ ____
ROOT
ATOM      3  O   UNL     1      13.550   7.750   1.499  0.00  0.00    -0.270 OA
ATOM      4  N   UNL     1      11.287   7.374   1.868  0.00  0.00    -0.297 N 
ATOM      6  C   UNL     1       9.118   7.240   2.836  0.00  0.00    +0.094 C 
ATOM      7  C   UNL     1       9.504   8.714   2.638  0.00  0.00    +0.033 C 
ATOM      8  C   UNL     1      10.095   6.526   1.892  0.00  0.00    +0.121 C 
ATOM      9  C   UNL     1      11.016   8.675   2.459  0.00  0.00    +0.109 C 
ATOM     11  C   UNL     1      12.557   7.028   1.433  0.00  0.00    +0.247 C 
ENDROOT
BRANCH   6  10
ATOM      1 CL   UNL     1       9.610   4.526   9.919  0.00  0.00    -0.083 Cl
ATOM      2  O   UNL     1       8.836   7.809   5.195  0.00  0.00    -0.439 OA
ATOM      5  N   UNL     1       9.503   5.676   4.818  0.00  0.00    -0.213 NA
ATOM     10  C   UNL     1       9.173   6.839   4.300  0.00  0.00    +0.201 A 
ATOM     12  C   UNL     1       9.375   5.884   6.170  0.00  0.00    +0.111 A 
ATOM     13  C   UNL     1       8.967   7.188   6.406  0.00  0.00    +0.155 A 
ATOM     15  C   UNL     1       9.583   5.031   7.263  0.00  0.00    +0.051 A 
ATOM     16  C   UNL     1       8.741   7.733   7.664  0.00  0.00    +0.050 A 
ATOM     19  C   UNL     1       9.366   5.545   8.550  0.00  0.00    +0.043 A 
ATOM     20  C   UNL     1       8.954   6.869   8.743  0.00  0.00    +0.024 A 
ENDBRANCH   6  10
BRANCH  11  14
ATOM     14  C   UNL     1      12.737   5.684   0.862  0.00  0.00    +0.037 A 
ATOM     17  C   UNL     1      12.549   5.475  -0.504  0.00  0.00    +0.013 A 
ATOM     18  C   UNL     1      13.096   4.618   1.687  0.00  0.00    +0.013 A 
ATOM     21  C   UNL     1      12.720   4.201  -1.046  0.00  0.00    +0.001 A 
ATOM     22  C   UNL     1      13.268   3.345   1.146  0.00  0.00    +0.001 A 
ATOM     23  C   UNL     1      13.080   3.135  -0.221  0.00  0.00    +0.000 A 
ENDBRANCH  11  14
TORSDOF 2
ENDMDL
MODEL 9
REMARK VINA RESULT:      -6.0      4.826      9.894
REMARK  Name = 51136987
REMARK  2 active torsions:
REMARK  status: ('A' for Active; 'I' for Inactive)
REMARK    1  A    between atoms: C_6  and  C_10
REMARK    2  A    between atoms: C_11  and  C_14
REMARK                            x       y       z     vdW  Elec       q    Type
REMARK                         _______ _______ _______ _____ _____    ______ ____
ROOT
ATOM      3  O   UNL     1      22.433   3.938  24.598  0.00  0.00    -0.270 OA
ATOM      4  N   UNL     1      22.245   5.817  23.244  0.00  0.00    -0.297 N 
ATOM      6  C   UNL     1      21.422   7.698  22.042  0.00  0.00    +0.094 C 
ATOM      7  C   UNL     1      21.352   7.979  23.551  0.00  0.00    +0.033 C 
ATOM      8  C   UNL     1      22.423   6.536  21.981  0.00  0.00    +0.121 C 
ATOM      9  C   UNL     1      21.459   6.598  24.185  0.00  0.00    +0.109 C 
ATOM     11  C   UNL     1      22.668   4.532  23.547  0.00  0.00    +0.247 C 
ENDROOT
BRANCH   6  10
ATOM      1 CL   UNL     1      14.265   6.953  19.594  0.00  0.00    -0.083 Cl
ATOM      2  O   UNL     1      19.980   6.479  20.491  0.00  0.00    -0.439 OA
ATOM      5  N   UNL     1      18.905   8.022  21.757  0.00  0.00    -0.213 NA
ATOM     10  C   UNL     1      20.045   7.439  21.455  0.00  0.00    +0.201 A 
ATOM     12  C   UNL     1      18.003   7.400  20.928  0.00  0.00    +0.111 A 
ATOM     13  C   UNL     1      18.657   6.455  20.151  0.00  0.00    +0.155 A 
ATOM     15  C   UNL     1      16.621   7.571  20.767  0.00  0.00    +0.051 A 
ATOM     16  C   UNL     1      18.042   5.645  19.204  0.00  0.00    +0.050 A 
ATOM     19  C   UNL     1      15.965   6.771  19.819  0.00  0.00    +0.043 A 
ATOM     20  C   UNL     1      16.663   5.828  19.055  0.00  0.00    +0.024 A 
ENDBRANCH   6  10
BRANCH  11  14
ATOM     14  C   UNL     1      23.447   3.814  22.526  0.00  0.00    +0.037 A 
ATOM     17  C   UNL     1      24.796   4.113  22.338  0.00  0.00    +0.013 A 
ATOM     18  C   UNL     1      22.835   2.833  21.744  0.00  0.00    +0.013 A 
ATOM     21  C   UNL     1      25.534   3.432  21.370  0.00  0.00    +0.001 A 
ATOM     22  C   UNL     1      23.572   2.152  20.777  0.00  0.00    +0.001 A 
ATOM     23  C   UNL     1      24.923   2.450  20.589  0.00  0.00    +0.000 A 
ENDBRANCH  11  14
TORSDOF 2
ENDMDL
MODEL 10
REMARK VINA RESULT:      -5.9     15.739     17.662
REMARK  Name = 51136987
REMARK  2 active torsions:
REMARK  status: ('A' for Active; 'I' for Inactive)
REMARK    1  A    between atoms: C_6  and  C_10
REMARK    2  A    between atoms: C_11  and  C_14
REMARK                            x       y       z     vdW  Elec       q    Type
REMARK                         _______ _______ _______ _____ _____    ______ ____
ROOT
ATOM      3  O   UNL     1       8.350   7.727   5.557  0.00  0.00    -0.270 OA
ATOM      4  N   UNL     1      10.656   7.575   5.321  0.00  0.00    -0.297 N 
ATOM      6  C   UNL     1      12.859   7.388   4.441  0.00  0.00    +0.094 C 
ATOM      7  C   UNL     1      12.256   8.743   4.040  0.00  0.00    +0.033 C 
ATOM      8  C   UNL     1      11.959   6.974   5.614  0.00  0.00    +0.121 C 
ATOM      9  C   UNL     1      10.760   8.555   4.252  0.00  0.00    +0.109 C 
ATOM     11  C   UNL     1       9.433   7.247   5.885  0.00  0.00    +0.247 C 
ENDROOT
BRANCH   6  10
ATOM      1 CL   UNL     1      12.418   2.455  -1.325  0.00  0.00    -0.083 Cl
ATOM      2  O   UNL     1      14.133   6.323   2.649  0.00  0.00    -0.439 OA
ATOM      5  N   UNL     1      11.958   5.694   2.756  0.00  0.00    -0.213 NA
ATOM     10  C   UNL     1      12.921   6.432   3.262  0.00  0.00    +0.201 A 
ATOM     12  C   UNL     1      12.575   5.036   1.719  0.00  0.00    +0.111 A 
ATOM     13  C   UNL     1      13.906   5.418   1.650  0.00  0.00    +0.155 A 
ATOM     15  C   UNL     1      12.088   4.105   0.791  0.00  0.00    +0.051 A 
ATOM     16  C   UNL     1      14.819   4.945   0.716  0.00  0.00    +0.050 A 
ATOM     19  C   UNL     1      12.980   3.603  -0.168  0.00  0.00    +0.043 A 
ATOM     20  C   UNL     1      14.317   4.016  -0.202  0.00  0.00    +0.024 A 
ENDBRANCH   6  10
BRANCH  11  14
ATOM     14  C   UNL     1       9.427   6.233   6.951  0.00  0.00    +0.037 A 
ATOM     17  C   UNL     1       9.795   4.918   6.667  0.00  0.00    +0.013 A 
ATOM     18  C   UNL     1       9.053   6.587   8.248  0.00  0.00    +0.013 A 
ATOM     21  C   UNL     1       9.790   3.958   7.678  0.00  0.00    +0.001 A 
ATOM     22  C   UNL     1       9.049   5.628   9.259  0.00  0.00    +0.001 A 
ATOM     23  C   UNL     1       9.417   4.312   8.975  0.00  0.00    +0.000 A 
ENDBRANCH  11  14
TORSDOF 2
ENDMDL
