MODEL 1
REMARK VINA RESULT:      -6.4      0.000      0.000
REMARK  Name = 38027577
REMARK  13 active torsions:
REMARK  status: ('A' for Active; 'I' for Inactive)
REMARK    1  A    between atoms: O_4  and  C_22
REMARK    2  A    between atoms: O_4  and  C_26
REMARK    3  A    between atoms: N_5  and  C_14
REMARK    4  A    between atoms: N_6  and  C_21
REMARK    5  A    between atoms: C_7  and  C_11
REMARK    6  A    between atoms: C_8  and  C_14
REMARK    7  A    between atoms: C_10  and  C_15
REMARK    8  A    between atoms: C_11  and  C_16
REMARK    9  A    between atoms: C_11  and  C_17
REMARK   10  A    between atoms: C_12  and  C_18
REMARK   11  A    between atoms: C_15  and  C_19
REMARK   12  A    between atoms: C_20  and  C_22
REMARK   13  A    between atoms: C_21  and  C_23
REMARK                            x       y       z     vdW  Elec       q    Type
REMARK                         _______ _______ _______ _____ _____    ______ ____
ROOT
ATOM      7  C   UNL     1      13.919   9.436  19.091  0.00  0.00    +0.000 C 
ATOM      8  C   UNL     1      14.091   8.147  18.250  0.00  0.00    +0.032 C 
ATOM      9  C   UNL     1      15.284   9.945  19.579  0.00  0.00    +0.012 C 
ATOM     10  C   UNL     1      16.024   8.898  20.433  0.00  0.00    +0.023 C 
ATOM     12  C   UNL     1      16.004   7.528  19.788  0.00  0.00    -0.073 C 
ATOM     13  C   UNL     1      15.142   7.215  18.805  0.00  0.00    -0.022 C 
ATOM     18  C   UNL     1      17.027   6.538  20.269  0.00  0.00    +0.039 C 
ENDROOT
BRANCH   7  11
ATOM     11  C   UNL     1      13.205  10.540  18.303  0.00  0.00    -0.013 C 
ATOM     16  C   UNL     1      13.851  10.717  16.933  0.00  0.00    +0.007 C 
ATOM     17  C   UNL     1      13.225  11.850  19.084  0.00  0.00    +0.007 C 
ENDBRANCH   7  11
BRANCH   8  14
ATOM     14  C   UNL     1      12.761   7.396  18.112  0.00  0.00    +0.112 C 
BRANCH  14   5
ATOM      3  O   UNL     1      12.426   6.318  20.775  0.00  0.00    -0.273 OA
ATOM      5  N   UNL     1      11.830   7.827  19.106  0.00  0.00    -0.313 N 
ATOM     20  C   UNL     1      11.735   7.249  20.372  0.00  0.00    +0.239 C 
ATOM     30  H   UNL     1      11.252   8.637  18.897  0.00  0.00    +0.149 HD
BRANCH  20  22
ATOM     22  C   UNL     1      10.665   7.902  21.221  0.00  0.00    +0.255 C 
BRANCH  22   4
ATOM      4  O   UNL     1      10.967   9.264  21.442  0.00  0.00    -0.374 OA
ATOM     26  C   UNL     1      10.868   9.613  22.820  0.00  0.00    +0.194 C 
ENDBRANCH  22   4
ENDBRANCH  20  22
ENDBRANCH  14   5
ENDBRANCH   8  14
BRANCH  10  15
ATOM     15  C   UNL     1      15.455   8.845  21.855  0.00  0.00    +0.103 C 
BRANCH  15  19
ATOM      2  O   UNL     1      16.479  10.981  22.348  0.00  0.00    -0.276 OA
ATOM      6  N   UNL     1      14.561  10.340  23.494  0.00  0.00    -0.311 N 
ATOM     19  C   UNL     1      15.582  10.172  22.569  0.00  0.00    +0.214 C 
ATOM     31  H   UNL     1      13.858   9.614  23.601  0.00  0.00    +0.149 HD
BRANCH   6  21
ATOM     21  C   UNL     1      14.433  11.516  24.322  0.00  0.00    +0.139 C 
BRANCH  21  23
ATOM      1  F   UNL     1       9.406  13.980  23.718  0.00  0.00    -0.205 F 
ATOM     23  C   UNL     1      13.093  12.173  24.162  0.00  0.00    -0.030 A 
ATOM     24  C   UNL     1      12.193  12.191  25.227  0.00  0.00    +0.008 A 
ATOM     25  C   UNL     1      12.748  12.766  22.946  0.00  0.00    +0.008 A 
ATOM     27  C   UNL     1      10.948  12.802  25.077  0.00  0.00    +0.038 A 
ATOM     28  C   UNL     1      11.503  13.376  22.797  0.00  0.00    +0.038 A 
ATOM     29  C   UNL     1      10.603  13.395  23.861  0.00  0.00    +0.123 A 
ENDBRANCH  21  23
ENDBRANCH   6  21
ENDBRANCH  15  19
ENDBRANCH  10  15
TORSDOF 9
ENDMDL
MODEL 2
REMARK VINA RESULT:      -6.4     26.816     29.128
REMARK  Name = 38027577
REMARK  13 active torsions:
REMARK  status: ('A' for Active; 'I' for Inactive)
REMARK    1  A    between atoms: O_4  and  C_22
REMARK    2  A    between atoms: O_4  and  C_26
REMARK    3  A    between atoms: N_5  and  C_14
REMARK    4  A    between atoms: N_6  and  C_21
REMARK    5  A    between atoms: C_7  and  C_11
REMARK    6  A    between atoms: C_8  and  C_14
REMARK    7  A    between atoms: C_10  and  C_15
REMARK    8  A    between atoms: C_11  and  C_16
REMARK    9  A    between atoms: C_11  and  C_17
REMARK   10  A    between atoms: C_12  and  C_18
REMARK   11  A    between atoms: C_15  and  C_19
REMARK   12  A    between atoms: C_20  and  C_22
REMARK   13  A    between atoms: C_21  and  C_23
REMARK                            x       y       z     vdW  Elec       q    Type
REMARK                         _______ _______ _______ _____ _____    ______ ____
ROOT
ATOM      7  C   UNL     1      -5.643 -10.572  15.255  0.00  0.00    +0.000 C 
ATOM      8  C   UNL     1      -6.491 -10.548  16.551  0.00  0.00    +0.032 C 
ATOM      9  C   UNL     1      -4.707 -11.790  15.249  0.00  0.00    +0.012 C 
ATOM     10  C   UNL     1      -3.752 -11.796  16.458  0.00  0.00    +0.023 C 
ATOM     12  C   UNL     1      -4.482 -11.510  17.754  0.00  0.00    -0.073 C 
ATOM     13  C   UNL     1      -5.711 -10.965  17.775  0.00  0.00    -0.022 C 
ATOM     18  C   UNL     1      -3.786 -11.907  19.025  0.00  0.00    +0.039 C 
ENDROOT
BRANCH   7  11
ATOM     11  C   UNL     1      -6.522 -10.587  13.999  0.00  0.00    -0.013 C 
ATOM     16  C   UNL     1      -6.592 -11.995  13.417  0.00  0.00    +0.007 C 
ATOM     17  C   UNL     1      -5.991  -9.599  12.966  0.00  0.00    +0.007 C 
ENDBRANCH   7  11
BRANCH   8  14
ATOM     14  C   UNL     1      -7.106  -9.163  16.783  0.00  0.00    +0.112 C 
BRANCH  14   5
ATOM      3  O   UNL     1      -9.865  -8.857  15.972  0.00  0.00    -0.273 OA
ATOM      5  N   UNL     1      -8.264  -9.256  17.614  0.00  0.00    -0.313 N 
ATOM     20  C   UNL     1      -9.566  -9.095  17.139  0.00  0.00    +0.239 C 
ATOM     30  H   UNL     1      -8.132  -9.515  18.588  0.00  0.00    +0.149 HD
BRANCH  20  22
ATOM     22  C   UNL     1     -10.599  -9.246  18.235  0.00  0.00    +0.255 C 
BRANCH  22   4
ATOM      4  O   UNL     1     -10.656 -10.583  18.684  0.00  0.00    -0.374 OA
ATOM     26  C   UNL     1     -10.512 -10.675  20.100  0.00  0.00    +0.194 C 
ENDBRANCH  22   4
ENDBRANCH  20  22
ENDBRANCH  14   5
ENDBRANCH   8  14
BRANCH  10  15
ATOM     15  C   UNL     1      -2.594 -10.813  16.252  0.00  0.00    +0.103 C 
BRANCH  15  19
ATOM      2  O   UNL     1      -1.132 -12.052  14.774  0.00  0.00    -0.276 OA
ATOM      6  N   UNL     1      -2.089 -10.066  14.037  0.00  0.00    -0.311 N 
ATOM     19  C   UNL     1      -1.850 -11.074  14.961  0.00  0.00    +0.214 C 
ATOM     31  H   UNL     1      -2.705  -9.297  14.282  0.00  0.00    +0.149 HD
BRANCH   6  21
ATOM     21  C   UNL     1      -1.505 -10.053  12.716  0.00  0.00    +0.139 C 
BRANCH  21  23
ATOM      1  F   UNL     1      -5.280 -11.299   8.728  0.00  0.00    -0.205 F 
ATOM     23  C   UNL     1      -2.512 -10.385  11.654  0.00  0.00    -0.030 A 
ATOM     24  C   UNL     1      -3.100 -11.650  11.621  0.00  0.00    +0.008 A 
ATOM     25  C   UNL     1      -2.858  -9.429  10.697  0.00  0.00    +0.008 A 
ATOM     27  C   UNL     1      -4.036 -11.957  10.633  0.00  0.00    +0.038 A 
ATOM     28  C   UNL     1      -3.794  -9.738   9.710  0.00  0.00    +0.038 A 
ATOM     29  C   UNL     1      -4.383 -11.001   9.678  0.00  0.00    +0.123 A 
ENDBRANCH  21  23
ENDBRANCH   6  21
ENDBRANCH  15  19
ENDBRANCH  10  15
TORSDOF 9
ENDMDL
MODEL 3
REMARK VINA RESULT:      -6.3     26.712     29.082
REMARK  Name = 38027577
REMARK  13 active torsions:
REMARK  status: ('A' for Active; 'I' for Inactive)
REMARK    1  A    between atoms: O_4  and  C_22
REMARK    2  A    between atoms: O_4  and  C_26
REMARK    3  A    between atoms: N_5  and  C_14
REMARK    4  A    between atoms: N_6  and  C_21
REMARK    5  A    between atoms: C_7  and  C_11
REMARK    6  A    between atoms: C_8  and  C_14
REMARK    7  A    between atoms: C_10  and  C_15
REMARK    8  A    between atoms: C_11  and  C_16
REMARK    9  A    between atoms: C_11  and  C_17
REMARK   10  A    between atoms: C_12  and  C_18
REMARK   11  A    between atoms: C_15  and  C_19
REMARK   12  A    between atoms: C_20  and  C_22
REMARK   13  A    between atoms: C_21  and  C_23
REMARK                            x       y       z     vdW  Elec       q    Type
REMARK                         _______ _______ _______ _____ _____    ______ ____
ROOT
ATOM      7  C   UNL     1      -5.301 -10.572  10.671  0.00  0.00    +0.000 C 
ATOM      8  C   UNL     1      -4.707  -9.663   9.566  0.00  0.00    +0.032 C 
ATOM      9  C   UNL     1      -4.792 -10.136  12.054  0.00  0.00    +0.012 C 
ATOM     10  C   UNL     1      -3.255 -10.188  12.152  0.00  0.00    +0.023 C 
ATOM     12  C   UNL     1      -2.592  -9.542  10.953  0.00  0.00    -0.073 C 
ATOM     13  C   UNL     1      -3.260  -9.303   9.810  0.00  0.00    -0.022 C 
ATOM     18  C   UNL     1      -1.154  -9.135  11.111  0.00  0.00    +0.039 C 
ENDROOT
BRANCH   7  11
ATOM     11  C   UNL     1      -6.833 -10.560  10.656  0.00  0.00    -0.013 C 
ATOM     16  C   UNL     1      -7.353  -9.129  10.585  0.00  0.00    +0.007 C 
ATOM     17  C   UNL     1      -7.383 -11.277  11.885  0.00  0.00    +0.007 C 
ENDBRANCH   7  11
BRANCH   8  14
ATOM     14  C   UNL     1      -4.846 -10.312   8.184  0.00  0.00    +0.112 C 
BRANCH  14   5
ATOM      3  O   UNL     1      -7.426 -10.777   6.962  0.00  0.00    -0.273 OA
ATOM      5  N   UNL     1      -5.544  -9.447   7.286  0.00  0.00    -0.313 N 
ATOM     20  C   UNL     1      -6.791  -9.750   6.740  0.00  0.00    +0.239 C 
ATOM     30  H   UNL     1      -5.135  -8.538   7.086  0.00  0.00    +0.149 HD
BRANCH  20  22
ATOM     22  C   UNL     1      -7.297  -8.657   5.824  0.00  0.00    +0.255 C 
BRANCH  22   4
ATOM      4  O   UNL     1      -8.477  -8.079   6.341  0.00  0.00    -0.374 OA
ATOM     26  C   UNL     1      -8.200  -6.949   7.164  0.00  0.00    +0.194 C 
ENDBRANCH  22   4
ENDBRANCH  20  22
ENDBRANCH  14   5
ENDBRANCH   8  14
BRANCH  10  15
ATOM     15  C   UNL     1      -2.762 -11.627  12.343  0.00  0.00    +0.103 C 
BRANCH  15  19
ATOM      2  O   UNL     1      -2.526 -13.151  14.207  0.00  0.00    -0.276 OA
ATOM      6  N   UNL     1      -2.684 -10.868  14.609  0.00  0.00    -0.311 N 
ATOM     19  C   UNL     1      -2.642 -11.997  13.804  0.00  0.00    +0.214 C 
ATOM     31  H   UNL     1      -2.776  -9.951  14.181  0.00  0.00    +0.149 HD
BRANCH   6  21
ATOM     21  C   UNL     1      -2.593 -10.922  16.050  0.00  0.00    +0.139 C 
BRANCH  21  23
ATOM      1  F   UNL     1      -7.612 -10.220  18.505  0.00  0.00    -0.205 F 
ATOM     23  C   UNL     1      -3.930 -10.735  16.705  0.00  0.00    -0.030 A 
ATOM     24  C   UNL     1      -4.161 -11.248  17.981  0.00  0.00    +0.008 A 
ATOM     25  C   UNL     1      -4.945 -10.047  16.036  0.00  0.00    +0.008 A 
ATOM     27  C   UNL     1      -5.404 -11.074  18.589  0.00  0.00    +0.038 A 
ATOM     28  C   UNL     1      -6.187  -9.873  16.644  0.00  0.00    +0.038 A 
ATOM     29  C   UNL     1      -6.417 -10.386  17.921  0.00  0.00    +0.123 A 
ENDBRANCH  21  23
ENDBRANCH   6  21
ENDBRANCH  15  19
ENDBRANCH  10  15
TORSDOF 9
ENDMDL
MODEL 4
REMARK VINA RESULT:      -6.1     15.442     19.330
REMARK  Name = 38027577
REMARK  13 active torsions:
REMARK  status: ('A' for Active; 'I' for Inactive)
REMARK    1  A    between atoms: O_4  and  C_22
REMARK    2  A    between atoms: O_4  and  C_26
REMARK    3  A    between atoms: N_5  and  C_14
REMARK    4  A    between atoms: N_6  and  C_21
REMARK    5  A    between atoms: C_7  and  C_11
REMARK    6  A    between atoms: C_8  and  C_14
REMARK    7  A    between atoms: C_10  and  C_15
REMARK    8  A    between atoms: C_11  and  C_16
REMARK    9  A    between atoms: C_11  and  C_17
REMARK   10  A    between atoms: C_12  and  C_18
REMARK   11  A    between atoms: C_15  and  C_19
REMARK   12  A    between atoms: C_20  and  C_22
REMARK   13  A    between atoms: C_21  and  C_23
REMARK                            x       y       z     vdW  Elec       q    Type
REMARK                         _______ _______ _______ _____ _____    ______ ____
ROOT
ATOM      7  C   UNL     1      12.366   7.480   5.261  0.00  0.00    +0.000 C 
ATOM      8  C   UNL     1      11.360   8.629   5.517  0.00  0.00    +0.032 C 
ATOM      9  C   UNL     1      12.467   7.180   3.757  0.00  0.00    +0.012 C 
ATOM     10  C   UNL     1      11.108   6.784   3.150  0.00  0.00    +0.023 C 
ATOM     12  C   UNL     1      10.003   7.727   3.579  0.00  0.00    -0.073 C 
ATOM     13  C   UNL     1      10.139   8.554   4.630  0.00  0.00    -0.022 C 
ATOM     18  C   UNL     1       8.754   7.731   2.743  0.00  0.00    +0.039 C 
ENDROOT
BRANCH   7  11
ATOM     11  C   UNL     1      13.755   7.805   5.820  0.00  0.00    -0.013 C 
ATOM     16  C   UNL     1      14.794   7.793   4.703  0.00  0.00    +0.007 C 
ATOM     17  C   UNL     1      14.131   6.816   6.919  0.00  0.00    +0.007 C 
ENDBRANCH   7  11
BRANCH   8  14
ATOM     14  C   UNL     1      10.924   8.666   6.986  0.00  0.00    +0.112 C 
BRANCH  14   5
ATOM      3  O   UNL     1       8.326   7.566   7.622  0.00  0.00    -0.273 OA
ATOM      5  N   UNL     1      10.638   7.350   7.463  0.00  0.00    -0.313 N 
ATOM     20  C   UNL     1       9.349   6.898   7.746  0.00  0.00    +0.239 C 
ATOM     30  H   UNL     1      11.410   6.693   7.539  0.00  0.00    +0.149 HD
BRANCH  20  22
ATOM     22  C   UNL     1       9.338   5.466   8.234  0.00  0.00    +0.255 C 
BRANCH  22   4
ATOM      4  O   UNL     1      10.203   5.309   9.339  0.00  0.00    -0.374 OA
ATOM     26  C   UNL     1       9.578   4.600  10.406  0.00  0.00    +0.194 C 
ENDBRANCH  22   4
ENDBRANCH  20  22
ENDBRANCH  14   5
ENDBRANCH   8  14
BRANCH  10  15
ATOM     15  C   UNL     1      10.753   5.332   3.490  0.00  0.00    +0.103 C 
BRANCH  15  19
ATOM      2  O   UNL     1      10.154   4.208   1.433  0.00  0.00    -0.276 OA
ATOM      6  N   UNL     1      12.233   3.809   2.390  0.00  0.00    -0.311 N 
ATOM     19  C   UNL     1      10.981   4.402   2.319  0.00  0.00    +0.214 C 
ATOM     31  H   UNL     1      12.853   4.039   3.162  0.00  0.00    +0.149 HD
BRANCH   6  21
ATOM     21  C   UNL     1      12.719   2.872   1.404  0.00  0.00    +0.139 C 
BRANCH  21  23
ATOM      1  F   UNL     1      16.539   5.205  -2.013  0.00  0.00    -0.205 F 
ATOM     23  C   UNL     1      13.738   3.493   0.493  0.00  0.00    -0.030 A 
ATOM     24  C   UNL     1      15.010   3.802   0.976  0.00  0.00    +0.008 A 
ATOM     25  C   UNL     1      13.412   3.764  -0.836  0.00  0.00    +0.008 A 
ATOM     27  C   UNL     1      15.956   4.379   0.130  0.00  0.00    +0.038 A 
ATOM     28  C   UNL     1      14.359   4.341  -1.682  0.00  0.00    +0.038 A 
ATOM     29  C   UNL     1      15.630   4.649  -1.200  0.00  0.00    +0.123 A 
ENDBRANCH  21  23
ENDBRANCH   6  21
ENDBRANCH  15  19
ENDBRANCH  10  15
TORSDOF 9
ENDMDL
MODEL 5
REMARK VINA RESULT:      -5.8     25.926     29.343
REMARK  Name = 38027577
REMARK  13 active torsions:
REMARK  status: ('A' for Active; 'I' for Inactive)
REMARK    1  A    between atoms: O_4  and  C_22
REMARK    2  A    between atoms: O_4  and  C_26
REMARK    3  A    between atoms: N_5  and  C_14
REMARK    4  A    between atoms: N_6  and  C_21
REMARK    5  A    between atoms: C_7  and  C_11
REMARK    6  A    between atoms: C_8  and  C_14
REMARK    7  A    between atoms: C_10  and  C_15
REMARK    8  A    between atoms: C_11  and  C_16
REMARK    9  A    between atoms: C_11  and  C_17
REMARK   10  A    between atoms: C_12  and  C_18
REMARK   11  A    between atoms: C_15  and  C_19
REMARK   12  A    between atoms: C_20  and  C_22
REMARK   13  A    between atoms: C_21  and  C_23
REMARK                            x       y       z     vdW  Elec       q    Type
REMARK                         _______ _______ _______ _____ _____    ______ ____
ROOT
ATOM      7  C   UNL     1     -12.301   9.474  32.009  0.00  0.00    +0.000 C 
ATOM      8  C   UNL     1     -11.505  10.013  33.224  0.00  0.00    +0.032 C 
ATOM      9  C   UNL     1     -13.699   9.012  32.446  0.00  0.00    +0.012 C 
ATOM     10  C   UNL     1     -13.640   7.909  33.519  0.00  0.00    +0.023 C 
ATOM     12  C   UNL     1     -12.664   8.252  34.626  0.00  0.00    -0.073 C 
ATOM     13  C   UNL     1     -11.726   9.205  34.481  0.00  0.00    -0.022 C 
ATOM     18  C   UNL     1     -12.820   7.506  35.922  0.00  0.00    +0.039 C 
ENDROOT
BRANCH   7  11
ATOM     11  C   UNL     1     -12.424  10.523  30.899  0.00  0.00    -0.013 C 
ATOM     16  C   UNL     1     -13.890  10.756  30.548  0.00  0.00    +0.007 C 
ATOM     17  C   UNL     1     -11.635  10.090  29.668  0.00  0.00    +0.007 C 
ENDBRANCH   7  11
BRANCH   8  14
ATOM     14  C   UNL     1     -10.005  10.081  32.917  0.00  0.00    +0.112 C 
BRANCH  14   5
ATOM      3  O   UNL     1      -7.841  11.652  34.018  0.00  0.00    -0.273 OA
ATOM      5  N   UNL     1      -9.234   9.789  34.084  0.00  0.00    -0.313 N 
ATOM     20  C   UNL     1      -8.203  10.606  34.548  0.00  0.00    +0.239 C 
ATOM     30  H   UNL     1      -9.496   8.976  34.636  0.00  0.00    +0.149 HD
BRANCH  20  22
ATOM     22  C   UNL     1      -7.559  10.057  35.803  0.00  0.00    +0.255 C 
BRANCH  22   4
ATOM      4  O   UNL     1      -8.167   8.841  36.185  0.00  0.00    -0.374 OA
ATOM     26  C   UNL     1      -8.786   8.936  37.466  0.00  0.00    +0.194 C 
ENDBRANCH  22   4
ENDBRANCH  20  22
ENDBRANCH  14   5
ENDBRANCH   8  14
BRANCH  10  15
ATOM     15  C   UNL     1     -13.306   6.549  32.895  0.00  0.00    +0.103 C 
BRANCH  15  19
ATOM      2  O   UNL     1     -15.527   5.792  33.482  0.00  0.00    -0.276 OA
ATOM      6  N   UNL     1     -13.855   4.229  33.077  0.00  0.00    -0.311 N 
ATOM     19  C   UNL     1     -14.368   5.514  33.186  0.00  0.00    +0.214 C 
ATOM     31  H   UNL     1     -12.881   4.099  32.820  0.00  0.00    +0.149 HD
BRANCH   6  21
ATOM     21  C   UNL     1     -14.646   3.042  33.303  0.00  0.00    +0.139 C 
BRANCH  21  23
ATOM      1  F   UNL     1     -14.011  -0.731  29.172  0.00  0.00    -0.205 F 
ATOM     23  C   UNL     1     -14.478   2.036  32.202  0.00  0.00    -0.030 A 
ATOM     24  C   UNL     1     -14.942   0.732  32.371  0.00  0.00    +0.008 A 
ATOM     25  C   UNL     1     -13.855   2.406  31.008  0.00  0.00    +0.008 A 
ATOM     27  C   UNL     1     -14.785  -0.203  31.347  0.00  0.00    +0.038 A 
ATOM     28  C   UNL     1     -13.699   1.471  29.985  0.00  0.00    +0.038 A 
ATOM     29  C   UNL     1     -14.163   0.167  30.154  0.00  0.00    +0.123 A 
ENDBRANCH  21  23
ENDBRANCH   6  21
ENDBRANCH  15  19
ENDBRANCH  10  15
TORSDOF 9
ENDMDL
MODEL 6
REMARK VINA RESULT:      -5.8     15.204     18.221
REMARK  Name = 38027577
REMARK  13 active torsions:
REMARK  status: ('A' for Active; 'I' for Inactive)
REMARK    1  A    between atoms: O_4  and  C_22
REMARK    2  A    between atoms: O_4  and  C_26
REMARK    3  A    between atoms: N_5  and  C_14
REMARK    4  A    between atoms: N_6  and  C_21
REMARK    5  A    between atoms: C_7  and  C_11
REMARK    6  A    between atoms: C_8  and  C_14
REMARK    7  A    between atoms: C_10  and  C_15
REMARK    8  A    between atoms: C_11  and  C_16
REMARK    9  A    between atoms: C_11  and  C_17
REMARK   10  A    between atoms: C_12  and  C_18
REMARK   11  A    between atoms: C_15  and  C_19
REMARK   12  A    between atoms: C_20  and  C_22
REMARK   13  A    between atoms: C_21  and  C_23
REMARK                            x       y       z     vdW  Elec       q    Type
REMARK                         _______ _______ _______ _____ _____    ______ ____
ROOT
ATOM      7  C   UNL     1      11.234   6.250   5.631  0.00  0.00    +0.000 C 
ATOM      8  C   UNL     1      10.587   6.139   4.228  0.00  0.00    +0.032 C 
ATOM      9  C   UNL     1      11.653   7.701   5.915  0.00  0.00    +0.012 C 
ATOM     10  C   UNL     1      12.654   8.234   4.872  0.00  0.00    +0.023 C 
ATOM     12  C   UNL     1      12.211   7.922   3.457  0.00  0.00    -0.073 C 
ATOM     13  C   UNL     1      11.277   6.992   3.190  0.00  0.00    -0.022 C 
ATOM     18  C   UNL     1      12.835   8.735   2.358  0.00  0.00    +0.039 C 
ENDROOT
BRANCH   7  11
ATOM     11  C   UNL     1      10.292   5.757   6.734  0.00  0.00    -0.013 C 
ATOM     16  C   UNL     1       8.949   6.476   6.646  0.00  0.00    +0.007 C 
ATOM     17  C   UNL     1      10.926   5.960   8.106  0.00  0.00    +0.007 C 
ENDBRANCH   7  11
BRANCH   8  14
ATOM     14  C   UNL     1      10.549   4.683   3.751  0.00  0.00    +0.112 C 
BRANCH  14   5
ATOM      3  O   UNL     1      10.340   3.742   1.024  0.00  0.00    -0.273 OA
ATOM      5  N   UNL     1      11.622   4.418   2.845  0.00  0.00    -0.313 N 
ATOM     20  C   UNL     1      11.432   3.965   1.540  0.00  0.00    +0.239 C 
ATOM     30  H   UNL     1      12.567   4.633   3.151  0.00  0.00    +0.149 HD
BRANCH  20  22
ATOM     22  C   UNL     1      12.740   3.769   0.804  0.00  0.00    +0.255 C 
BRANCH  22   4
ATOM      4  O   UNL     1      13.616   2.955   1.555  0.00  0.00    -0.374 OA
ATOM     26  C   UNL     1      14.899   3.557   1.710  0.00  0.00    +0.194 C 
ENDBRANCH  22   4
ENDBRANCH  20  22
ENDBRANCH  14   5
ENDBRANCH   8  14
BRANCH  10  15
ATOM     15  C   UNL     1      14.065   7.697   5.137  0.00  0.00    +0.103 C 
BRANCH  15  19
ATOM      2  O   UNL     1      14.896   9.954   4.868  0.00  0.00    -0.276 OA
ATOM      6  N   UNL     1      16.225   8.362   5.918  0.00  0.00    -0.311 N 
ATOM     19  C   UNL     1      15.079   8.811   5.277  0.00  0.00    +0.214 C 
ATOM     31  H   UNL     1      16.281   7.396   6.226  0.00  0.00    +0.149 HD
BRANCH   6  21
ATOM     21  C   UNL     1      17.362   9.212   6.185  0.00  0.00    +0.139 C 
BRANCH  21  23
ATOM      1  F   UNL     1      22.218   6.734   4.776  0.00  0.00    -0.205 F 
ATOM     23  C   UNL     1      18.657   8.552   5.809  0.00  0.00    -0.030 A 
ATOM     24  C   UNL     1      18.826   8.027   4.528  0.00  0.00    +0.008 A 
ATOM     25  C   UNL     1      19.691   8.462   6.742  0.00  0.00    +0.008 A 
ATOM     27  C   UNL     1      20.029   7.414   4.179  0.00  0.00    +0.038 A 
ATOM     28  C   UNL     1      20.894   7.849   6.393  0.00  0.00    +0.038 A 
ATOM     29  C   UNL     1      21.064   7.325   5.112  0.00  0.00    +0.123 A 
ENDBRANCH  21  23
ENDBRANCH   6  21
ENDBRANCH  15  19
ENDBRANCH  10  15
TORSDOF 9
ENDMDL
MODEL 7
REMARK VINA RESULT:      -5.7      3.781      6.726
REMARK  Name = 38027577
REMARK  13 active torsions:
REMARK  status: ('A' for Active; 'I' for Inactive)
REMARK    1  A    between atoms: O_4  and  C_22
REMARK    2  A    between atoms: O_4  and  C_26
REMARK    3  A    between atoms: N_5  and  C_14
REMARK    4  A    between atoms: N_6  and  C_21
REMARK    5  A    between atoms: C_7  and  C_11
REMARK    6  A    between atoms: C_8  and  C_14
REMARK    7  A    between atoms: C_10  and  C_15
REMARK    8  A    between atoms: C_11  and  C_16
REMARK    9  A    between atoms: C_11  and  C_17
REMARK   10  A    between atoms: C_12  and  C_18
REMARK   11  A    between atoms: C_15  and  C_19
REMARK   12  A    between atoms: C_20  and  C_22
REMARK   13  A    between atoms: C_21  and  C_23
REMARK                            x       y       z     vdW  Elec       q    Type
REMARK                         _______ _______ _______ _____ _____    ______ ____
ROOT
ATOM      7  C   UNL     1      12.954   9.207  19.316  0.00  0.00    +0.000 C 
ATOM      8  C   UNL     1      13.318  10.513  18.567  0.00  0.00    +0.032 C 
ATOM      9  C   UNL     1      11.702   9.417  20.182  0.00  0.00    +0.012 C 
ATOM     10  C   UNL     1      11.894  10.539  21.220  0.00  0.00    +0.023 C 
ATOM     12  C   UNL     1      12.505  11.780  20.602  0.00  0.00    -0.073 C 
ATOM     13  C   UNL     1      13.125  11.752  19.409  0.00  0.00    -0.022 C 
ATOM     18  C   UNL     1      12.347  13.065  21.365  0.00  0.00    +0.039 C 
ENDROOT
BRANCH   7  11
ATOM     11  C   UNL     1      12.725   8.041  18.349  0.00  0.00    -0.013 C 
ATOM     16  C   UNL     1      11.530   8.325  17.445  0.00  0.00    +0.007 C 
ATOM     17  C   UNL     1      12.523   6.741  19.122  0.00  0.00    +0.007 C 
ENDBRANCH   7  11
BRANCH   8  14
ATOM     14  C   UNL     1      14.759  10.468  18.046  0.00  0.00    +0.112 C 
BRANCH  14   5
ATOM      3  O   UNL     1      14.146   9.659  15.337  0.00  0.00    -0.273 OA
ATOM      5  N   UNL     1      14.894  11.253  16.860  0.00  0.00    -0.313 N 
ATOM     20  C   UNL     1      14.573  10.782  15.586  0.00  0.00    +0.239 C 
ATOM     30  H   UNL     1      15.180  12.223  16.961  0.00  0.00    +0.149 HD
BRANCH  20  22
ATOM     22  C   UNL     1      14.812  11.824  14.514  0.00  0.00    +0.255 C 
BRANCH  22   4
ATOM      4  O   UNL     1      14.137  11.476  13.323  0.00  0.00    -0.374 OA
ATOM     26  C   UNL     1      13.097  12.400  13.012  0.00  0.00    +0.194 C 
ENDBRANCH  22   4
ENDBRANCH  20  22
ENDBRANCH  14   5
ENDBRANCH   8  14
BRANCH  10  15
ATOM     15  C   UNL     1      12.726  10.053  22.412  0.00  0.00    +0.103 C 
BRANCH  15  19
ATOM      2  O   UNL     1      14.631  11.514  22.708  0.00  0.00    -0.276 OA
ATOM      6  N   UNL     1      14.914   9.465  21.648  0.00  0.00    -0.311 N 
ATOM     19  C   UNL     1      14.180  10.452  22.290  0.00  0.00    +0.214 C 
ATOM     31  H   UNL     1      14.451   8.615  21.343  0.00  0.00    +0.149 HD
BRANCH   6  21
ATOM     21  C   UNL     1      16.331   9.578  21.392  0.00  0.00    +0.139 C 
BRANCH  21  23
ATOM      1  F   UNL     1      18.482   4.817  19.291  0.00  0.00    -0.205 F 
ATOM     23  C   UNL     1      16.904   8.309  20.833  0.00  0.00    -0.030 A 
ATOM     24  C   UNL     1      18.173   7.883  21.227  0.00  0.00    +0.008 A 
ATOM     25  C   UNL     1      16.169   7.555  19.918  0.00  0.00    +0.008 A 
ATOM     27  C   UNL     1      18.705   6.703  20.707  0.00  0.00    +0.038 A 
ATOM     28  C   UNL     1      16.701   6.376  19.398  0.00  0.00    +0.038 A 
ATOM     29  C   UNL     1      17.969   5.949  19.792  0.00  0.00    +0.123 A 
ENDBRANCH  21  23
ENDBRANCH   6  21
ENDBRANCH  15  19
ENDBRANCH  10  15
TORSDOF 9
ENDMDL
MODEL 8
REMARK VINA RESULT:      -5.7     27.477     30.059
REMARK  Name = 38027577
REMARK  13 active torsions:
REMARK  status: ('A' for Active; 'I' for Inactive)
REMARK    1  A    between atoms: O_4  and  C_22
REMARK    2  A    between atoms: O_4  and  C_26
REMARK    3  A    between atoms: N_5  and  C_14
REMARK    4  A    between atoms: N_6  and  C_21
REMARK    5  A    between atoms: C_7  and  C_11
REMARK    6  A    between atoms: C_8  and  C_14
REMARK    7  A    between atoms: C_10  and  C_15
REMARK    8  A    between atoms: C_11  and  C_16
REMARK    9  A    between atoms: C_11  and  C_17
REMARK   10  A    between atoms: C_12  and  C_18
REMARK   11  A    between atoms: C_15  and  C_19
REMARK   12  A    between atoms: C_20  and  C_22
REMARK   13  A    between atoms: C_21  and  C_23
REMARK                            x       y       z     vdW  Elec       q    Type
REMARK                         _______ _______ _______ _____ _____    ______ ____
ROOT
ATOM      7  C   UNL     1      -6.991 -10.466  16.092  0.00  0.00    +0.000 C 
ATOM      8  C   UNL     1      -6.047 -10.232  14.887  0.00  0.00    +0.032 C 
ATOM      9  C   UNL     1      -6.360  -9.919  17.382  0.00  0.00    +0.012 C 
ATOM     10  C   UNL     1      -5.001 -10.577  17.690  0.00  0.00    +0.023 C 
ATOM     12  C   UNL     1      -4.108 -10.624  16.467  0.00  0.00    -0.073 C 
ATOM     13  C   UNL     1      -4.591 -10.454  15.224  0.00  0.00    -0.022 C 
ATOM     18  C   UNL     1      -2.639 -10.827  16.709  0.00  0.00    +0.039 C 
ENDROOT
BRANCH   7  11
ATOM     11  C   UNL     1      -8.364  -9.822  15.874  0.00  0.00    -0.013 C 
ATOM     16  C   UNL     1      -8.629  -8.761  16.936  0.00  0.00    +0.007 C 
ATOM     17  C   UNL     1      -9.458 -10.886  15.886  0.00  0.00    +0.007 C 
ENDBRANCH   7  11
BRANCH   8  14
ATOM     14  C   UNL     1      -6.438 -11.117  13.698  0.00  0.00    +0.112 C 
BRANCH  14   5
ATOM      3  O   UNL     1      -6.772  -8.760  12.055  0.00  0.00    -0.273 OA
ATOM      5  N   UNL     1      -5.689 -10.764  12.534  0.00  0.00    -0.313 N 
ATOM     20  C   UNL     1      -5.916  -9.601  11.797  0.00  0.00    +0.239 C 
ATOM     30  H   UNL     1      -4.910 -11.361  12.270  0.00  0.00    +0.149 HD
BRANCH  20  22
ATOM     22  C   UNL     1      -4.977  -9.479  10.617  0.00  0.00    +0.255 C 
BRANCH  22   4
ATOM      4  O   UNL     1      -5.386 -10.328   9.565  0.00  0.00    -0.374 OA
ATOM     26  C   UNL     1      -4.807  -9.947   8.319  0.00  0.00    +0.194 C 
ENDBRANCH  22   4
ENDBRANCH  20  22
ENDBRANCH  14   5
ENDBRANCH   8  14
BRANCH  10  15
ATOM     15  C   UNL     1      -5.188 -11.975  18.288  0.00  0.00    +0.103 C 
BRANCH  15  19
ATOM      2  O   UNL     1      -6.100 -11.313  20.429  0.00  0.00    -0.276 OA
ATOM      6  N   UNL     1      -7.255 -12.845  19.118  0.00  0.00    -0.311 N 
ATOM     19  C   UNL     1      -6.206 -11.984  19.407  0.00  0.00    +0.214 C 
ATOM     31  H   UNL     1      -7.258 -13.355  18.240  0.00  0.00    +0.149 HD
BRANCH   6  21
ATOM     21  C   UNL     1      -8.371 -13.055  20.011  0.00  0.00    +0.139 C 
BRANCH  21  23
ATOM      1  F   UNL     1     -12.887 -10.064  18.472  0.00  0.00    -0.205 F 
ATOM     23  C   UNL     1      -9.575 -12.258  19.602  0.00  0.00    -0.030 A 
ATOM     24  C   UNL     1     -10.632 -12.882  18.939  0.00  0.00    +0.008 A 
ATOM     25  C   UNL     1      -9.637 -10.892  19.882  0.00  0.00    +0.008 A 
ATOM     27  C   UNL     1     -11.751 -12.141  18.558  0.00  0.00    +0.038 A 
ATOM     28  C   UNL     1     -10.756 -10.152  19.502  0.00  0.00    +0.038 A 
ATOM     29  C   UNL     1     -11.813 -10.776  18.840  0.00  0.00    +0.123 A 
ENDBRANCH  21  23
ENDBRANCH   6  21
ENDBRANCH  15  19
ENDBRANCH  10  15
TORSDOF 9
ENDMDL
MODEL 9
REMARK VINA RESULT:      -5.7     27.760     30.511
REMARK  Name = 38027577
REMARK  13 active torsions:
REMARK  status: ('A' for Active; 'I' for Inactive)
REMARK    1  A    between atoms: O_4  and  C_22
REMARK    2  A    between atoms: O_4  and  C_26
REMARK    3  A    between atoms: N_5  and  C_14
REMARK    4  A    between atoms: N_6  and  C_21
REMARK    5  A    between atoms: C_7  and  C_11
REMARK    6  A    between atoms: C_8  and  C_14
REMARK    7  A    between atoms: C_10  and  C_15
REMARK    8  A    between atoms: C_11  and  C_16
REMARK    9  A    between atoms: C_11  and  C_17
REMARK   10  A    between atoms: C_12  and  C_18
REMARK   11  A    between atoms: C_15  and  C_19
REMARK   12  A    between atoms: C_20  and  C_22
REMARK   13  A    between atoms: C_21  and  C_23
REMARK                            x       y       z     vdW  Elec       q    Type
REMARK                         _______ _______ _______ _____ _____    ______ ____
ROOT
ATOM      7  C   UNL     1      -7.398 -10.192  16.782  0.00  0.00    +0.000 C 
ATOM      8  C   UNL     1      -5.943  -9.744  16.493  0.00  0.00    +0.032 C 
ATOM      9  C   UNL     1      -7.608 -10.391  18.290  0.00  0.00    +0.012 C 
ATOM     10  C   UNL     1      -6.648 -11.442  18.879  0.00  0.00    +0.023 C 
ATOM     12  C   UNL     1      -5.222 -11.221  18.418  0.00  0.00    -0.073 C 
ATOM     13  C   UNL     1      -4.925 -10.449  17.358  0.00  0.00    -0.022 C 
ATOM     18  C   UNL     1      -4.139 -11.874  19.231  0.00  0.00    +0.039 C 
ENDROOT
BRANCH   7  11
ATOM     11  C   UNL     1      -8.421  -9.186  16.243  0.00  0.00    -0.013 C 
ATOM     16  C   UNL     1      -9.089  -8.440  17.394  0.00  0.00    +0.007 C 
ATOM     17  C   UNL     1      -9.461  -9.894  15.381  0.00  0.00    +0.007 C 
ENDBRANCH   7  11
BRANCH   8  14
ATOM     14  C   UNL     1      -5.586  -9.945  15.016  0.00  0.00    +0.112 C 
BRANCH  14   5
ATOM      3  O   UNL     1      -4.426 -11.688  13.021  0.00  0.00    -0.273 OA
ATOM      5  N   UNL     1      -4.208 -10.292  14.871  0.00  0.00    -0.313 N 
ATOM     20  C   UNL     1      -3.731 -11.145  13.874  0.00  0.00    +0.239 C 
ATOM     30  H   UNL     1      -3.536  -9.844  15.488  0.00  0.00    +0.149 HD
BRANCH  20  22
ATOM     22  C   UNL     1      -2.232 -11.338  13.954  0.00  0.00    +0.255 C 
BRANCH  22   4
ATOM      4  O   UNL     1      -1.797 -12.265  12.982  0.00  0.00    -0.374 OA
ATOM     26  C   UNL     1      -1.463 -13.524  13.560  0.00  0.00    +0.194 C 
ENDBRANCH  22   4
ENDBRANCH  20  22
ENDBRANCH  14   5
ENDBRANCH   8  14
BRANCH  10  15
ATOM     15  C   UNL     1      -7.117 -12.864  18.552  0.00  0.00    +0.103 C 
BRANCH  15  19
ATOM      2  O   UNL     1      -8.509 -13.461  20.439  0.00  0.00    -0.276 OA
ATOM      6  N   UNL     1      -9.476 -13.192  18.343  0.00  0.00    -0.311 N 
ATOM     19  C   UNL     1      -8.419 -13.205  19.241  0.00  0.00    +0.214 C 
ATOM     31  H   UNL     1      -9.303 -12.963  17.369  0.00  0.00    +0.149 HD
BRANCH   6  21
ATOM     21  C   UNL     1     -10.838 -13.485  18.724  0.00  0.00    +0.139 C 
BRANCH  21  23
ATOM      1  F   UNL     1     -13.425  -8.984  20.906  0.00  0.00    -0.205 F 
ATOM     23  C   UNL     1     -11.529 -12.285  19.305  0.00  0.00    -0.030 A 
ATOM     24  C   UNL     1     -11.366 -11.032  18.714  0.00  0.00    +0.008 A 
ATOM     25  C   UNL     1     -12.332 -12.423  20.438  0.00  0.00    +0.008 A 
ATOM     27  C   UNL     1     -12.007  -9.917  19.254  0.00  0.00    +0.038 A 
ATOM     28  C   UNL     1     -12.973 -11.308  20.977  0.00  0.00    +0.038 A 
ATOM     29  C   UNL     1     -12.811 -10.056  20.386  0.00  0.00    +0.123 A 
ENDBRANCH  21  23
ENDBRANCH   6  21
ENDBRANCH  15  19
ENDBRANCH  10  15
TORSDOF 9
ENDMDL
MODEL 10
REMARK VINA RESULT:      -5.6     16.659     20.313
REMARK  Name = 38027577
REMARK  13 active torsions:
REMARK  status: ('A' for Active; 'I' for Inactive)
REMARK    1  A    between atoms: O_4  and  C_22
REMARK    2  A    between atoms: O_4  and  C_26
REMARK    3  A    between atoms: N_5  and  C_14
REMARK    4  A    between atoms: N_6  and  C_21
REMARK    5  A    between atoms: C_7  and  C_11
REMARK    6  A    between atoms: C_8  and  C_14
REMARK    7  A    between atoms: C_10  and  C_15
REMARK    8  A    between atoms: C_11  and  C_16
REMARK    9  A    between atoms: C_11  and  C_17
REMARK   10  A    between atoms: C_12  and  C_18
REMARK   11  A    between atoms: C_15  and  C_19
REMARK   12  A    between atoms: C_20  and  C_22
REMARK   13  A    between atoms: C_21  and  C_23
REMARK                            x       y       z     vdW  Elec       q    Type
REMARK                         _______ _______ _______ _____ _____    ______ ____
ROOT
ATOM      7  C   UNL     1       9.302   8.226   2.451  0.00  0.00    +0.000 C 
ATOM      8  C   UNL     1       8.289   7.854   3.561  0.00  0.00    +0.032 C 
ATOM      9  C   UNL     1       9.900   6.957   1.823  0.00  0.00    +0.012 C 
ATOM     10  C   UNL     1      10.616   6.075   2.862  0.00  0.00    +0.023 C 
ATOM     12  C   UNL     1       9.780   5.883   4.110  0.00  0.00    -0.073 C 
ATOM     13  C   UNL     1       8.735   6.679   4.399  0.00  0.00    -0.022 C 
ATOM     18  C   UNL     1      10.143   4.725   4.998  0.00  0.00    +0.039 C 
ENDROOT
BRANCH   7  11
ATOM     11  C   UNL     1       8.661   9.091   1.361  0.00  0.00    -0.013 C 
ATOM     16  C   UNL     1       8.867   8.458  -0.011  0.00  0.00    +0.007 C 
ATOM     17  C   UNL     1       9.234  10.504   1.397  0.00  0.00    +0.007 C 
ENDBRANCH   7  11
BRANCH   8  14
ATOM     14  C   UNL     1       8.003   9.053   4.473  0.00  0.00    +0.112 C 
BRANCH  14   5
ATOM      3  O   UNL     1      10.183   9.945   6.150  0.00  0.00    -0.273 OA
ATOM      5  N   UNL     1       8.232   8.715   5.842  0.00  0.00    -0.313 N 
ATOM     20  C   UNL     1       9.314   9.193   6.581  0.00  0.00    +0.239 C 
ATOM     30  H   UNL     1       7.534   8.148   6.315  0.00  0.00    +0.149 HD
BRANCH  20  22
ATOM     22  C   UNL     1       9.309   8.676   8.003  0.00  0.00    +0.255 C 
BRANCH  22   4
ATOM      4  O   UNL     1       8.537   7.498   8.103  0.00  0.00    -0.374 OA
ATOM     26  C   UNL     1       9.350   6.346   8.314  0.00  0.00    +0.194 C 
ENDBRANCH  22   4
ENDBRANCH  20  22
ENDBRANCH  14   5
ENDBRANCH   8  14
BRANCH  10  15
ATOM     15  C   UNL     1      11.997   6.642   3.210  0.00  0.00    +0.103 C 
BRANCH  15  19
ATOM      2  O   UNL     1      14.187   6.388   2.212  0.00  0.00    -0.276 OA
ATOM      6  N   UNL     1      12.749   4.564   2.296  0.00  0.00    -0.311 N 
ATOM     19  C   UNL     1      13.112   5.884   2.523  0.00  0.00    +0.214 C 
ATOM     31  H   UNL     1      11.836   4.236   2.596  0.00  0.00    +0.149 HD
BRANCH   6  21
ATOM     21  C   UNL     1      13.620   3.607   1.652  0.00  0.00    +0.139 C 
BRANCH  21  23
ATOM      1  F   UNL     1      13.335   3.948  -3.961  0.00  0.00    -0.205 F 
ATOM     23  C   UNL     1      13.544   3.697   0.156  0.00  0.00    -0.030 A 
ATOM     24  C   UNL     1      14.631   4.187  -0.569  0.00  0.00    +0.008 A 
ATOM     25  C   UNL     1      12.386   3.293  -0.510  0.00  0.00    +0.008 A 
ATOM     27  C   UNL     1      14.560   4.271  -1.960  0.00  0.00    +0.038 A 
ATOM     28  C   UNL     1      12.316   3.377  -1.900  0.00  0.00    +0.038 A 
ATOM     29  C   UNL     1      13.402   3.865  -2.626  0.00  0.00    +0.123 A 
ENDBRANCH  21  23
ENDBRANCH   6  21
ENDBRANCH  15  19
ENDBRANCH  10  15
TORSDOF 9
ENDMDL
