MODEL 1
REMARK VINA RESULT:      -7.3      0.000      0.000
REMARK  Name = 25390136
REMARK  10 active torsions:
REMARK  status: ('A' for Active; 'I' for Inactive)
REMARK    1  A    between atoms: O_3  and  C_11
REMARK    2  A    between atoms: O_4  and  C_12
REMARK    3  A    between atoms: N_7  and  C_16
REMARK    4  A    between atoms: N_9  and  C_20
REMARK    5  A    between atoms: C_13  and  C_15
REMARK    6  A    between atoms: C_14  and  C_16
REMARK    7  A    between atoms: C_15  and  C_17
REMARK    8  A    between atoms: C_19  and  C_21
REMARK    9  A    between atoms: C_20  and  C_22
REMARK   10  A    between atoms: C_20  and  C_23
REMARK                            x       y       z     vdW  Elec       q    Type
REMARK                         _______ _______ _______ _____ _____    ______ ____
ROOT
ATOM      2  O   UNL     1      10.945  10.187  21.233  0.00  0.00    -0.366 OA
ATOM     11  C   UNL     1      11.608  10.198  23.496  0.00  0.00    +0.175 C 
ATOM     12  C   UNL     1      11.751  11.609  22.962  0.00  0.00    +0.176 C 
ATOM     13  C   UNL     1      10.626   9.596  22.505  0.00  0.00    +0.159 C 
ATOM     14  C   UNL     1      11.731  11.380  21.455  0.00  0.00    +0.167 C 
ENDROOT
BRANCH  11   3
ATOM      3  O   UNL     1      11.122  10.149  24.821  0.00  0.00    -0.387 OA
ATOM     29  H   UNL     1      11.789  10.567  25.392  0.00  0.00    +0.210 HD
ENDBRANCH  11   3
BRANCH  12   4
ATOM      4  O   UNL     1      10.607  12.388  23.307  0.00  0.00    -0.387 OA
ATOM     30  H   UNL     1      10.173  11.951  24.060  0.00  0.00    +0.210 HD
ENDBRANCH  12   4
BRANCH  13  15
ATOM     15  C   UNL     1      10.721   8.085  22.406  0.00  0.00    +0.133 C 
BRANCH  15  17
ATOM      5  O   UNL     1      11.531   7.349  20.228  0.00  0.00    -0.338 OA
ATOM      8  N   UNL     1      13.126   7.513  21.791  0.00  0.00    -0.191 NA
ATOM     10  N   UNL     1      12.728   6.977  19.603  0.00  0.00    -0.056 NA
ATOM     17  C   UNL     1      11.855   7.650  21.512  0.00  0.00    +0.230 A 
ATOM     19  C   UNL     1      13.622   7.099  20.589  0.00  0.00    +0.202 A 
BRANCH  19  21
ATOM      1  F   UNL     1      19.031   6.004  19.878  0.00  0.00    -0.205 F 
ATOM     21  C   UNL     1      15.016   6.816  20.406  0.00  0.00    +0.023 A 
ATOM     24  C   UNL     1      15.502   6.489  19.140  0.00  0.00    +0.014 A 
ATOM     25  C   UNL     1      15.887   6.870  21.493  0.00  0.00    +0.014 A 
ATOM     26  C   UNL     1      16.857   6.214  18.962  0.00  0.00    +0.039 A 
ATOM     27  C   UNL     1      17.244   6.596  21.316  0.00  0.00    +0.039 A 
ATOM     28  C   UNL     1      17.728   6.268  20.049  0.00  0.00    +0.123 A 
ENDBRANCH  19  21
ENDBRANCH  15  17
ENDBRANCH  13  15
BRANCH  14  16
ATOM     16  C   UNL     1      13.116  11.141  20.869  0.00  0.00    +0.140 C 
BRANCH  16   7
ATOM      6  O   UNL     1      13.383  11.724  18.056  0.00  0.00    -0.253 OA
ATOM      7  N   UNL     1      13.065  10.205  19.785  0.00  0.00    -0.297 N 
ATOM      9  N   UNL     1      13.116   9.465  17.598  0.00  0.00    -0.297 N 
ATOM     18  C   UNL     1      13.204  10.569  18.442  0.00  0.00    +0.300 C 
ATOM     31  H   UNL     1      12.935   9.223  20.006  0.00  0.00    +0.150 HD
ATOM     32  H   UNL     1      12.894   8.562  18.006  0.00  0.00    +0.150 HD
BRANCH   9  20
ATOM     20  C   UNL     1      13.228   9.566  16.162  0.00  0.00    +0.068 C 
ATOM     22  C   UNL     1      11.866   9.358  15.510  0.00  0.00    +0.027 C 
ATOM     23  C   UNL     1      14.251   8.569  15.633  0.00  0.00    +0.027 C 
ENDBRANCH   9  20
ENDBRANCH  16   7
ENDBRANCH  14  16
TORSDOF 8
ENDMDL
MODEL 2
REMARK VINA RESULT:      -7.1      2.403      4.837
REMARK  Name = 25390136
REMARK  10 active torsions:
REMARK  status: ('A' for Active; 'I' for Inactive)
REMARK    1  A    between atoms: O_3  and  C_11
REMARK    2  A    between atoms: O_4  and  C_12
REMARK    3  A    between atoms: N_7  and  C_16
REMARK    4  A    between atoms: N_9  and  C_20
REMARK    5  A    between atoms: C_13  and  C_15
REMARK    6  A    between atoms: C_14  and  C_16
REMARK    7  A    between atoms: C_15  and  C_17
REMARK    8  A    between atoms: C_19  and  C_21
REMARK    9  A    between atoms: C_20  and  C_22
REMARK   10  A    between atoms: C_20  and  C_23
REMARK                            x       y       z     vdW  Elec       q    Type
REMARK                         _______ _______ _______ _____ _____    ______ ____
ROOT
ATOM      2  O   UNL     1      10.553   9.253  20.579  0.00  0.00    -0.366 OA
ATOM     11  C   UNL     1      11.701   7.232  20.975  0.00  0.00    +0.175 C 
ATOM     12  C   UNL     1      10.783   7.485  22.154  0.00  0.00    +0.176 C 
ATOM     13  C   UNL     1      11.058   8.090  19.899  0.00  0.00    +0.159 C 
ATOM     14  C   UNL     1      10.463   8.967  21.993  0.00  0.00    +0.167 C 
ENDROOT
BRANCH  11   3
ATOM      3  O   UNL     1      11.767   5.872  20.600  0.00  0.00    -0.387 OA
ATOM     29  H   UNL     1      12.238   5.827  19.750  0.00  0.00    +0.210 HD
ENDBRANCH  11   3
BRANCH  12   4
ATOM      4  O   UNL     1       9.569   6.750  22.003  0.00  0.00    -0.387 OA
ATOM     30  H   UNL     1       9.211   6.595  22.894  0.00  0.00    +0.210 HD
ENDBRANCH  12   4
BRANCH  13  15
ATOM     15  C   UNL     1      12.025   8.514  18.809  0.00  0.00    +0.133 C 
BRANCH  15  17
ATOM      5  O   UNL     1      13.978   9.595  19.790  0.00  0.00    -0.338 OA
ATOM      8  N   UNL     1      14.295   7.446  19.250  0.00  0.00    -0.191 NA
ATOM     10  N   UNL     1      15.299   9.296  20.144  0.00  0.00    -0.056 NA
ATOM     17  C   UNL     1      13.458   8.451  19.273  0.00  0.00    +0.230 A 
ATOM     19  C   UNL     1      15.411   8.012  19.795  0.00  0.00    +0.202 A 
BRANCH  19  21
ATOM      1  F   UNL     1      20.107   5.113  20.507  0.00  0.00    -0.205 F 
ATOM     21  C   UNL     1      16.622   7.264  19.978  0.00  0.00    +0.023 A 
ATOM     24  C   UNL     1      17.512   7.616  20.993  0.00  0.00    +0.014 A 
ATOM     25  C   UNL     1      16.908   6.185  19.143  0.00  0.00    +0.014 A 
ATOM     26  C   UNL     1      18.688   6.890  21.171  0.00  0.00    +0.039 A 
ATOM     27  C   UNL     1      18.086   5.458  19.321  0.00  0.00    +0.039 A 
ATOM     28  C   UNL     1      18.976   5.811  20.336  0.00  0.00    +0.123 A 
ENDBRANCH  19  21
ENDBRANCH  15  17
ENDBRANCH  13  15
BRANCH  14  16
ATOM     16  C   UNL     1      11.451   9.872  22.716  0.00  0.00    +0.140 C 
BRANCH  16   7
ATOM      6  O   UNL     1      11.434  12.533  21.599  0.00  0.00    -0.253 OA
ATOM      7  N   UNL     1      10.797  11.030  23.252  0.00  0.00    -0.297 N 
ATOM      9  N   UNL     1      10.118  13.233  23.378  0.00  0.00    -0.297 N 
ATOM     18  C   UNL     1      10.838  12.290  22.648  0.00  0.00    +0.300 C 
ATOM     31  H   UNL     1      10.266  10.924  24.111  0.00  0.00    +0.150 HD
ATOM     32  H   UNL     1       9.722  12.953  24.269  0.00  0.00    +0.150 HD
BRANCH   9  20
ATOM     20  C   UNL     1      10.000  14.613  22.971  0.00  0.00    +0.068 C 
ATOM     22  C   UNL     1       9.944  15.522  24.193  0.00  0.00    +0.027 C 
ATOM     23  C   UNL     1       8.777  14.806  22.083  0.00  0.00    +0.027 C 
ENDBRANCH   9  20
ENDBRANCH  16   7
ENDBRANCH  14  16
TORSDOF 8
ENDMDL
MODEL 3
REMARK VINA RESULT:      -6.6      1.846      2.869
REMARK  Name = 25390136
REMARK  10 active torsions:
REMARK  status: ('A' for Active; 'I' for Inactive)
REMARK    1  A    between atoms: O_3  and  C_11
REMARK    2  A    between atoms: O_4  and  C_12
REMARK    3  A    between atoms: N_7  and  C_16
REMARK    4  A    between atoms: N_9  and  C_20
REMARK    5  A    between atoms: C_13  and  C_15
REMARK    6  A    between atoms: C_14  and  C_16
REMARK    7  A    between atoms: C_15  and  C_17
REMARK    8  A    between atoms: C_19  and  C_21
REMARK    9  A    between atoms: C_20  and  C_22
REMARK   10  A    between atoms: C_20  and  C_23
REMARK                            x       y       z     vdW  Elec       q    Type
REMARK                         _______ _______ _______ _____ _____    ______ ____
ROOT
ATOM      2  O   UNL     1      12.980   9.939  22.907  0.00  0.00    -0.366 OA
ATOM     11  C   UNL     1      12.240  12.085  23.545  0.00  0.00    +0.175 C 
ATOM     12  C   UNL     1      11.165  11.089  23.930  0.00  0.00    +0.176 C 
ATOM     13  C   UNL     1      13.461  11.188  23.434  0.00  0.00    +0.159 C 
ATOM     14  C   UNL     1      11.547   9.872  23.094  0.00  0.00    +0.167 C 
ENDROOT
BRANCH  11   3
ATOM      3  O   UNL     1      12.420  13.110  24.499  0.00  0.00    -0.387 OA
ATOM     29  H   UNL     1      12.039  13.924  24.128  0.00  0.00    +0.210 HD
ENDBRANCH  11   3
BRANCH  12   4
ATOM      4  O   UNL     1      11.287  10.736  25.307  0.00  0.00    -0.387 OA
ATOM     30  H   UNL     1      12.234  10.623  25.496  0.00  0.00    +0.210 HD
ENDBRANCH  12   4
BRANCH  13  15
ATOM     15  C   UNL     1      14.538  11.747  22.522  0.00  0.00    +0.133 C 
BRANCH  15  17
ATOM      5  O   UNL     1      14.705  10.674  20.340  0.00  0.00    -0.338 OA
ATOM      8  N   UNL     1      16.000   9.751  21.916  0.00  0.00    -0.191 NA
ATOM     10  N   UNL     1      15.380   9.616  19.718  0.00  0.00    -0.056 NA
ATOM     17  C   UNL     1      15.128  10.684  21.631  0.00  0.00    +0.230 A 
ATOM     19  C   UNL     1      16.124   9.121  20.712  0.00  0.00    +0.202 A 
BRANCH  19  21
ATOM      1  F   UNL     1      19.524   4.771  20.024  0.00  0.00    -0.205 F 
ATOM     21  C   UNL     1      17.000   7.999  20.535  0.00  0.00    +0.023 A 
ATOM     24  C   UNL     1      16.675   6.997  19.621  0.00  0.00    +0.014 A 
ATOM     25  C   UNL     1      18.179   7.912  21.275  0.00  0.00    +0.014 A 
ATOM     26  C   UNL     1      17.527   5.907  19.449  0.00  0.00    +0.039 A 
ATOM     27  C   UNL     1      19.032   6.821  21.103  0.00  0.00    +0.039 A 
ATOM     28  C   UNL     1      18.706   5.818  20.189  0.00  0.00    +0.123 A 
ENDBRANCH  19  21
ENDBRANCH  15  17
ENDBRANCH  13  15
BRANCH  14  16
ATOM     16  C   UNL     1      10.898   9.867  21.717  0.00  0.00    +0.140 C 
BRANCH  16   7
ATOM      6  O   UNL     1      10.502   8.481  19.217  0.00  0.00    -0.253 OA
ATOM      7  N   UNL     1      11.870   9.651  20.686  0.00  0.00    -0.297 N 
ATOM      9  N   UNL     1      12.718   8.902  18.673  0.00  0.00    -0.297 N 
ATOM     18  C   UNL     1      11.597   8.966  19.498  0.00  0.00    +0.300 C 
ATOM     31  H   UNL     1      12.803  10.028  20.821  0.00  0.00    +0.150 HD
ATOM     32  H   UNL     1      13.597   9.268  19.025  0.00  0.00    +0.150 HD
BRANCH   9  20
ATOM     20  C   UNL     1      12.706   8.249  17.386  0.00  0.00    +0.068 C 
ATOM     22  C   UNL     1      14.082   7.676  17.071  0.00  0.00    +0.027 C 
ATOM     23  C   UNL     1      12.249   9.216  16.300  0.00  0.00    +0.027 C 
ENDBRANCH   9  20
ENDBRANCH  16   7
ENDBRANCH  14  16
TORSDOF 8
ENDMDL
MODEL 4
REMARK VINA RESULT:      -6.6      2.865      5.314
REMARK  Name = 25390136
REMARK  10 active torsions:
REMARK  status: ('A' for Active; 'I' for Inactive)
REMARK    1  A    between atoms: O_3  and  C_11
REMARK    2  A    between atoms: O_4  and  C_12
REMARK    3  A    between atoms: N_7  and  C_16
REMARK    4  A    between atoms: N_9  and  C_20
REMARK    5  A    between atoms: C_13  and  C_15
REMARK    6  A    between atoms: C_14  and  C_16
REMARK    7  A    between atoms: C_15  and  C_17
REMARK    8  A    between atoms: C_19  and  C_21
REMARK    9  A    between atoms: C_20  and  C_22
REMARK   10  A    between atoms: C_20  and  C_23
REMARK                            x       y       z     vdW  Elec       q    Type
REMARK                         _______ _______ _______ _____ _____    ______ ____
ROOT
ATOM      2  O   UNL     1      12.057   9.132  20.126  0.00  0.00    -0.366 OA
ATOM     11  C   UNL     1      11.663   7.124  21.297  0.00  0.00    +0.175 C 
ATOM     12  C   UNL     1      11.271   8.274  22.202  0.00  0.00    +0.176 C 
ATOM     13  C   UNL     1      11.607   7.780  19.928  0.00  0.00    +0.159 C 
ATOM     14  C   UNL     1      11.968   9.454  21.534  0.00  0.00    +0.167 C 
ENDROOT
BRANCH  11   3
ATOM      3  O   UNL     1      10.790   6.017  21.391  0.00  0.00    -0.387 OA
ATOM     29  H   UNL     1      11.250   5.250  21.010  0.00  0.00    +0.210 HD
ENDBRANCH  11   3
BRANCH  12   4
ATOM      4  O   UNL     1       9.863   8.498  22.138  0.00  0.00    -0.387 OA
ATOM     30  H   UNL     1       9.572   8.777  23.023  0.00  0.00    +0.210 HD
ENDBRANCH  12   4
BRANCH  13  15
ATOM     15  C   UNL     1      12.484   7.095  18.896  0.00  0.00    +0.133 C 
BRANCH  15  17
ATOM      5  O   UNL     1      12.215   8.079  16.683  0.00  0.00    -0.338 OA
ATOM      8  N   UNL     1      13.966   8.871  17.831  0.00  0.00    -0.191 NA
ATOM     10  N   UNL     1      12.828   9.026  15.853  0.00  0.00    -0.056 NA
ATOM     17  C   UNL     1      12.947   8.051  17.827  0.00  0.00    +0.230 A 
ATOM     19  C   UNL     1      13.852   9.448  16.599  0.00  0.00    +0.202 A 
BRANCH  19  21
ATOM      1  F   UNL     1      17.449  13.312  14.841  0.00  0.00    -0.205 F 
ATOM     21  C   UNL     1      14.779  10.445  16.146  0.00  0.00    +0.023 A 
ATOM     24  C   UNL     1      15.214  11.441  17.019  0.00  0.00    +0.014 A 
ATOM     25  C   UNL     1      15.246  10.416  14.832  0.00  0.00    +0.014 A 
ATOM     26  C   UNL     1      16.115  12.410  16.578  0.00  0.00    +0.039 A 
ATOM     27  C   UNL     1      16.148  11.384  14.391  0.00  0.00    +0.039 A 
ATOM     28  C   UNL     1      16.583  12.382  15.264  0.00  0.00    +0.123 A 
ENDBRANCH  19  21
ENDBRANCH  15  17
ENDBRANCH  13  15
BRANCH  14  16
ATOM     16  C   UNL     1      13.382   9.680  22.049  0.00  0.00    +0.140 C 
BRANCH  16   7
ATOM      6  O   UNL     1      14.982   7.293  22.317  0.00  0.00    -0.253 OA
ATOM      7  N   UNL     1      14.358   9.186  21.122  0.00  0.00    -0.297 N 
ATOM      9  N   UNL     1      15.970   7.769  20.271  0.00  0.00    -0.297 N 
ATOM     18  C   UNL     1      15.095   8.016  21.327  0.00  0.00    +0.300 C 
ATOM     31  H   UNL     1      14.512   9.709  20.266  0.00  0.00    +0.150 HD
ATOM     32  H   UNL     1      16.044   8.462  19.534  0.00  0.00    +0.150 HD
BRANCH   9  20
ATOM     20  C   UNL     1      16.846   6.622  20.233  0.00  0.00    +0.068 C 
ATOM     22  C   UNL     1      18.251   7.016  20.672  0.00  0.00    +0.027 C 
ATOM     23  C   UNL     1      16.856   6.002  18.842  0.00  0.00    +0.027 C 
ENDBRANCH   9  20
ENDBRANCH  16   7
ENDBRANCH  14  16
TORSDOF 8
ENDMDL
MODEL 5
REMARK VINA RESULT:      -6.5      2.477      4.952
REMARK  Name = 25390136
REMARK  10 active torsions:
REMARK  status: ('A' for Active; 'I' for Inactive)
REMARK    1  A    between atoms: O_3  and  C_11
REMARK    2  A    between atoms: O_4  and  C_12
REMARK    3  A    between atoms: N_7  and  C_16
REMARK    4  A    between atoms: N_9  and  C_20
REMARK    5  A    between atoms: C_13  and  C_15
REMARK    6  A    between atoms: C_14  and  C_16
REMARK    7  A    between atoms: C_15  and  C_17
REMARK    8  A    between atoms: C_19  and  C_21
REMARK    9  A    between atoms: C_20  and  C_22
REMARK   10  A    between atoms: C_20  and  C_23
REMARK                            x       y       z     vdW  Elec       q    Type
REMARK                         _______ _______ _______ _____ _____    ______ ____
ROOT
ATOM      2  O   UNL     1      11.229   8.543  19.583  0.00  0.00    -0.366 OA
ATOM     11  C   UNL     1      12.128   7.025  21.147  0.00  0.00    +0.175 C 
ATOM     12  C   UNL     1      11.132   7.906  21.873  0.00  0.00    +0.176 C 
ATOM     13  C   UNL     1      11.679   7.182  19.704  0.00  0.00    +0.159 C 
ATOM     14  C   UNL     1      10.977   9.073  20.904  0.00  0.00    +0.167 C 
ENDROOT
BRANCH  11   3
ATOM      3  O   UNL     1      12.095   5.678  21.569  0.00  0.00    -0.387 OA
ATOM     29  H   UNL     1      11.859   5.674  22.512  0.00  0.00    +0.210 HD
ENDBRANCH  11   3
BRANCH  12   4
ATOM      4  O   UNL     1       9.871   7.247  21.978  0.00  0.00    -0.387 OA
ATOM     30  H   UNL     1       9.395   7.647  22.725  0.00  0.00    +0.210 HD
ENDBRANCH  12   4
BRANCH  13  15
ATOM     15  C   UNL     1      12.783   6.916  18.697  0.00  0.00    +0.133 C 
BRANCH  15  17
ATOM      5  O   UNL     1      14.345   8.692  19.286  0.00  0.00    -0.338 OA
ATOM      8  N   UNL     1      15.146   6.625  19.601  0.00  0.00    -0.191 NA
ATOM     10  N   UNL     1      15.645   8.850  19.782  0.00  0.00    -0.056 NA
ATOM     17  C   UNL     1      14.131   7.352  19.211  0.00  0.00    +0.230 A 
ATOM     19  C   UNL     1      16.051   7.587  19.942  0.00  0.00    +0.202 A 
BRANCH  19  21
ATOM      1  F   UNL     1      21.104   6.291  21.878  0.00  0.00    -0.205 F 
ATOM     21  C   UNL     1      17.354   7.253  20.442  0.00  0.00    +0.023 A 
ATOM     24  C   UNL     1      18.035   6.149  19.929  0.00  0.00    +0.014 A 
ATOM     25  C   UNL     1      17.940   8.032  21.439  0.00  0.00    +0.014 A 
ATOM     26  C   UNL     1      19.301   5.824  20.414  0.00  0.00    +0.039 A 
ATOM     27  C   UNL     1      19.207   7.708  21.924  0.00  0.00    +0.039 A 
ATOM     28  C   UNL     1      19.888   6.603  21.412  0.00  0.00    +0.123 A 
ENDBRANCH  19  21
ENDBRANCH  15  17
ENDBRANCH  13  15
BRANCH  14  16
ATOM     16  C   UNL     1      11.977  10.193  21.155  0.00  0.00    +0.140 C 
BRANCH  16   7
ATOM      6  O   UNL     1      13.919  11.910  22.425  0.00  0.00    -0.253 OA
ATOM      7  N   UNL     1      12.085  10.488  22.554  0.00  0.00    -0.297 N 
ATOM      9  N   UNL     1      12.936  11.445  24.476  0.00  0.00    -0.297 N 
ATOM     18  C   UNL     1      13.060  11.334  23.093  0.00  0.00    +0.300 C 
ATOM     31  H   UNL     1      11.409  10.069  23.185  0.00  0.00    +0.150 HD
ATOM     32  H   UNL     1      12.241  10.874  24.945  0.00  0.00    +0.150 HD
BRANCH   9  20
ATOM     20  C   UNL     1      13.818  12.260  25.277  0.00  0.00    +0.068 C 
ATOM     22  C   UNL     1      14.778  11.379  26.068  0.00  0.00    +0.027 C 
ATOM     23  C   UNL     1      13.017  13.169  26.200  0.00  0.00    +0.027 C 
ENDBRANCH   9  20
ENDBRANCH  16   7
ENDBRANCH  14  16
TORSDOF 8
ENDMDL
MODEL 6
REMARK VINA RESULT:      -6.4     14.082     17.481
REMARK  Name = 25390136
REMARK  10 active torsions:
REMARK  status: ('A' for Active; 'I' for Inactive)
REMARK    1  A    between atoms: O_3  and  C_11
REMARK    2  A    between atoms: O_4  and  C_12
REMARK    3  A    between atoms: N_7  and  C_16
REMARK    4  A    between atoms: N_9  and  C_20
REMARK    5  A    between atoms: C_13  and  C_15
REMARK    6  A    between atoms: C_14  and  C_16
REMARK    7  A    between atoms: C_15  and  C_17
REMARK    8  A    between atoms: C_19  and  C_21
REMARK    9  A    between atoms: C_20  and  C_22
REMARK   10  A    between atoms: C_20  and  C_23
REMARK                            x       y       z     vdW  Elec       q    Type
REMARK                         _______ _______ _______ _____ _____    ______ ____
ROOT
ATOM      2  O   UNL     1       9.113   5.715   6.402  0.00  0.00    -0.366 OA
ATOM     11  C   UNL     1      11.306   6.579   6.338  0.00  0.00    +0.175 C 
ATOM     12  C   UNL     1      10.897   6.455   7.791  0.00  0.00    +0.176 C 
ATOM     13  C   UNL     1      10.346   5.611   5.668  0.00  0.00    +0.159 C 
ATOM     14  C   UNL     1       9.382   6.328   7.684  0.00  0.00    +0.167 C 
ENDROOT
BRANCH  11   3
ATOM      3  O   UNL     1      12.656   6.234   6.106  0.00  0.00    -0.387 OA
ATOM     29  H   UNL     1      12.935   6.681   5.289  0.00  0.00    +0.210 HD
ENDBRANCH  11   3
BRANCH  12   4
ATOM      4  O   UNL     1      11.405   5.244   8.348  0.00  0.00    -0.387 OA
ATOM     30  H   UNL     1      11.809   5.464   9.205  0.00  0.00    +0.210 HD
ENDBRANCH  12   4
BRANCH  13  15
ATOM     15  C   UNL     1      10.098   5.925   4.204  0.00  0.00    +0.133 C 
BRANCH  15  17
ATOM      5  O   UNL     1      10.743   3.787   3.228  0.00  0.00    -0.338 OA
ATOM      8  N   UNL     1      11.993   5.517   2.552  0.00  0.00    -0.191 NA
ATOM     10  N   UNL     1      11.687   3.260   2.337  0.00  0.00    -0.056 NA
ATOM     17  C   UNL     1      10.993   5.120   3.296  0.00  0.00    +0.230 A 
ATOM     19  C   UNL     1      12.387   4.341   1.982  0.00  0.00    +0.202 A 
BRANCH  19  21
ATOM      1  F   UNL     1      16.646   4.106  -1.592  0.00  0.00    -0.205 F 
ATOM     21  C   UNL     1      13.485   4.281   1.060  0.00  0.00    +0.023 A 
ATOM     24  C   UNL     1      14.730   3.818   1.488  0.00  0.00    +0.014 A 
ATOM     25  C   UNL     1      13.308   4.683  -0.263  0.00  0.00    +0.014 A 
ATOM     26  C   UNL     1      15.797   3.759   0.592  0.00  0.00    +0.039 A 
ATOM     27  C   UNL     1      14.375   4.624  -1.160  0.00  0.00    +0.039 A 
ATOM     28  C   UNL     1      15.620   4.162  -0.731  0.00  0.00    +0.123 A 
ENDBRANCH  19  21
ENDBRANCH  15  17
ENDBRANCH  13  15
BRANCH  14  16
ATOM     16  C   UNL     1       8.667   7.672   7.716  0.00  0.00    +0.140 C 
BRANCH  16   7
ATOM      6  O   UNL     1       9.083   9.586   5.596  0.00  0.00    -0.253 OA
ATOM      7  N   UNL     1       7.857   7.856   6.547  0.00  0.00    -0.297 N 
ATOM      9  N   UNL     1       7.183   8.775   4.539  0.00  0.00    -0.297 N 
ATOM     18  C   UNL     1       8.128   8.811   5.562  0.00  0.00    +0.300 C 
ATOM     31  H   UNL     1       7.051   7.252   6.424  0.00  0.00    +0.150 HD
ATOM     32  H   UNL     1       6.389   8.150   4.637  0.00  0.00    +0.150 HD
BRANCH   9  20
ATOM     20  C   UNL     1       7.232   9.658   3.398  0.00  0.00    +0.068 C 
ATOM     22  C   UNL     1       5.822  10.001   2.934  0.00  0.00    +0.027 C 
ATOM     23  C   UNL     1       8.046   9.032   2.272  0.00  0.00    +0.027 C 
ENDBRANCH   9  20
ENDBRANCH  16   7
ENDBRANCH  14  16
TORSDOF 8
ENDMDL
MODEL 7
REMARK VINA RESULT:      -6.4      3.000      4.218
REMARK  Name = 25390136
REMARK  10 active torsions:
REMARK  status: ('A' for Active; 'I' for Inactive)
REMARK    1  A    between atoms: O_3  and  C_11
REMARK    2  A    between atoms: O_4  and  C_12
REMARK    3  A    between atoms: N_7  and  C_16
REMARK    4  A    between atoms: N_9  and  C_20
REMARK    5  A    between atoms: C_13  and  C_15
REMARK    6  A    between atoms: C_14  and  C_16
REMARK    7  A    between atoms: C_15  and  C_17
REMARK    8  A    between atoms: C_19  and  C_21
REMARK    9  A    between atoms: C_20  and  C_22
REMARK   10  A    between atoms: C_20  and  C_23
REMARK                            x       y       z     vdW  Elec       q    Type
REMARK                         _______ _______ _______ _____ _____    ______ ____
ROOT
ATOM      2  O   UNL     1      13.552   7.157  18.353  0.00  0.00    -0.366 OA
ATOM     11  C   UNL     1      11.701   8.460  19.014  0.00  0.00    +0.175 C 
ATOM     12  C   UNL     1      11.844   8.583  17.511  0.00  0.00    +0.176 C 
ATOM     13  C   UNL     1      12.457   7.171  19.287  0.00  0.00    +0.159 C 
ATOM     14  C   UNL     1      13.270   8.092  17.287  0.00  0.00    +0.167 C 
ENDROOT
BRANCH  11   3
ATOM      3  O   UNL     1      10.357   8.387  19.444  0.00  0.00    -0.387 OA
ATOM     29  H   UNL     1       9.834   8.967  18.864  0.00  0.00    +0.210 HD
ENDBRANCH  11   3
BRANCH  12   4
ATOM      4  O   UNL     1      10.956   7.681  16.853  0.00  0.00    -0.387 OA
ATOM     30  H   UNL     1      10.389   8.207  16.265  0.00  0.00    +0.210 HD
ENDBRANCH  12   4
BRANCH  13  15
ATOM     15  C   UNL     1      12.993   7.076  20.704  0.00  0.00    +0.133 C 
BRANCH  15  17
ATOM      5  O   UNL     1      14.766   8.744  20.823  0.00  0.00    -0.338 OA
ATOM      8  N   UNL     1      15.499   6.628  20.798  0.00  0.00    -0.191 NA
ATOM     10  N   UNL     1      16.164   8.815  20.885  0.00  0.00    -0.056 NA
ATOM     17  C   UNL     1      14.459   7.421  20.776  0.00  0.00    +0.230 A 
ATOM     19  C   UNL     1      16.522   7.528  20.866  0.00  0.00    +0.202 A 
BRANCH  19  21
ATOM      1  F   UNL     1      21.839   5.898  21.048  0.00  0.00    -0.205 F 
ATOM     21  C   UNL     1      17.893   7.108  20.913  0.00  0.00    +0.023 A 
ATOM     24  C   UNL     1      18.307   5.996  20.180  0.00  0.00    +0.014 A 
ATOM     25  C   UNL     1      18.812   7.812  21.691  0.00  0.00    +0.014 A 
ATOM     26  C   UNL     1      19.640   5.587  20.226  0.00  0.00    +0.039 A 
ATOM     27  C   UNL     1      20.145   7.403  21.737  0.00  0.00    +0.039 A 
ATOM     28  C   UNL     1      20.559   6.291  21.004  0.00  0.00    +0.123 A 
ENDBRANCH  19  21
ENDBRANCH  15  17
ENDBRANCH  13  15
BRANCH  14  16
ATOM     16  C   UNL     1      14.303   9.208  17.362  0.00  0.00    +0.140 C 
BRANCH  16   7
ATOM      6  O   UNL     1      14.830  10.008  14.639  0.00  0.00    -0.253 OA
ATOM      7  N   UNL     1      13.835  10.393  16.704  0.00  0.00    -0.297 N 
ATOM      9  N   UNL     1      13.555  11.915  14.990  0.00  0.00    -0.297 N 
ATOM     18  C   UNL     1      14.137  10.710  15.376  0.00  0.00    +0.300 C 
ATOM     31  H   UNL     1      13.243  11.029  17.228  0.00  0.00    +0.150 HD
ATOM     32  H   UNL     1      13.061  12.458  15.692  0.00  0.00    +0.150 HD
BRANCH   9  20
ATOM     20  C   UNL     1      13.710  12.471  13.667  0.00  0.00    +0.068 C 
ATOM     22  C   UNL     1      14.373  13.841  13.743  0.00  0.00    +0.027 C 
ATOM     23  C   UNL     1      12.364  12.549  12.958  0.00  0.00    +0.027 C 
ENDBRANCH   9  20
ENDBRANCH  16   7
ENDBRANCH  14  16
TORSDOF 8
ENDMDL
MODEL 8
REMARK VINA RESULT:      -6.2      3.010      5.593
REMARK  Name = 25390136
REMARK  10 active torsions:
REMARK  status: ('A' for Active; 'I' for Inactive)
REMARK    1  A    between atoms: O_3  and  C_11
REMARK    2  A    between atoms: O_4  and  C_12
REMARK    3  A    between atoms: N_7  and  C_16
REMARK    4  A    between atoms: N_9  and  C_20
REMARK    5  A    between atoms: C_13  and  C_15
REMARK    6  A    between atoms: C_14  and  C_16
REMARK    7  A    between atoms: C_15  and  C_17
REMARK    8  A    between atoms: C_19  and  C_21
REMARK    9  A    between atoms: C_20  and  C_22
REMARK   10  A    between atoms: C_20  and  C_23
REMARK                            x       y       z     vdW  Elec       q    Type
REMARK                         _______ _______ _______ _____ _____    ______ ____
ROOT
ATOM      2  O   UNL     1      13.456   8.740  20.833  0.00  0.00    -0.366 OA
ATOM     11  C   UNL     1      12.300   7.434  19.247  0.00  0.00    +0.175 C 
ATOM     12  C   UNL     1      11.688   8.820  19.242  0.00  0.00    +0.176 C 
ATOM     13  C   UNL     1      13.665   7.705  19.856  0.00  0.00    +0.159 C 
ATOM     14  C   UNL     1      12.195   9.393  20.561  0.00  0.00    +0.167 C 
ENDROOT
BRANCH  11   3
ATOM      3  O   UNL     1      12.398   6.862  17.959  0.00  0.00    -0.387 OA
ATOM     29  H   UNL     1      11.572   7.065  17.487  0.00  0.00    +0.210 HD
ENDBRANCH  11   3
BRANCH  12   4
ATOM      4  O   UNL     1      12.235   9.600  18.181  0.00  0.00    -0.387 OA
ATOM     30  H   UNL     1      13.107   9.917  18.472  0.00  0.00    +0.210 HD
ENDBRANCH  12   4
BRANCH  13  15
ATOM     15  C   UNL     1      14.280   6.488  20.523  0.00  0.00    +0.133 C 
BRANCH  15  17
ATOM      5  O   UNL     1      16.087   5.947  18.981  0.00  0.00    -0.338 OA
ATOM      8  N   UNL     1      16.778   6.610  21.005  0.00  0.00    -0.191 NA
ATOM     10  N   UNL     1      17.487   5.913  18.944  0.00  0.00    -0.056 NA
ATOM     17  C   UNL     1      15.753   6.368  20.228  0.00  0.00    +0.230 A 
ATOM     19  C   UNL     1      17.820   6.317  20.174  0.00  0.00    +0.202 A 
BRANCH  19  21
ATOM      1  F   UNL     1      23.108   6.792  21.838  0.00  0.00    -0.205 F 
ATOM     21  C   UNL     1      19.183   6.440  20.603  0.00  0.00    +0.023 A 
ATOM     24  C   UNL     1      20.077   5.389  20.395  0.00  0.00    +0.014 A 
ATOM     25  C   UNL     1      19.615   7.609  21.228  0.00  0.00    +0.014 A 
ATOM     26  C   UNL     1      21.402   5.508  20.812  0.00  0.00    +0.039 A 
ATOM     27  C   UNL     1      20.941   7.729  21.645  0.00  0.00    +0.039 A 
ATOM     28  C   UNL     1      21.835   6.678  21.437  0.00  0.00    +0.123 A 
ENDBRANCH  19  21
ENDBRANCH  15  17
ENDBRANCH  13  15
BRANCH  14  16
ATOM     16  C   UNL     1      11.263   9.111  21.731  0.00  0.00    +0.140 C 
BRANCH  16   7
ATOM      6  O   UNL     1      12.405  11.178  23.390  0.00  0.00    -0.253 OA
ATOM      7  N   UNL     1      10.619  10.309  22.183  0.00  0.00    -0.297 N 
ATOM      9  N   UNL     1      10.393  12.329  23.279  0.00  0.00    -0.297 N 
ATOM     18  C   UNL     1      11.245  11.266  22.989  0.00  0.00    +0.300 C 
ATOM     31  H   UNL     1       9.662  10.478  21.891  0.00  0.00    +0.150 HD
ATOM     32  H   UNL     1       9.430  12.276  22.964  0.00  0.00    +0.150 HD
BRANCH   9  20
ATOM     20  C   UNL     1      10.793  13.452  24.094  0.00  0.00    +0.068 C 
ATOM     22  C   UNL     1      10.592  13.133  25.570  0.00  0.00    +0.027 C 
ATOM     23  C   UNL     1      10.026  14.705  23.691  0.00  0.00    +0.027 C 
ENDBRANCH   9  20
ENDBRANCH  16   7
ENDBRANCH  14  16
TORSDOF 8
ENDMDL
MODEL 9
REMARK VINA RESULT:      -6.2      3.859      7.421
REMARK  Name = 25390136
REMARK  10 active torsions:
REMARK  status: ('A' for Active; 'I' for Inactive)
REMARK    1  A    between atoms: O_3  and  C_11
REMARK    2  A    between atoms: O_4  and  C_12
REMARK    3  A    between atoms: N_7  and  C_16
REMARK    4  A    between atoms: N_9  and  C_20
REMARK    5  A    between atoms: C_13  and  C_15
REMARK    6  A    between atoms: C_14  and  C_16
REMARK    7  A    between atoms: C_15  and  C_17
REMARK    8  A    between atoms: C_19  and  C_21
REMARK    9  A    between atoms: C_20  and  C_22
REMARK   10  A    between atoms: C_20  and  C_23
REMARK                            x       y       z     vdW  Elec       q    Type
REMARK                         _______ _______ _______ _____ _____    ______ ____
ROOT
ATOM      2  O   UNL     1      13.177   7.608  22.117  0.00  0.00    -0.366 OA
ATOM     11  C   UNL     1      12.865   7.541  19.781  0.00  0.00    +0.175 C 
ATOM     12  C   UNL     1      14.324   7.249  20.064  0.00  0.00    +0.176 C 
ATOM     13  C   UNL     1      12.223   7.209  21.117  0.00  0.00    +0.159 C 
ATOM     14  C   UNL     1      14.475   7.749  21.496  0.00  0.00    +0.167 C 
ENDROOT
BRANCH  11   3
ATOM      3  O   UNL     1      12.333   6.764  18.729  0.00  0.00    -0.387 OA
ATOM     29  H   UNL     1      11.365   6.854  18.760  0.00  0.00    +0.210 HD
ENDBRANCH  11   3
BRANCH  12   4
ATOM      4  O   UNL     1      14.557   5.841  20.059  0.00  0.00    -0.387 OA
ATOM     30  H   UNL     1      14.340   5.513  19.170  0.00  0.00    +0.210 HD
ENDBRANCH  12   4
BRANCH  13  15
ATOM     15  C   UNL     1      10.907   7.929  21.349  0.00  0.00    +0.133 C 
BRANCH  15  17
ATOM      5  O   UNL     1      11.583  10.180  20.701  0.00  0.00    -0.338 OA
ATOM      8  N   UNL     1      10.910  10.002  22.829  0.00  0.00    -0.191 NA
ATOM     10  N   UNL     1      11.693  11.463  21.253  0.00  0.00    -0.056 NA
ATOM     17  C   UNL     1      11.114   9.382  21.695  0.00  0.00    +0.230 A 
ATOM     19  C   UNL     1      11.279  11.276  22.509  0.00  0.00    +0.202 A 
BRANCH  19  21
ATOM      1  F   UNL     1      11.050  15.407  26.230  0.00  0.00    -0.205 F 
ATOM     21  C   UNL     1      11.220  12.341  23.468  0.00  0.00    +0.023 A 
ATOM     24  C   UNL     1      11.742  13.595  23.152  0.00  0.00    +0.014 A 
ATOM     25  C   UNL     1      10.640  12.123  24.717  0.00  0.00    +0.014 A 
ATOM     26  C   UNL     1      11.685  14.630  24.084  0.00  0.00    +0.039 A 
ATOM     27  C   UNL     1      10.582  13.159  25.651  0.00  0.00    +0.039 A 
ATOM     28  C   UNL     1      11.105  14.413  25.334  0.00  0.00    +0.123 A 
ENDBRANCH  19  21
ENDBRANCH  15  17
ENDBRANCH  13  15
BRANCH  14  16
ATOM     16  C   UNL     1      14.873   9.216  21.576  0.00  0.00    +0.140 C 
BRANCH  16   7
ATOM      6  O   UNL     1      14.923  11.965  22.454  0.00  0.00    -0.253 OA
ATOM      7  N   UNL     1      14.831   9.692  22.928  0.00  0.00    -0.297 N 
ATOM      9  N   UNL     1      14.806  11.228  24.652  0.00  0.00    -0.297 N 
ATOM     18  C   UNL     1      14.859  11.047  23.272  0.00  0.00    +0.300 C 
ATOM     31  H   UNL     1      14.763   9.007  23.674  0.00  0.00    +0.150 HD
ATOM     32  H   UNL     1      14.829  10.406  25.247  0.00  0.00    +0.150 HD
BRANCH   9  20
ATOM     20  C   UNL     1      14.820  12.532  25.271  0.00  0.00    +0.068 C 
ATOM     22  C   UNL     1      16.254  13.006  25.473  0.00  0.00    +0.027 C 
ATOM     23  C   UNL     1      14.057  12.507  26.589  0.00  0.00    +0.027 C 
ENDBRANCH   9  20
ENDBRANCH  16   7
ENDBRANCH  14  16
TORSDOF 8
ENDMDL
MODEL 10
REMARK VINA RESULT:      -6.0      2.882      4.091
REMARK  Name = 25390136
REMARK  10 active torsions:
REMARK  status: ('A' for Active; 'I' for Inactive)
REMARK    1  A    between atoms: O_3  and  C_11
REMARK    2  A    between atoms: O_4  and  C_12
REMARK    3  A    between atoms: N_7  and  C_16
REMARK    4  A    between atoms: N_9  and  C_20
REMARK    5  A    between atoms: C_13  and  C_15
REMARK    6  A    between atoms: C_14  and  C_16
REMARK    7  A    between atoms: C_15  and  C_17
REMARK    8  A    between atoms: C_19  and  C_21
REMARK    9  A    between atoms: C_20  and  C_22
REMARK   10  A    between atoms: C_20  and  C_23
REMARK                            x       y       z     vdW  Elec       q    Type
REMARK                         _______ _______ _______ _____ _____    ______ ____
ROOT
ATOM      2  O   UNL     1      13.016   7.492  21.900  0.00  0.00    -0.366 OA
ATOM     11  C   UNL     1      14.467   9.068  20.915  0.00  0.00    +0.175 C 
ATOM     12  C   UNL     1      13.630   9.790  21.952  0.00  0.00    +0.176 C 
ATOM     13  C   UNL     1      14.350   7.626  21.380  0.00  0.00    +0.159 C 
ATOM     14  C   UNL     1      12.484   8.809  22.173  0.00  0.00    +0.167 C 
ENDROOT
BRANCH  11   3
ATOM      3  O   UNL     1      15.809   9.506  20.876  0.00  0.00    -0.387 OA
ATOM     29  H   UNL     1      15.863  10.220  20.218  0.00  0.00    +0.210 HD
ENDBRANCH  11   3
BRANCH  12   4
ATOM      4  O   UNL     1      14.353   9.910  23.176  0.00  0.00    -0.387 OA
ATOM     30  H   UNL     1      15.293  10.019  22.950  0.00  0.00    +0.210 HD
ENDBRANCH  12   4
BRANCH  13  15
ATOM     15  C   UNL     1      14.571   6.616  20.270  0.00  0.00    +0.133 C 
BRANCH  15  17
ATOM      5  O   UNL     1      16.368   5.806  18.836  0.00  0.00    -0.338 OA
ATOM      8  N   UNL     1      17.053   6.546  20.835  0.00  0.00    -0.191 NA
ATOM     10  N   UNL     1      17.759   5.644  18.855  0.00  0.00    -0.056 NA
ATOM     17  C   UNL     1      16.035   6.343  20.039  0.00  0.00    +0.230 A 
ATOM     19  C   UNL     1      18.090   6.103  20.066  0.00  0.00    +0.202 A 
BRANCH  19  21
ATOM      1  F   UNL     1      23.343   6.218  21.895  0.00  0.00    -0.205 F 
ATOM     21  C   UNL     1      19.444   6.132  20.537  0.00  0.00    +0.023 A 
ATOM     24  C   UNL     1      19.952   7.289  21.128  0.00  0.00    +0.014 A 
ATOM     25  C   UNL     1      20.253   5.004  20.405  0.00  0.00    +0.014 A 
ATOM     26  C   UNL     1      21.268   7.318  21.587  0.00  0.00    +0.039 A 
ATOM     27  C   UNL     1      21.571   5.032  20.864  0.00  0.00    +0.039 A 
ATOM     28  C   UNL     1      22.078   6.190  21.455  0.00  0.00    +0.123 A 
ENDBRANCH  19  21
ENDBRANCH  15  17
ENDBRANCH  13  15
BRANCH  14  16
ATOM     16  C   UNL     1      11.311   9.041  21.232  0.00  0.00    +0.140 C 
BRANCH  16   7
ATOM      6  O   UNL     1      11.462   7.718  18.671  0.00  0.00    -0.253 OA
ATOM      7  N   UNL     1      11.747   9.610  19.990  0.00  0.00    -0.297 N 
ATOM      9  N   UNL     1      12.252   9.691  17.738  0.00  0.00    -0.297 N 
ATOM     18  C   UNL     1      11.791   8.898  18.787  0.00  0.00    +0.300 C 
ATOM     31  H   UNL     1      12.026  10.586  19.982  0.00  0.00    +0.150 HD
ATOM     32  H   UNL     1      12.569  10.632  17.948  0.00  0.00    +0.150 HD
BRANCH   9  20
ATOM     20  C   UNL     1      12.392   9.198  16.388  0.00  0.00    +0.068 C 
ATOM     22  C   UNL     1      13.449  10.001  15.640  0.00  0.00    +0.027 C 
ATOM     23  C   UNL     1      11.053   9.237  15.663  0.00  0.00    +0.027 C 
ENDBRANCH   9  20
ENDBRANCH  16   7
ENDBRANCH  14  16
TORSDOF 8
ENDMDL
