MODEL 1
REMARK VINA RESULT:      -7.4      0.000      0.000
REMARK  Name = 11912116
REMARK  6 active torsions:
REMARK  status: ('A' for Active; 'I' for Inactive)
REMARK    1  A    between atoms: O_4  and  C_34
REMARK    2  A    between atoms: O_4  and  C_35
REMARK    3  A    between atoms: N_7  and  C_17
REMARK    4  A    between atoms: N_8  and  C_24
REMARK    5  A    between atoms: C_27  and  C_28
REMARK    6  A    between atoms: C_28  and  C_29
REMARK                            x       y       z     vdW  Elec       q    Type
REMARK                         _______ _______ _______ _____ _____    ______ ____
ROOT
ATOM      1  O   UNL     1       8.399   9.498   5.815  0.00  0.00    -0.253 OA
ATOM      2  O   UNL     1      12.608   7.453   3.525  0.00  0.00    -0.266 OA
ATOM      5  N   UNL     1       8.907   7.499   6.873  0.00  0.00    -0.285 N 
ATOM      6  N   UNL     1      11.548   6.548   5.400  0.00  0.00    -0.310 N 
ATOM      7  N   UNL     1       9.467   9.585   7.841  0.00  0.00    -0.296 N 
ATOM      9  C   UNL     1       9.182   5.572   5.316  0.00  0.00    +0.027 C 
ATOM     10  C   UNL     1      10.415   5.610   7.445  0.00  0.00    +0.054 C 
ATOM     11  C   UNL     1       9.653   4.705   6.478  0.00  0.00    +0.018 C 
ATOM     12  C   UNL     1       8.269   6.704   5.820  0.00  0.00    +0.114 C 
ATOM     13  C   UNL     1       9.465   6.701   7.979  0.00  0.00    +0.119 C 
ATOM     14  C   UNL     1      10.412   6.111   4.576  0.00  0.00    +0.130 C 
ATOM     15  C   UNL     1      11.609   6.253   6.766  0.00  0.00    +0.027 A 
ATOM     16  C   UNL     1       8.889   8.900   6.779  0.00  0.00    +0.302 C 
ATOM     18  C   UNL     1      12.706   6.565   7.477  0.00  0.00    +0.024 A 
ATOM     19  C   UNL     1      12.609   7.188   4.728  0.00  0.00    +0.273 A 
ATOM     24  C   UNL     1      13.802   7.541   5.560  0.00  0.00    +0.099 A 
ATOM     25  C   UNL     1      13.822   7.223   6.858  0.00  0.00    +0.030 A 
ATOM     36  H   UNL     1       9.954   9.091   8.574  0.00  0.00    +0.151 HD
ENDROOT
BRANCH   7  17
ATOM     17  C   UNL     1       9.532  11.028   7.880  0.00  0.00    +0.074 C 
ATOM     20  C   UNL     1       9.041  11.565   9.229  0.00  0.00    +0.022 C 
ATOM     21  C   UNL     1      10.947  11.526   7.566  0.00  0.00    +0.022 C 
ATOM     22  C   UNL     1      10.029  11.287  10.362  0.00  0.00    +0.002 C 
ATOM     23  C   UNL     1      11.930  11.248   8.702  0.00  0.00    +0.002 C 
ATOM     26  C   UNL     1      11.426  11.801  10.031  0.00  0.00    +0.000 C 
ENDBRANCH   7  17
BRANCH  24   8
ATOM      3  O   UNL     1      14.880  10.099   6.262  0.00  0.00    -0.275 OA
ATOM      8  N   UNL     1      14.845   8.174   4.950  0.00  0.00    -0.281 N 
ATOM     27  C   UNL     1      15.323   9.420   5.337  0.00  0.00    +0.222 C 
ATOM     37  H   UNL     1      15.121   7.813   4.040  0.00  0.00    +0.155 HD
BRANCH  27  28
ATOM     28  C   UNL     1      16.486   9.858   4.467  0.00  0.00    +0.131 C 
BRANCH  28  29
ATOM     29  C   UNL     1      17.765   9.118   4.761  0.00  0.00    -0.038 A 
ATOM     30  C   UNL     1      18.292   9.121   6.052  0.00  0.00    +0.007 A 
ATOM     31  C   UNL     1      18.420   8.428   3.742  0.00  0.00    +0.007 A 
ATOM     32  C   UNL     1      19.475   8.434   6.324  0.00  0.00    +0.046 A 
ATOM     33  C   UNL     1      19.604   7.742   4.013  0.00  0.00    +0.046 A 
ATOM     34  C   UNL     1      20.132   7.745   5.304  0.00  0.00    +0.120 A 
BRANCH  34   4
ATOM      4  O   UNL     1      21.286   7.075   5.569  0.00  0.00    -0.495 OA
ATOM     35  C   UNL     1      22.026   6.588   4.451  0.00  0.00    +0.277 C 
ENDBRANCH  34   4
ENDBRANCH  28  29
ENDBRANCH  27  28
ENDBRANCH  24   8
TORSDOF 5
ENDMDL
MODEL 2
REMARK VINA RESULT:      -7.1     25.382     29.322
REMARK  Name = 11912116
REMARK  6 active torsions:
REMARK  status: ('A' for Active; 'I' for Inactive)
REMARK    1  A    between atoms: O_4  and  C_34
REMARK    2  A    between atoms: O_4  and  C_35
REMARK    3  A    between atoms: N_7  and  C_17
REMARK    4  A    between atoms: N_8  and  C_24
REMARK    5  A    between atoms: C_27  and  C_28
REMARK    6  A    between atoms: C_28  and  C_29
REMARK                            x       y       z     vdW  Elec       q    Type
REMARK                         _______ _______ _______ _____ _____    ______ ____
ROOT
ATOM      1  O   UNL     1      -9.043 -14.033  17.215  0.00  0.00    -0.253 OA
ATOM      2  O   UNL     1      -4.082 -13.056  15.958  0.00  0.00    -0.266 OA
ATOM      5  N   UNL     1      -8.418 -12.035  18.210  0.00  0.00    -0.285 N 
ATOM      6  N   UNL     1      -5.448 -11.611  17.187  0.00  0.00    -0.310 N 
ATOM      7  N   UNL     1      -9.738 -12.074  16.247  0.00  0.00    -0.296 N 
ATOM      9  C   UNL     1      -6.308 -12.179  19.531  0.00  0.00    +0.027 C 
ATOM     10  C   UNL     1      -6.947 -10.050  18.475  0.00  0.00    +0.054 C 
ATOM     11  C   UNL     1      -6.335 -10.668  19.731  0.00  0.00    +0.018 C 
ATOM     12  C   UNL     1      -7.733 -12.721  19.309  0.00  0.00    +0.114 C 
ATOM     13  C   UNL     1      -8.391 -10.564  18.305  0.00  0.00    +0.119 C 
ATOM     14  C   UNL     1      -5.380 -12.502  18.354  0.00  0.00    +0.130 C 
ATOM     15  C   UNL     1      -6.130 -10.392  17.244  0.00  0.00    +0.027 A 
ATOM     16  C   UNL     1      -9.067 -12.797  17.225  0.00  0.00    +0.302 C 
ATOM     18  C   UNL     1      -6.087  -9.543  16.203  0.00  0.00    +0.024 A 
ATOM     19  C   UNL     1      -4.712 -12.001  16.049  0.00  0.00    +0.273 A 
ATOM     24  C   UNL     1      -4.709 -11.039  14.901  0.00  0.00    +0.099 A 
ATOM     25  C   UNL     1      -5.362  -9.878  15.009  0.00  0.00    +0.030 A 
ATOM     36  H   UNL     1      -9.669 -11.069  16.204  0.00  0.00    +0.151 HD
ENDROOT
BRANCH   7  17
ATOM     17  C   UNL     1     -10.444 -12.721  15.163  0.00  0.00    +0.074 C 
ATOM     20  C   UNL     1     -11.739 -11.974  14.826  0.00  0.00    +0.022 C 
ATOM     21  C   UNL     1      -9.547 -12.863  13.928  0.00  0.00    +0.022 C 
ATOM     22  C   UNL     1     -11.478 -10.638  14.130  0.00  0.00    +0.002 C 
ATOM     23  C   UNL     1      -9.291 -11.526  13.234  0.00  0.00    +0.002 C 
ATOM     26  C   UNL     1     -10.594 -10.806  12.899  0.00  0.00    +0.000 C 
ENDBRANCH   7  17
BRANCH  24   8
ATOM      3  O   UNL     1      -2.020 -10.297  14.263  0.00  0.00    -0.275 OA
ATOM      8  N   UNL     1      -4.021 -11.386  13.777  0.00  0.00    -0.281 N 
ATOM     27  C   UNL     1      -2.712 -10.992  13.522  0.00  0.00    +0.222 C 
ATOM     37  H   UNL     1      -4.572 -11.753  13.005  0.00  0.00    +0.155 HD
BRANCH  27  28
ATOM     28  C   UNL     1      -2.222 -11.534  12.193  0.00  0.00    +0.131 C 
BRANCH  28  29
ATOM     29  C   UNL     1      -3.001 -11.015  11.013  0.00  0.00    -0.038 A 
ATOM     30  C   UNL     1      -3.737 -11.896  10.220  0.00  0.00    +0.007 A 
ATOM     31  C   UNL     1      -2.987  -9.653  10.713  0.00  0.00    +0.007 A 
ATOM     32  C   UNL     1      -4.459 -11.414   9.128  0.00  0.00    +0.046 A 
ATOM     33  C   UNL     1      -3.707  -9.171   9.621  0.00  0.00    +0.046 A 
ATOM     34  C   UNL     1      -4.444 -10.052   8.827  0.00  0.00    +0.120 A 
BRANCH  34   4
ATOM      4  O   UNL     1      -5.148  -9.581   7.762  0.00  0.00    -0.495 OA
ATOM     35  C   UNL     1      -5.625 -10.543   6.823  0.00  0.00    +0.277 C 
ENDBRANCH  34   4
ENDBRANCH  28  29
ENDBRANCH  27  28
ENDBRANCH  24   8
TORSDOF 5
ENDMDL
MODEL 3
REMARK VINA RESULT:      -7.1     25.761     29.990
REMARK  Name = 11912116
REMARK  6 active torsions:
REMARK  status: ('A' for Active; 'I' for Inactive)
REMARK    1  A    between atoms: O_4  and  C_34
REMARK    2  A    between atoms: O_4  and  C_35
REMARK    3  A    between atoms: N_7  and  C_17
REMARK    4  A    between atoms: N_8  and  C_24
REMARK    5  A    between atoms: C_27  and  C_28
REMARK    6  A    between atoms: C_28  and  C_29
REMARK                            x       y       z     vdW  Elec       q    Type
REMARK                         _______ _______ _______ _____ _____    ______ ____
ROOT
ATOM      1  O   UNL     1      -5.020 -14.268  11.935  0.00  0.00    -0.253 OA
ATOM      2  O   UNL     1      -6.547  -9.684  13.883  0.00  0.00    -0.266 OA
ATOM      5  N   UNL     1      -3.132 -12.990  12.357  0.00  0.00    -0.285 N 
ATOM      6  N   UNL     1      -4.319 -10.348  13.646  0.00  0.00    -0.310 N 
ATOM      7  N   UNL     1      -3.796 -14.730  13.818  0.00  0.00    -0.296 N 
ATOM      9  C   UNL     1      -3.215 -10.705  11.363  0.00  0.00    +0.027 C 
ATOM     10  C   UNL     1      -1.924 -11.098  13.421  0.00  0.00    +0.054 C 
ATOM     11  C   UNL     1      -1.925 -10.346  12.091  0.00  0.00    +0.018 C 
ATOM     12  C   UNL     1      -3.295 -12.223  11.119  0.00  0.00    +0.114 C 
ATOM     13  C   UNL     1      -1.948 -12.615  13.149  0.00  0.00    +0.119 C 
ATOM     14  C   UNL     1      -4.402 -10.192  12.187  0.00  0.00    +0.130 C 
ATOM     15  C   UNL     1      -3.120 -10.707  14.270  0.00  0.00    +0.027 A 
ATOM     16  C   UNL     1      -4.046 -14.014  12.653  0.00  0.00    +0.302 C 
ATOM     18  C   UNL     1      -3.036 -10.737  15.610  0.00  0.00    +0.024 A 
ATOM     19  C   UNL     1      -5.474 -10.022  14.386  0.00  0.00    +0.273 A 
ATOM     24  C   UNL     1      -5.347 -10.091  15.876  0.00  0.00    +0.099 A 
ATOM     25  C   UNL     1      -4.175 -10.422  16.427  0.00  0.00    +0.030 A 
ATOM     36  H   UNL     1      -3.060 -14.453  14.450  0.00  0.00    +0.151 HD
ENDROOT
BRANCH   7  17
ATOM     17  C   UNL     1      -4.654 -15.807  14.257  0.00  0.00    +0.074 C 
ATOM     20  C   UNL     1      -3.831 -17.013  14.722  0.00  0.00    +0.022 C 
ATOM     21  C   UNL     1      -5.615 -15.334  15.354  0.00  0.00    +0.022 C 
ATOM     22  C   UNL     1      -3.124 -16.759  16.054  0.00  0.00    +0.002 C 
ATOM     23  C   UNL     1      -4.905 -15.085  16.685  0.00  0.00    +0.002 C 
ATOM     26  C   UNL     1      -4.102 -16.301  17.132  0.00  0.00    +0.000 C 
ENDBRANCH   7  17
BRANCH  24   8
ATOM      3  O   UNL     1      -7.289 -11.957  16.845  0.00  0.00    -0.275 OA
ATOM      8  N   UNL     1      -6.447  -9.796  16.627  0.00  0.00    -0.281 N 
ATOM     27  C   UNL     1      -7.357 -10.749  17.068  0.00  0.00    +0.222 C 
ATOM     37  H   UNL     1      -6.719  -8.817  16.663  0.00  0.00    +0.155 HD
BRANCH  27  28
ATOM     28  C   UNL     1      -8.471 -10.114  17.878  0.00  0.00    +0.131 C 
BRANCH  28  29
ATOM     29  C   UNL     1      -9.437  -9.315  17.043  0.00  0.00    -0.038 A 
ATOM     30  C   UNL     1     -10.031  -9.892  15.920  0.00  0.00    +0.007 A 
ATOM     31  C   UNL     1      -9.738  -8.000  17.392  0.00  0.00    +0.007 A 
ATOM     32  C   UNL     1     -10.926  -9.152  15.147  0.00  0.00    +0.046 A 
ATOM     33  C   UNL     1     -10.632  -7.260  16.619  0.00  0.00    +0.046 A 
ATOM     34  C   UNL     1     -11.226  -7.835  15.496  0.00  0.00    +0.120 A 
BRANCH  34   4
ATOM      4  O   UNL     1     -12.099  -7.113  14.743  0.00  0.00    -0.495 OA
ATOM     35  C   UNL     1     -11.856  -5.712  14.630  0.00  0.00    +0.277 C 
ENDBRANCH  34   4
ENDBRANCH  28  29
ENDBRANCH  27  28
ENDBRANCH  24   8
TORSDOF 5
ENDMDL
MODEL 4
REMARK VINA RESULT:      -6.9     26.044     29.190
REMARK  Name = 11912116
REMARK  6 active torsions:
REMARK  status: ('A' for Active; 'I' for Inactive)
REMARK    1  A    between atoms: O_4  and  C_34
REMARK    2  A    between atoms: O_4  and  C_35
REMARK    3  A    between atoms: N_7  and  C_17
REMARK    4  A    between atoms: N_8  and  C_24
REMARK    5  A    between atoms: C_27  and  C_28
REMARK    6  A    between atoms: C_28  and  C_29
REMARK                            x       y       z     vdW  Elec       q    Type
REMARK                         _______ _______ _______ _____ _____    ______ ____
ROOT
ATOM      1  O   UNL     1      -7.214 -13.593  10.418  0.00  0.00    -0.253 OA
ATOM      2  O   UNL     1      -5.882  -9.748  13.671  0.00  0.00    -0.266 OA
ATOM      5  N   UNL     1      -5.774 -12.160   9.302  0.00  0.00    -0.285 N 
ATOM      6  N   UNL     1      -5.019 -10.021  11.516  0.00  0.00    -0.310 N 
ATOM      7  N   UNL     1      -5.025 -14.228  10.174  0.00  0.00    -0.296 N 
ATOM      9  C   UNL     1      -6.450  -9.762   9.409  0.00  0.00    +0.027 C 
ATOM     10  C   UNL     1      -4.070 -10.355   9.206  0.00  0.00    +0.054 C 
ATOM     11  C   UNL     1      -5.139  -9.367   8.740  0.00  0.00    +0.018 C 
ATOM     12  C   UNL     1      -6.844 -11.199   9.020  0.00  0.00    +0.114 C 
ATOM     13  C   UNL     1      -4.460 -11.778   8.757  0.00  0.00    +0.119 C 
ATOM     14  C   UNL     1      -6.296  -9.598  10.926  0.00  0.00    +0.130 C 
ATOM     15  C   UNL     1      -3.911 -10.316  10.715  0.00  0.00    +0.027 A 
ATOM     16  C   UNL     1      -6.082 -13.345   9.991  0.00  0.00    +0.302 C 
ATOM     18  C   UNL     1      -2.723 -10.593  11.278  0.00  0.00    +0.024 A 
ATOM     19  C   UNL     1      -4.940 -10.017  12.924  0.00  0.00    +0.273 A 
ATOM     24  C   UNL     1      -3.605 -10.355  13.512  0.00  0.00    +0.099 A 
ATOM     25  C   UNL     1      -2.571 -10.612  12.705  0.00  0.00    +0.030 A 
ATOM     36  H   UNL     1      -4.085 -13.975   9.913  0.00  0.00    +0.151 HD
ENDROOT
BRANCH   7  17
ATOM     17  C   UNL     1      -5.187 -15.484  10.872  0.00  0.00    +0.074 C 
ATOM     20  C   UNL     1      -4.352 -16.590  10.218  0.00  0.00    +0.022 C 
ATOM     21  C   UNL     1      -4.845 -15.336  12.359  0.00  0.00    +0.022 C 
ATOM     22  C   UNL     1      -2.854 -16.412  10.462  0.00  0.00    +0.002 C 
ATOM     23  C   UNL     1      -3.345 -15.162  12.599  0.00  0.00    +0.002 C 
ATOM     26  C   UNL     1      -2.537 -16.279  11.948  0.00  0.00    +0.000 C 
ENDBRANCH   7  17
BRANCH  24   8
ATOM      3  O   UNL     1      -4.069 -12.605  15.220  0.00  0.00    -0.275 OA
ATOM      8  N   UNL     1      -3.491 -10.376  14.871  0.00  0.00    -0.281 N 
ATOM     27  C   UNL     1      -3.731 -11.503  15.648  0.00  0.00    +0.222 C 
ATOM     37  H   UNL     1      -3.450  -9.471  15.334  0.00  0.00    +0.155 HD
BRANCH  27  28
ATOM     28  C   UNL     1      -3.522 -11.211  17.122  0.00  0.00    +0.131 C 
BRANCH  28  29
ATOM     29  C   UNL     1      -4.808 -11.115  17.900  0.00  0.00    -0.038 A 
ATOM     30  C   UNL     1      -4.938 -11.782  19.118  0.00  0.00    +0.007 A 
ATOM     31  C   UNL     1      -5.869 -10.359  17.403  0.00  0.00    +0.007 A 
ATOM     32  C   UNL     1      -6.129 -11.692  19.839  0.00  0.00    +0.046 A 
ATOM     33  C   UNL     1      -7.059 -10.269  18.123  0.00  0.00    +0.046 A 
ATOM     34  C   UNL     1      -7.191 -10.936  19.341  0.00  0.00    +0.120 A 
BRANCH  34   4
ATOM      4  O   UNL     1      -8.352 -10.847  20.044  0.00  0.00    -0.495 OA
ATOM     35  C   UNL     1      -9.562 -10.764  19.293  0.00  0.00    +0.277 C 
ENDBRANCH  34   4
ENDBRANCH  28  29
ENDBRANCH  27  28
ENDBRANCH  24   8
TORSDOF 5
ENDMDL
MODEL 5
REMARK VINA RESULT:      -6.7     28.661     31.922
REMARK  Name = 11912116
REMARK  6 active torsions:
REMARK  status: ('A' for Active; 'I' for Inactive)
REMARK    1  A    between atoms: O_4  and  C_34
REMARK    2  A    between atoms: O_4  and  C_35
REMARK    3  A    between atoms: N_7  and  C_17
REMARK    4  A    between atoms: N_8  and  C_24
REMARK    5  A    between atoms: C_27  and  C_28
REMARK    6  A    between atoms: C_28  and  C_29
REMARK                            x       y       z     vdW  Elec       q    Type
REMARK                         _______ _______ _______ _____ _____    ______ ____
ROOT
ATOM      1  O   UNL     1      -5.994 -12.811  14.049  0.00  0.00    -0.253 OA
ATOM      2  O   UNL     1      -7.613  -8.919  17.111  0.00  0.00    -0.266 OA
ATOM      5  N   UNL     1      -5.043 -13.088  16.145  0.00  0.00    -0.285 N 
ATOM      6  N   UNL     1      -6.283 -10.703  17.826  0.00  0.00    -0.310 N 
ATOM      7  N   UNL     1      -6.904 -14.377  15.455  0.00  0.00    -0.296 N 
ATOM      9  C   UNL     1      -3.883 -11.056  17.006  0.00  0.00    +0.027 C 
ATOM     10  C   UNL     1      -4.884 -12.655  18.586  0.00  0.00    +0.054 C 
ATOM     11  C   UNL     1      -3.678 -11.747  18.349  0.00  0.00    +0.018 C 
ATOM     12  C   UNL     1      -4.000 -12.095  15.875  0.00  0.00    +0.114 C 
ATOM     13  C   UNL     1      -4.947 -13.720  17.473  0.00  0.00    +0.119 C 
ATOM     14  C   UNL     1      -5.126 -10.163  17.098  0.00  0.00    +0.130 C 
ATOM     15  C   UNL     1      -6.173 -11.856  18.609  0.00  0.00    +0.027 A 
ATOM     16  C   UNL     1      -5.979 -13.388  15.142  0.00  0.00    +0.302 C 
ATOM     18  C   UNL     1      -7.213 -12.270  19.354  0.00  0.00    +0.024 A 
ATOM     19  C   UNL     1      -7.474  -9.949  17.772  0.00  0.00    +0.273 A 
ATOM     24  C   UNL     1      -8.616 -10.457  18.596  0.00  0.00    +0.099 A 
ATOM     25  C   UNL     1      -8.457 -11.554  19.344  0.00  0.00    +0.030 A 
ATOM     36  H   UNL     1      -6.950 -14.772  16.382  0.00  0.00    +0.151 HD
ENDROOT
BRANCH   7  17
ATOM     17  C   UNL     1      -7.933 -14.787  14.527  0.00  0.00    +0.074 C 
ATOM     20  C   UNL     1      -8.192 -16.295  14.621  0.00  0.00    +0.022 C 
ATOM     21  C   UNL     1      -9.223 -13.987  14.744  0.00  0.00    +0.022 C 
ATOM     22  C   UNL     1      -8.915 -16.683  15.911  0.00  0.00    +0.002 C 
ATOM     23  C   UNL     1      -9.944 -14.381  16.034  0.00  0.00    +0.002 C 
ATOM     26  C   UNL     1     -10.200 -15.882  16.100  0.00  0.00    +0.000 C 
ENDBRANCH   7  17
BRANCH  24   8
ATOM      3  O   UNL     1     -10.731 -10.798  16.699  0.00  0.00    -0.275 OA
ATOM      8  N   UNL     1      -9.789  -9.763  18.561  0.00  0.00    -0.281 N 
ATOM     27  C   UNL     1     -10.781  -9.974  17.610  0.00  0.00    +0.222 C 
ATOM     37  H   UNL     1      -9.826  -8.911  19.115  0.00  0.00    +0.155 HD
BRANCH  27  28
ATOM     28  C   UNL     1     -11.963  -9.050  17.833  0.00  0.00    +0.131 C 
BRANCH  28  29
ATOM     29  C   UNL     1     -12.051  -7.937  16.822  0.00  0.00    -0.038 A 
ATOM     30  C   UNL     1     -10.935  -7.141  16.562  0.00  0.00    +0.007 A 
ATOM     31  C   UNL     1     -13.247  -7.704  16.145  0.00  0.00    +0.007 A 
ATOM     32  C   UNL     1     -11.017  -6.111  15.625  0.00  0.00    +0.046 A 
ATOM     33  C   UNL     1     -13.329  -6.674  15.209  0.00  0.00    +0.046 A 
ATOM     34  C   UNL     1     -12.214  -5.877  14.948  0.00  0.00    +0.120 A 
BRANCH  34   4
ATOM      4  O   UNL     1     -12.294  -4.873  14.033  0.00  0.00    -0.495 OA
ATOM     35  C   UNL     1     -13.427  -4.870  13.168  0.00  0.00    +0.277 C 
ENDBRANCH  34   4
ENDBRANCH  28  29
ENDBRANCH  27  28
ENDBRANCH  24   8
TORSDOF 5
ENDMDL
MODEL 6
REMARK VINA RESULT:      -6.6     26.054     29.525
REMARK  Name = 11912116
REMARK  6 active torsions:
REMARK  status: ('A' for Active; 'I' for Inactive)
REMARK    1  A    between atoms: O_4  and  C_34
REMARK    2  A    between atoms: O_4  and  C_35
REMARK    3  A    between atoms: N_7  and  C_17
REMARK    4  A    between atoms: N_8  and  C_24
REMARK    5  A    between atoms: C_27  and  C_28
REMARK    6  A    between atoms: C_28  and  C_29
REMARK                            x       y       z     vdW  Elec       q    Type
REMARK                         _______ _______ _______ _____ _____    ______ ____
ROOT
ATOM      1  O   UNL     1     -10.547 -12.058  15.590  0.00  0.00    -0.253 OA
ATOM      2  O   UNL     1      -5.408 -12.873  15.343  0.00  0.00    -0.266 OA
ATOM      5  N   UNL     1      -9.673 -11.852  17.727  0.00  0.00    -0.285 N 
ATOM      6  N   UNL     1      -6.560 -12.251  17.279  0.00  0.00    -0.310 N 
ATOM      7  N   UNL     1     -10.235  -9.950  16.436  0.00  0.00    -0.296 N 
ATOM      9  C   UNL     1      -8.259 -13.781  18.431  0.00  0.00    +0.027 C 
ATOM     10  C   UNL     1      -7.814 -11.540  19.345  0.00  0.00    +0.054 C 
ATOM     11  C   UNL     1      -7.866 -13.027  19.695  0.00  0.00    +0.018 C 
ATOM     12  C   UNL     1      -9.631 -13.304  17.920  0.00  0.00    +0.114 C 
ATOM     13  C   UNL     1      -9.211 -11.074  18.890  0.00  0.00    +0.119 C 
ATOM     14  C   UNL     1      -7.156 -13.590  17.383  0.00  0.00    +0.130 C 
ATOM     15  C   UNL     1      -6.799 -11.273  18.249  0.00  0.00    +0.027 A 
ATOM     16  C   UNL     1     -10.179 -11.336  16.522  0.00  0.00    +0.302 C 
ATOM     18  C   UNL     1      -6.158 -10.093  18.194  0.00  0.00    +0.024 A 
ATOM     19  C   UNL     1      -5.663 -12.037  16.212  0.00  0.00    +0.273 A 
ATOM     24  C   UNL     1      -4.988 -10.702  16.172  0.00  0.00    +0.099 A 
ATOM     25  C   UNL     1      -5.235  -9.806  17.133  0.00  0.00    +0.030 A 
ATOM     36  H   UNL     1      -9.840  -9.368  17.158  0.00  0.00    +0.151 HD
ENDROOT
BRANCH   7  17
ATOM     17  C   UNL     1     -10.723  -9.274  15.255  0.00  0.00    +0.074 C 
ATOM     20  C   UNL     1     -12.245  -9.097  15.311  0.00  0.00    +0.022 C 
ATOM     21  C   UNL     1     -10.015  -7.930  15.056  0.00  0.00    +0.022 C 
ATOM     22  C   UNL     1     -12.672  -8.048  16.338  0.00  0.00    +0.002 C 
ATOM     23  C   UNL     1     -10.447  -6.883  16.083  0.00  0.00    +0.002 C 
ATOM     26  C   UNL     1     -11.963  -6.717  16.113  0.00  0.00    +0.000 C 
ENDBRANCH   7  17
BRANCH  24   8
ATOM      3  O   UNL     1      -2.164 -11.172  16.182  0.00  0.00    -0.275 OA
ATOM      8  N   UNL     1      -4.123 -10.452  15.148  0.00  0.00    -0.281 N 
ATOM     27  C   UNL     1      -2.757 -10.701  15.213  0.00  0.00    +0.222 C 
ATOM     37  H   UNL     1      -4.468  -9.851  14.403  0.00  0.00    +0.155 HD
BRANCH  27  28
ATOM     28  C   UNL     1      -2.064 -10.318  13.919  0.00  0.00    +0.131 C 
BRANCH  28  29
ATOM     29  C   UNL     1      -2.597 -11.053  12.716  0.00  0.00    -0.038 A 
ATOM     30  C   UNL     1      -2.619 -12.448  12.704  0.00  0.00    +0.007 A 
ATOM     31  C   UNL     1      -3.068 -10.338  11.616  0.00  0.00    +0.007 A 
ATOM     32  C   UNL     1      -3.113 -13.127  11.590  0.00  0.00    +0.046 A 
ATOM     33  C   UNL     1      -3.561 -11.017  10.502  0.00  0.00    +0.046 A 
ATOM     34  C   UNL     1      -3.583 -12.412  10.489  0.00  0.00    +0.120 A 
BRANCH  34   4
ATOM      4  O   UNL     1      -4.066 -13.074   9.402  0.00  0.00    -0.495 OA
ATOM     35  C   UNL     1      -4.459 -12.285   8.282  0.00  0.00    +0.277 C 
ENDBRANCH  34   4
ENDBRANCH  28  29
ENDBRANCH  27  28
ENDBRANCH  24   8
TORSDOF 5
ENDMDL
MODEL 7
REMARK VINA RESULT:      -6.6      5.209      9.969
REMARK  Name = 11912116
REMARK  6 active torsions:
REMARK  status: ('A' for Active; 'I' for Inactive)
REMARK    1  A    between atoms: O_4  and  C_34
REMARK    2  A    between atoms: O_4  and  C_35
REMARK    3  A    between atoms: N_7  and  C_17
REMARK    4  A    between atoms: N_8  and  C_24
REMARK    5  A    between atoms: C_27  and  C_28
REMARK    6  A    between atoms: C_28  and  C_29
REMARK                            x       y       z     vdW  Elec       q    Type
REMARK                         _______ _______ _______ _____ _____    ______ ____
ROOT
ATOM      1  O   UNL     1      12.881   6.971  -2.104  0.00  0.00    -0.253 OA
ATOM      2  O   UNL     1      12.073   7.284   3.033  0.00  0.00    -0.266 OA
ATOM      5  N   UNL     1      13.791   5.086  -1.106  0.00  0.00    -0.285 N 
ATOM      6  N   UNL     1      13.049   5.456   1.954  0.00  0.00    -0.310 N 
ATOM      7  N   UNL     1      11.710   5.004  -2.230  0.00  0.00    -0.296 N 
ATOM      9  C   UNL     1      15.327   5.589   0.792  0.00  0.00    +0.027 C 
ATOM     10  C   UNL     1      14.063   3.478   0.767  0.00  0.00    +0.054 C 
ATOM     11  C   UNL     1      15.415   4.101   1.109  0.00  0.00    +0.018 C 
ATOM     12  C   UNL     1      14.999   5.806  -0.697  0.00  0.00    +0.114 C 
ATOM     13  C   UNL     1      13.783   3.659  -0.738  0.00  0.00    +0.119 C 
ATOM     14  C   UNL     1      14.278   6.225   1.711  0.00  0.00    +0.130 C 
ATOM     15  C   UNL     1      12.949   4.112   1.579  0.00  0.00    +0.027 A 
ATOM     16  C   UNL     1      12.801   5.768  -1.834  0.00  0.00    +0.302 C 
ATOM     18  C   UNL     1      11.860   3.397   1.909  0.00  0.00    +0.024 A 
ATOM     19  C   UNL     1      12.023   6.109   2.667  0.00  0.00    +0.273 A 
ATOM     24  C   UNL     1      10.816   5.285   2.994  0.00  0.00    +0.099 A 
ATOM     25  C   UNL     1      10.774   3.999   2.630  0.00  0.00    +0.030 A 
ATOM     36  H   UNL     1      11.603   4.050  -1.921  0.00  0.00    +0.151 HD
ENDROOT
BRANCH   7  17
ATOM     17  C   UNL     1      10.609   5.569  -2.978  0.00  0.00    +0.074 C 
ATOM     20  C   UNL     1      10.970   5.724  -4.459  0.00  0.00    +0.022 C 
ATOM     21  C   UNL     1       9.336   4.734  -2.800  0.00  0.00    +0.022 C 
ATOM     22  C   UNL     1      11.041   4.380  -5.186  0.00  0.00    +0.002 C 
ATOM     23  C   UNL     1       9.410   3.393  -3.531  0.00  0.00    +0.002 C 
ATOM     26  C   UNL     1       9.760   3.573  -5.004  0.00  0.00    +0.000 C 
ENDBRANCH   7  17
BRANCH  24   8
ATOM      3  O   UNL     1      10.196   4.952   5.768  0.00  0.00    -0.275 OA
ATOM      8  N   UNL     1       9.796   5.884   3.671  0.00  0.00    -0.281 N 
ATOM     27  C   UNL     1       9.544   5.681   5.023  0.00  0.00    +0.222 C 
ATOM     37  H   UNL     1       9.067   6.311   3.104  0.00  0.00    +0.155 HD
BRANCH  27  28
ATOM     28  C   UNL     1       8.343   6.484   5.486  0.00  0.00    +0.131 C 
BRANCH  28  29
ATOM     29  C   UNL     1       8.714   7.746   6.220  0.00  0.00    -0.038 A 
ATOM     30  C   UNL     1       8.756   8.962   5.538  0.00  0.00    +0.007 A 
ATOM     31  C   UNL     1       9.016   7.697   7.580  0.00  0.00    +0.007 A 
ATOM     32  C   UNL     1       9.100  10.130   6.219  0.00  0.00    +0.046 A 
ATOM     33  C   UNL     1       9.360   8.865   8.260  0.00  0.00    +0.046 A 
ATOM     34  C   UNL     1       9.403  10.082   7.580  0.00  0.00    +0.120 A 
BRANCH  34   4
ATOM      4  O   UNL     1       9.737  11.222   8.244  0.00  0.00    -0.495 OA
ATOM     35  C   UNL     1      10.626  11.091   9.352  0.00  0.00    +0.277 C 
ENDBRANCH  34   4
ENDBRANCH  28  29
ENDBRANCH  27  28
ENDBRANCH  24   8
TORSDOF 5
ENDMDL
MODEL 8
REMARK VINA RESULT:      -6.5      2.385      3.753
REMARK  Name = 11912116
REMARK  6 active torsions:
REMARK  status: ('A' for Active; 'I' for Inactive)
REMARK    1  A    between atoms: O_4  and  C_34
REMARK    2  A    between atoms: O_4  and  C_35
REMARK    3  A    between atoms: N_7  and  C_17
REMARK    4  A    between atoms: N_8  and  C_24
REMARK    5  A    between atoms: C_27  and  C_28
REMARK    6  A    between atoms: C_28  and  C_29
REMARK                            x       y       z     vdW  Elec       q    Type
REMARK                         _______ _______ _______ _____ _____    ______ ____
ROOT
ATOM      1  O   UNL     1      10.006   5.836   3.549  0.00  0.00    -0.253 OA
ATOM      2  O   UNL     1      13.794   7.192   6.859  0.00  0.00    -0.266 OA
ATOM      5  N   UNL     1       9.032   6.445   5.563  0.00  0.00    -0.285 N 
ATOM      6  N   UNL     1      11.510   7.345   7.325  0.00  0.00    -0.310 N 
ATOM      7  N   UNL     1       9.044   7.911   3.705  0.00  0.00    -0.296 N 
ATOM      9  C   UNL     1      10.001   5.288   7.547  0.00  0.00    +0.027 C 
ATOM     10  C   UNL     1       9.042   7.540   7.793  0.00  0.00    +0.054 C 
ATOM     11  C   UNL     1       9.170   6.174   8.466  0.00  0.00    +0.018 C 
ATOM     12  C   UNL     1       9.323   5.145   6.172  0.00  0.00    +0.114 C 
ATOM     13  C   UNL     1       8.310   7.379   6.445  0.00  0.00    +0.119 C 
ATOM     14  C   UNL     1      11.410   5.883   7.434  0.00  0.00    +0.130 C 
ATOM     15  C   UNL     1      10.405   8.167   7.568  0.00  0.00    +0.027 A 
ATOM     16  C   UNL     1       9.399   6.673   4.226  0.00  0.00    +0.302 C 
ATOM     18  C   UNL     1      10.544   9.504   7.571  0.00  0.00    +0.024 A 
ATOM     19  C   UNL     1      12.789   7.875   7.062  0.00  0.00    +0.273 A 
ATOM     24  C   UNL     1      12.897   9.369   7.050  0.00  0.00    +0.099 A 
ATOM     25  C   UNL     1      11.817  10.113   7.306  0.00  0.00    +0.030 A 
ATOM     36  H   UNL     1       8.640   8.625   4.291  0.00  0.00    +0.151 HD
ENDROOT
BRANCH   7  17
ATOM     17  C   UNL     1       9.362   8.291   2.347  0.00  0.00    +0.074 C 
ATOM     20  C   UNL     1       8.166   8.971   1.671  0.00  0.00    +0.022 C 
ATOM     21  C   UNL     1      10.607   9.185   2.302  0.00  0.00    +0.022 C 
ATOM     22  C   UNL     1       7.905  10.374   2.220  0.00  0.00    +0.002 C 
ATOM     23  C   UNL     1      10.341  10.587   2.849  0.00  0.00    +0.002 C 
ATOM     26  C   UNL     1       9.154  11.247   2.154  0.00  0.00    +0.000 C 
ENDBRANCH   7  17
BRANCH  24   8
ATOM      3  O   UNL     1      13.886  10.147   4.479  0.00  0.00    -0.275 OA
ATOM      8  N   UNL     1      14.116   9.921   6.786  0.00  0.00    -0.281 N 
ATOM     27  C   UNL     1      14.541  10.278   5.512  0.00  0.00    +0.222 C 
ATOM     37  H   UNL     1      14.812   9.851   7.524  0.00  0.00    +0.155 HD
BRANCH  27  28
ATOM     28  C   UNL     1      15.939  10.864   5.541  0.00  0.00    +0.131 C 
BRANCH  28  29
ATOM     29  C   UNL     1      17.016   9.856   5.236  0.00  0.00    -0.038 A 
ATOM     30  C   UNL     1      18.013   9.594   6.177  0.00  0.00    +0.007 A 
ATOM     31  C   UNL     1      17.017   9.185   4.014  0.00  0.00    +0.007 A 
ATOM     32  C   UNL     1      19.009   8.660   5.894  0.00  0.00    +0.046 A 
ATOM     33  C   UNL     1      18.014   8.252   3.731  0.00  0.00    +0.046 A 
ATOM     34  C   UNL     1      19.011   7.989   4.671  0.00  0.00    +0.120 A 
BRANCH  34   4
ATOM      4  O   UNL     1      19.982   7.077   4.395  0.00  0.00    -0.495 OA
ATOM     35  C   UNL     1      21.185   7.158   5.158  0.00  0.00    +0.277 C 
ENDBRANCH  34   4
ENDBRANCH  28  29
ENDBRANCH  27  28
ENDBRANCH  24   8
TORSDOF 5
ENDMDL
MODEL 9
REMARK VINA RESULT:      -6.4     15.810     19.577
REMARK  Name = 11912116
REMARK  6 active torsions:
REMARK  status: ('A' for Active; 'I' for Inactive)
REMARK    1  A    between atoms: O_4  and  C_34
REMARK    2  A    between atoms: O_4  and  C_35
REMARK    3  A    between atoms: N_7  and  C_17
REMARK    4  A    between atoms: N_8  and  C_24
REMARK    5  A    between atoms: C_27  and  C_28
REMARK    6  A    between atoms: C_28  and  C_29
REMARK                            x       y       z     vdW  Elec       q    Type
REMARK                         _______ _______ _______ _____ _____    ______ ____
ROOT
ATOM      1  O   UNL     1      26.619   5.845  20.013  0.00  0.00    -0.253 OA
ATOM      2  O   UNL     1      21.805   7.821  19.757  0.00  0.00    -0.266 OA
ATOM      5  N   UNL     1      26.015   6.573  22.130  0.00  0.00    -0.285 N 
ATOM      6  N   UNL     1      23.038   7.586  21.728  0.00  0.00    -0.310 N 
ATOM      7  N   UNL     1      25.960   4.279  21.552  0.00  0.00    -0.296 N 
ATOM      9  C   UNL     1      25.175   8.920  22.191  0.00  0.00    +0.027 C 
ATOM     10  C   UNL     1      24.369   7.288  23.847  0.00  0.00    +0.054 C 
ATOM     11  C   UNL     1      24.797   8.742  23.657  0.00  0.00    +0.018 C 
ATOM     12  C   UNL     1      26.325   7.969  21.809  0.00  0.00    +0.114 C 
ATOM     13  C   UNL     1      25.552   6.359  23.512  0.00  0.00    +0.119 C 
ATOM     14  C   UNL     1      23.927   8.688  21.331  0.00  0.00    +0.130 C 
ATOM     15  C   UNL     1      23.182   6.949  22.964  0.00  0.00    +0.027 A 
ATOM     16  C   UNL     1      26.227   5.584  21.156  0.00  0.00    +0.302 C 
ATOM     18  C   UNL     1      22.292   6.020  23.354  0.00  0.00    +0.024 A 
ATOM     19  C   UNL     1      21.982   7.276  20.847  0.00  0.00    +0.273 A 
ATOM     24  C   UNL     1      21.026   6.219  21.308  0.00  0.00    +0.099 A 
ATOM     25  C   UNL     1      21.194   5.650  22.506  0.00  0.00    +0.030 A 
ATOM     36  H   UNL     1      25.546   4.083  22.451  0.00  0.00    +0.151 HD
ENDROOT
BRANCH   7  17
ATOM     17  C   UNL     1      26.123   3.156  20.656  0.00  0.00    +0.074 C 
ATOM     20  C   UNL     1      26.667   1.932  21.400  0.00  0.00    +0.022 C 
ATOM     21  C   UNL     1      24.809   2.830  19.937  0.00  0.00    +0.022 C 
ATOM     22  C   UNL     1      25.628   1.303  22.329  0.00  0.00    +0.002 C 
ATOM     23  C   UNL     1      23.774   2.199  20.868  0.00  0.00    +0.002 C 
ATOM     26  C   UNL     1      24.335   0.977  21.589  0.00  0.00    +0.000 C 
ENDBRANCH   7  17
BRANCH  24   8
ATOM      3  O   UNL     1      18.447   7.456  21.211  0.00  0.00    -0.275 OA
ATOM      8  N   UNL     1      19.998   5.880  20.478  0.00  0.00    -0.281 N 
ATOM     27  C   UNL     1      18.764   6.520  20.479  0.00  0.00    +0.222 C 
ATOM     37  H   UNL     1      20.074   4.981  20.010  0.00  0.00    +0.155 HD
BRANCH  27  28
ATOM     28  C   UNL     1      17.830   5.918  19.447  0.00  0.00    +0.131 C 
BRANCH  28  29
ATOM     29  C   UNL     1      16.411   6.408  19.566  0.00  0.00    -0.038 A 
ATOM     30  C   UNL     1      15.775   6.977  18.462  0.00  0.00    +0.007 A 
ATOM     31  C   UNL     1      15.734   6.294  20.779  0.00  0.00    +0.007 A 
ATOM     32  C   UNL     1      14.460   7.430  18.573  0.00  0.00    +0.046 A 
ATOM     33  C   UNL     1      14.421   6.748  20.890  0.00  0.00    +0.046 A 
ATOM     34  C   UNL     1      13.783   7.317  19.787  0.00  0.00    +0.120 A 
BRANCH  34   4
ATOM      4  O   UNL     1      12.500   7.759  19.896  0.00  0.00    -0.495 OA
ATOM     35  C   UNL     1      11.978   8.511  18.803  0.00  0.00    +0.277 C 
ENDBRANCH  34   4
ENDBRANCH  28  29
ENDBRANCH  27  28
ENDBRANCH  24   8
TORSDOF 5
ENDMDL
MODEL 10
REMARK VINA RESULT:      -6.4     26.581     30.667
REMARK  Name = 11912116
REMARK  6 active torsions:
REMARK  status: ('A' for Active; 'I' for Inactive)
REMARK    1  A    between atoms: O_4  and  C_34
REMARK    2  A    between atoms: O_4  and  C_35
REMARK    3  A    between atoms: N_7  and  C_17
REMARK    4  A    between atoms: N_8  and  C_24
REMARK    5  A    between atoms: C_27  and  C_28
REMARK    6  A    between atoms: C_28  and  C_29
REMARK                            x       y       z     vdW  Elec       q    Type
REMARK                         _______ _______ _______ _____ _____    ______ ____
ROOT
ATOM      1  O   UNL     1      -3.469 -10.785  15.914  0.00  0.00    -0.253 OA
ATOM      2  O   UNL     1      -7.921  -8.717  17.657  0.00  0.00    -0.266 OA
ATOM      5  N   UNL     1      -5.068 -12.462  16.002  0.00  0.00    -0.285 N 
ATOM      6  N   UNL     1      -7.677 -10.929  16.946  0.00  0.00    -0.310 N 
ATOM      7  N   UNL     1      -4.467 -11.436  13.955  0.00  0.00    -0.296 N 
ATOM      9  C   UNL     1      -6.234 -12.634  18.198  0.00  0.00    +0.027 C 
ATOM     10  C   UNL     1      -7.402 -13.299  16.138  0.00  0.00    +0.054 C 
ATOM     11  C   UNL     1      -7.189 -13.663  17.606  0.00  0.00    +0.018 C 
ATOM     12  C   UNL     1      -4.891 -12.645  17.445  0.00  0.00    +0.114 C 
ATOM     13  C   UNL     1      -6.054 -13.372  15.393  0.00  0.00    +0.119 C 
ATOM     14  C   UNL     1      -6.907 -11.257  18.155  0.00  0.00    +0.130 C 
ATOM     15  C   UNL     1      -7.994 -11.909  16.000  0.00  0.00    +0.027 A 
ATOM     16  C   UNL     1      -4.278 -11.514  15.330  0.00  0.00    +0.302 C 
ATOM     18  C   UNL     1      -8.791 -11.612  14.960  0.00  0.00    +0.024 A 
ATOM     19  C   UNL     1      -8.159  -9.608  16.841  0.00  0.00    +0.273 A 
ATOM     24  C   UNL     1      -9.024  -9.312  15.655  0.00  0.00    +0.099 A 
ATOM     25  C   UNL     1      -9.314 -10.286  14.787  0.00  0.00    +0.030 A 
ATOM     36  H   UNL     1      -5.198 -11.961  13.500  0.00  0.00    +0.151 HD
ENDROOT
BRANCH   7  17
ATOM     17  C   UNL     1      -3.733 -10.502  13.132  0.00  0.00    +0.074 C 
ATOM     20  C   UNL     1      -2.504 -11.169  12.504  0.00  0.00    +0.022 C 
ATOM     21  C   UNL     1      -4.637  -9.883  12.060  0.00  0.00    +0.022 C 
ATOM     22  C   UNL     1      -2.878 -12.162  11.402  0.00  0.00    +0.002 C 
ATOM     23  C   UNL     1      -5.006 -10.877  10.960  0.00  0.00    +0.002 C 
ATOM     26  C   UNL     1      -3.768 -11.520  10.343  0.00  0.00    +0.000 C 
ENDBRANCH   7  17
BRANCH  24   8
ATOM      3  O   UNL     1     -11.247  -8.165  17.046  0.00  0.00    -0.275 OA
ATOM      8  N   UNL     1      -9.499  -8.042  15.510  0.00  0.00    -0.281 N 
ATOM     27  C   UNL     1     -10.587  -7.542  16.216  0.00  0.00    +0.222 C 
ATOM     37  H   UNL     1      -9.180  -7.532  14.691  0.00  0.00    +0.155 HD
BRANCH  27  28
ATOM     28  C   UNL     1     -10.874  -6.101  15.837  0.00  0.00    +0.131 C 
BRANCH  28  29
ATOM     29  C   UNL     1     -12.148  -5.932  15.051  0.00  0.00    -0.038 A 
ATOM     30  C   UNL     1     -13.325  -6.539  15.491  0.00  0.00    +0.007 A 
ATOM     31  C   UNL     1     -12.151  -5.169  13.884  0.00  0.00    +0.007 A 
ATOM     32  C   UNL     1     -14.504  -6.382  14.763  0.00  0.00    +0.046 A 
ATOM     33  C   UNL     1     -13.330  -5.012  13.156  0.00  0.00    +0.046 A 
ATOM     34  C   UNL     1     -14.507  -5.619  13.595  0.00  0.00    +0.120 A 
BRANCH  34   4
ATOM      4  O   UNL     1     -15.658  -5.465  12.885  0.00  0.00    -0.495 OA
ATOM     35  C   UNL     1     -15.645  -5.895  11.525  0.00  0.00    +0.277 C 
ENDBRANCH  34   4
ENDBRANCH  28  29
ENDBRANCH  27  28
ENDBRANCH  24   8
TORSDOF 5
ENDMDL
