MODEL 1
REMARK VINA RESULT:      -6.2      0.000      0.000
REMARK  Name = 40780112
REMARK  9 active torsions:
REMARK  status: ('A' for Active; 'I' for Inactive)
REMARK    1  A    between atoms: O_1  and  C_16
REMARK    2  A    between atoms: O_1  and  C_21
REMARK    3  A    between atoms: O_3  and  C_22
REMARK    4  A    between atoms: O_3  and  C_30
REMARK    5  A    between atoms: N_5  and  C_19
REMARK    6  A    between atoms: N_7  and  C_26
REMARK    7  A    between atoms: C_9  and  C_15
REMARK    8  A    between atoms: C_10  and  C_16
REMARK    9  A    between atoms: C_18  and  C_20
REMARK                            x       y       z     vdW  Elec       q    Type
REMARK                         _______ _______ _______ _____ _____    ______ ____
ROOT
ATOM      4  N   UNL     1      -6.043 -10.519   9.568  0.00  0.00    -0.296 NA
ATOM      8  C   UNL     1      -4.188  -9.034  10.637  0.00  0.00    +0.002 C 
ATOM      9  C   UNL     1      -4.106 -10.485  11.186  0.00  0.00    +0.055 C 
ATOM     10  C   UNL     1      -6.637  -9.261  10.092  0.00  0.00    +0.095 C 
ATOM     11  C   UNL     1      -5.597  -8.465  10.910  0.00  0.00    +0.026 C 
ATOM     12  C   UNL     1      -4.025  -9.127   9.106  0.00  0.00    +0.019 C 
ATOM     13  C   UNL     1      -5.355 -11.250  10.663  0.00  0.00    +0.094 C 
ATOM     14  C   UNL     1      -5.029 -10.152   8.550  0.00  0.00    +0.085 C 
ENDROOT
BRANCH   9  15
ATOM      5  N   UNL     1      -2.687 -10.512  13.290  0.00  0.00    -0.270 N 
ATOM      6  N   UNL     1      -2.712 -10.730  14.616  0.00  0.00    -0.171 NA
ATOM     15  C   UNL     1      -3.896 -10.678  12.682  0.00  0.00    +0.044 A 
ATOM     17  C   UNL     1      -4.773 -11.029  13.678  0.00  0.00    +0.053 A 
ATOM     18  C   UNL     1      -3.990 -11.045  14.847  0.00  0.00    +0.096 A 
ATOM     19  C   UNL     1      -1.441 -10.143  12.659  0.00  0.00    +0.172 C 
BRANCH  18  20
ATOM     20  C   UNL     1      -4.437 -11.358  16.180  0.00  0.00    +0.044 A 
ATOM     22  C   UNL     1      -4.603 -12.681  16.587  0.00  0.00    +0.129 A 
ATOM     23  C   UNL     1      -4.704 -10.315  17.067  0.00  0.00    +0.014 A 
ATOM     24  C   UNL     1      -5.037 -12.962  17.882  0.00  0.00    +0.046 A 
ATOM     25  C   UNL     1      -5.138 -10.597  18.363  0.00  0.00    +0.001 A 
ATOM     27  C   UNL     1      -5.305 -11.920  18.770  0.00  0.00    +0.004 A 
BRANCH  22   3
ATOM      3  O   UNL     1      -4.349 -13.720  15.741  0.00  0.00    -0.494 OA
ATOM     30  C   UNL     1      -5.062 -14.931  15.973  0.00  0.00    +0.277 C 
ENDBRANCH  22   3
ENDBRANCH  18  20
ENDBRANCH   9  15
BRANCH  10  16
ATOM     16  C   UNL     1      -7.919  -9.511  10.890  0.00  0.00    +0.252 C 
BRANCH  16   1
ATOM      1  O   UNL     1      -7.703  -9.089  12.223  0.00  0.00    -0.449 OA
BRANCH   1  21
ATOM      2  O   UNL     1      -9.516 -10.255  12.989  0.00  0.00    -0.226 OA
ATOM      7  N   UNL     1      -7.732  -9.685  14.395  0.00  0.00    -0.251 N 
ATOM     21  C   UNL     1      -8.427  -9.735  13.202  0.00  0.00    +0.405 C 
ATOM     34  H   UNL     1      -6.836  -9.205  14.373  0.00  0.00    +0.158 HD
BRANCH   7  26
ATOM     26  C   UNL     1      -8.112 -10.220  15.646  0.00  0.00    +0.036 A 
ATOM     28  C   UNL     1      -8.188 -11.603  15.819  0.00  0.00    +0.023 A 
ATOM     29  C   UNL     1      -8.411  -9.367  16.708  0.00  0.00    +0.023 A 
ATOM     31  C   UNL     1      -8.562 -12.131  17.054  0.00  0.00    +0.002 A 
ATOM     32  C   UNL     1      -8.786  -9.896  17.944  0.00  0.00    +0.002 A 
ATOM     33  C   UNL     1      -8.862 -11.279  18.117  0.00  0.00    +0.000 A 
ENDBRANCH   7  26
ENDBRANCH   1  21
ENDBRANCH  16   1
ENDBRANCH  10  16
TORSDOF 7
ENDMDL
MODEL 2
REMARK VINA RESULT:      -6.0      1.780      6.228
REMARK  Name = 40780112
REMARK  9 active torsions:
REMARK  status: ('A' for Active; 'I' for Inactive)
REMARK    1  A    between atoms: O_1  and  C_16
REMARK    2  A    between atoms: O_1  and  C_21
REMARK    3  A    between atoms: O_3  and  C_22
REMARK    4  A    between atoms: O_3  and  C_30
REMARK    5  A    between atoms: N_5  and  C_19
REMARK    6  A    between atoms: N_7  and  C_26
REMARK    7  A    between atoms: C_9  and  C_15
REMARK    8  A    between atoms: C_10  and  C_16
REMARK    9  A    between atoms: C_18  and  C_20
REMARK                            x       y       z     vdW  Elec       q    Type
REMARK                         _______ _______ _______ _____ _____    ______ ____
ROOT
ATOM      4  N   UNL     1      -6.377 -10.332  17.966  0.00  0.00    -0.296 NA
ATOM      8  C   UNL     1      -4.523 -12.065  17.377  0.00  0.00    +0.002 C 
ATOM      9  C   UNL     1      -4.213 -10.692  16.719  0.00  0.00    +0.055 C 
ATOM     10  C   UNL     1      -6.995 -11.588  17.466  0.00  0.00    +0.095 C 
ATOM     11  C   UNL     1      -5.915 -12.547  16.918  0.00  0.00    +0.026 C 
ATOM     12  C   UNL     1      -4.606 -11.821  18.898  0.00  0.00    +0.019 C 
ATOM     13  C   UNL     1      -5.452  -9.779  16.944  0.00  0.00    +0.094 C 
ATOM     14  C   UNL     1      -5.585 -10.666  19.174  0.00  0.00    +0.085 C 
ENDROOT
BRANCH   9  15
ATOM      5  N   UNL     1      -2.425 -10.668  14.918  0.00  0.00    -0.270 N 
ATOM      6  N   UNL     1      -2.219 -10.655  13.590  0.00  0.00    -0.171 NA
ATOM     15  C   UNL     1      -3.742 -10.678  15.271  0.00  0.00    +0.044 A 
ATOM     17  C   UNL     1      -4.447 -10.671  14.093  0.00  0.00    +0.053 A 
ATOM     18  C   UNL     1      -3.458 -10.658  13.091  0.00  0.00    +0.096 A 
ATOM     19  C   UNL     1      -1.287 -10.666  15.808  0.00  0.00    +0.172 C 
BRANCH  18  20
ATOM     20  C   UNL     1      -3.674 -10.645  11.667  0.00  0.00    +0.044 A 
ATOM     22  C   UNL     1      -4.037 -11.807  10.988  0.00  0.00    +0.129 A 
ATOM     23  C   UNL     1      -3.515  -9.449  10.968  0.00  0.00    +0.014 A 
ATOM     24  C   UNL     1      -4.242 -11.773   9.609  0.00  0.00    +0.046 A 
ATOM     25  C   UNL     1      -3.719  -9.414   9.589  0.00  0.00    +0.001 A 
ATOM     27  C   UNL     1      -4.083 -10.577   8.909  0.00  0.00    +0.004 A 
BRANCH  22   3
ATOM      3  O   UNL     1      -4.201 -12.991  11.645  0.00  0.00    -0.494 OA
ATOM     30  C   UNL     1      -3.090 -13.883  11.655  0.00  0.00    +0.277 C 
ENDBRANCH  22   3
ENDBRANCH  18  20
ENDBRANCH   9  15
BRANCH  10  16
ATOM     16  C   UNL     1      -8.098 -11.325  16.437  0.00  0.00    +0.252 C 
BRANCH  16   1
ATOM      1  O   UNL     1      -7.608 -11.677  15.158  0.00  0.00    -0.449 OA
BRANCH   1  21
ATOM      2  O   UNL     1      -8.903 -10.051  14.205  0.00  0.00    -0.226 OA
ATOM      7  N   UNL     1      -7.318 -11.250  12.966  0.00  0.00    -0.251 N 
ATOM     21  C   UNL     1      -8.028 -10.903  14.099  0.00  0.00    +0.405 C 
ATOM     34  H   UNL     1      -6.626 -11.986  13.078  0.00  0.00    +0.158 HD
BRANCH   7  26
ATOM     26  C   UNL     1      -7.433 -10.706  11.666  0.00  0.00    +0.036 A 
ATOM     28  C   UNL     1      -7.796 -11.526  10.598  0.00  0.00    +0.023 A 
ATOM     29  C   UNL     1      -7.182  -9.351  11.453  0.00  0.00    +0.023 A 
ATOM     31  C   UNL     1      -7.909 -10.989   9.315  0.00  0.00    +0.002 A 
ATOM     32  C   UNL     1      -7.295  -8.814  10.170  0.00  0.00    +0.002 A 
ATOM     33  C   UNL     1      -7.659  -9.634   9.101  0.00  0.00    +0.000 A 
ENDBRANCH   7  26
ENDBRANCH   1  21
ENDBRANCH  16   1
ENDBRANCH  10  16
TORSDOF 7
ENDMDL
MODEL 3
REMARK VINA RESULT:      -5.9     27.823     30.489
REMARK  Name = 40780112
REMARK  9 active torsions:
REMARK  status: ('A' for Active; 'I' for Inactive)
REMARK    1  A    between atoms: O_1  and  C_16
REMARK    2  A    between atoms: O_1  and  C_21
REMARK    3  A    between atoms: O_3  and  C_22
REMARK    4  A    between atoms: O_3  and  C_30
REMARK    5  A    between atoms: N_5  and  C_19
REMARK    6  A    between atoms: N_7  and  C_26
REMARK    7  A    between atoms: C_9  and  C_15
REMARK    8  A    between atoms: C_10  and  C_16
REMARK    9  A    between atoms: C_18  and  C_20
REMARK                            x       y       z     vdW  Elec       q    Type
REMARK                         _______ _______ _______ _____ _____    ______ ____
ROOT
ATOM      4  N   UNL     1      14.325   9.399  18.574  0.00  0.00    -0.296 NA
ATOM      8  C   UNL     1      12.885   7.937  20.178  0.00  0.00    +0.002 C 
ATOM      9  C   UNL     1      12.247   9.343  20.004  0.00  0.00    +0.055 C 
ATOM     10  C   UNL     1      15.188   8.792  19.620  0.00  0.00    +0.095 C 
ATOM     11  C   UNL     1      14.330   8.094  20.698  0.00  0.00    +0.026 C 
ATOM     12  C   UNL     1      12.974   7.311  18.770  0.00  0.00    +0.019 C 
ATOM     13  C   UNL     1      13.257  10.215  19.206  0.00  0.00    +0.094 C 
ATOM     14  C   UNL     1      13.680   8.297  17.822  0.00  0.00    +0.085 C 
ENDROOT
BRANCH   9  15
ATOM      5  N   UNL     1      10.971   9.433  22.196  0.00  0.00    -0.270 N 
ATOM      6  N   UNL     1      10.609  10.236  23.211  0.00  0.00    -0.171 NA
ATOM     15  C   UNL     1      11.724  10.055  21.244  0.00  0.00    +0.044 A 
ATOM     17  C   UNL     1      11.866  11.354  21.666  0.00  0.00    +0.053 A 
ATOM     18  C   UNL     1      11.160  11.408  22.882  0.00  0.00    +0.096 A 
ATOM     19  C   UNL     1      10.547   8.053  22.202  0.00  0.00    +0.172 C 
BRANCH  18  20
ATOM     20  C   UNL     1      10.997  12.558  23.734  0.00  0.00    +0.044 A 
ATOM     22  C   UNL     1      11.639  12.629  24.970  0.00  0.00    +0.129 A 
ATOM     23  C   UNL     1      10.185  13.608  23.308  0.00  0.00    +0.014 A 
ATOM     24  C   UNL     1      11.468  13.751  25.780  0.00  0.00    +0.046 A 
ATOM     25  C   UNL     1      10.014  14.731  24.118  0.00  0.00    +0.001 A 
ATOM     27  C   UNL     1      10.656  14.803  25.354  0.00  0.00    +0.004 A 
BRANCH  22   3
ATOM      3  O   UNL     1      12.440  11.617  25.412  0.00  0.00    -0.494 OA
ATOM     30  C   UNL     1      13.836  11.888  25.495  0.00  0.00    +0.277 C 
ENDBRANCH  22   3
ENDBRANCH  18  20
ENDBRANCH   9  15
BRANCH  10  16
ATOM     16  C   UNL     1      16.159   9.803  20.234  0.00  0.00    +0.252 C 
BRANCH  16   1
ATOM      1  O   UNL     1      16.681   9.253  21.428  0.00  0.00    -0.449 OA
BRANCH   1  21
ATOM      2  O   UNL     1      18.926   9.638  21.230  0.00  0.00    -0.226 OA
ATOM      7  N   UNL     1      18.071   7.490  21.598  0.00  0.00    -0.251 N 
ATOM     21  C   UNL     1      17.999   8.856  21.403  0.00  0.00    +0.405 C 
ATOM     34  H   UNL     1      17.185   7.007  21.726  0.00  0.00    +0.158 HD
BRANCH   7  26
ATOM     26  C   UNL     1      19.226   6.676  21.644  0.00  0.00    +0.036 A 
ATOM     28  C   UNL     1      20.062   6.716  22.760  0.00  0.00    +0.023 A 
ATOM     29  C   UNL     1      19.529   5.836  20.574  0.00  0.00    +0.023 A 
ATOM     31  C   UNL     1      21.201   5.912  22.805  0.00  0.00    +0.002 A 
ATOM     32  C   UNL     1      20.669   5.033  20.619  0.00  0.00    +0.002 A 
ATOM     33  C   UNL     1      21.506   5.071  21.735  0.00  0.00    +0.000 A 
ENDBRANCH   7  26
ENDBRANCH   1  21
ENDBRANCH  16   1
ENDBRANCH  10  16
TORSDOF 7
ENDMDL
MODEL 4
REMARK VINA RESULT:      -5.9      4.481      7.939
REMARK  Name = 40780112
REMARK  9 active torsions:
REMARK  status: ('A' for Active; 'I' for Inactive)
REMARK    1  A    between atoms: O_1  and  C_16
REMARK    2  A    between atoms: O_1  and  C_21
REMARK    3  A    between atoms: O_3  and  C_22
REMARK    4  A    between atoms: O_3  and  C_30
REMARK    5  A    between atoms: N_5  and  C_19
REMARK    6  A    between atoms: N_7  and  C_26
REMARK    7  A    between atoms: C_9  and  C_15
REMARK    8  A    between atoms: C_10  and  C_16
REMARK    9  A    between atoms: C_18  and  C_20
REMARK                            x       y       z     vdW  Elec       q    Type
REMARK                         _______ _______ _______ _____ _____    ______ ____
ROOT
ATOM      4  N   UNL     1      -5.717 -11.826  17.257  0.00  0.00    -0.296 NA
ATOM      8  C   UNL     1      -6.222 -11.458  19.787  0.00  0.00    +0.002 C 
ATOM      9  C   UNL     1      -7.250 -12.444  19.165  0.00  0.00    +0.055 C 
ATOM     10  C   UNL     1      -5.754 -10.371  17.563  0.00  0.00    +0.095 C 
ATOM     11  C   UNL     1      -6.254 -10.129  19.004  0.00  0.00    +0.026 C 
ATOM     12  C   UNL     1      -4.825 -12.077  19.573  0.00  0.00    +0.019 C 
ATOM     13  C   UNL     1      -7.011 -12.455  17.628  0.00  0.00    +0.094 C 
ATOM     14  C   UNL     1      -4.652 -12.437  18.087  0.00  0.00    +0.085 C 
ENDROOT
BRANCH   9  15
ATOM      5  N   UNL     1      -9.391 -13.118  20.348  0.00  0.00    -0.270 N 
ATOM      6  N   UNL     1     -10.681 -12.790  20.532  0.00  0.00    -0.171 NA
ATOM     15  C   UNL     1      -8.720 -12.269  19.519  0.00  0.00    +0.044 A 
ATOM     17  C   UNL     1      -9.634 -11.320  19.133  0.00  0.00    +0.053 A 
ATOM     18  C   UNL     1     -10.824 -11.690  19.788  0.00  0.00    +0.096 A 
ATOM     19  C   UNL     1      -8.858 -14.286  21.011  0.00  0.00    +0.172 C 
BRANCH  18  20
ATOM     20  C   UNL     1     -12.094 -11.016  19.714  0.00  0.00    +0.044 A 
ATOM     22  C   UNL     1     -13.048 -11.389  18.768  0.00  0.00    +0.129 A 
ATOM     23  C   UNL     1     -12.363  -9.977  20.605  0.00  0.00    +0.014 A 
ATOM     24  C   UNL     1     -14.272 -10.722  18.713  0.00  0.00    +0.046 A 
ATOM     25  C   UNL     1     -13.587  -9.311  20.550  0.00  0.00    +0.001 A 
ATOM     27  C   UNL     1     -14.542  -9.683  19.604  0.00  0.00    +0.004 A 
BRANCH  22   3
ATOM      3  O   UNL     1     -12.813 -12.401  17.884  0.00  0.00    -0.494 OA
ATOM     30  C   UNL     1     -12.534 -12.031  16.537  0.00  0.00    +0.277 C 
ENDBRANCH  22   3
ENDBRANCH  18  20
ENDBRANCH   9  15
BRANCH  10  16
ATOM     16  C   UNL     1      -6.568  -9.581  16.536  0.00  0.00    +0.252 C 
BRANCH  16   1
ATOM      1  O   UNL     1      -7.693  -9.026  17.191  0.00  0.00    -0.449 OA
BRANCH   1  21
ATOM      2  O   UNL     1      -9.058  -9.581  15.442  0.00  0.00    -0.226 OA
ATOM      7  N   UNL     1      -9.674  -7.968  17.024  0.00  0.00    -0.251 N 
ATOM     21  C   UNL     1      -8.849  -8.915  16.450  0.00  0.00    +0.405 C 
ATOM     34  H   UNL     1      -9.324  -7.519  17.867  0.00  0.00    +0.158 HD
BRANCH   7  26
ATOM     26  C   UNL     1     -10.950  -7.545  16.588  0.00  0.00    +0.036 A 
ATOM     28  C   UNL     1     -11.084  -6.349  15.883  0.00  0.00    +0.023 A 
ATOM     29  C   UNL     1     -12.074  -8.323  16.863  0.00  0.00    +0.023 A 
ATOM     31  C   UNL     1     -12.343  -5.932  15.452  0.00  0.00    +0.002 A 
ATOM     32  C   UNL     1     -13.334  -7.906  16.432  0.00  0.00    +0.002 A 
ATOM     33  C   UNL     1     -13.469  -6.710  15.726  0.00  0.00    +0.000 A 
ENDBRANCH   7  26
ENDBRANCH   1  21
ENDBRANCH  16   1
ENDBRANCH  10  16
TORSDOF 7
ENDMDL
MODEL 5
REMARK VINA RESULT:      -5.7      2.652      6.104
REMARK  Name = 40780112
REMARK  9 active torsions:
REMARK  status: ('A' for Active; 'I' for Inactive)
REMARK    1  A    between atoms: O_1  and  C_16
REMARK    2  A    between atoms: O_1  and  C_21
REMARK    3  A    between atoms: O_3  and  C_22
REMARK    4  A    between atoms: O_3  and  C_30
REMARK    5  A    between atoms: N_5  and  C_19
REMARK    6  A    between atoms: N_7  and  C_26
REMARK    7  A    between atoms: C_9  and  C_15
REMARK    8  A    between atoms: C_10  and  C_16
REMARK    9  A    between atoms: C_18  and  C_20
REMARK                            x       y       z     vdW  Elec       q    Type
REMARK                         _______ _______ _______ _____ _____    ______ ____
ROOT
ATOM      4  N   UNL     1      -6.161 -10.659  18.012  0.00  0.00    -0.296 NA
ATOM      8  C   UNL     1      -4.161 -12.162  17.286  0.00  0.00    +0.002 C 
ATOM      9  C   UNL     1      -4.047 -10.755  16.637  0.00  0.00    +0.055 C 
ATOM     10  C   UNL     1      -6.662 -11.971  17.525  0.00  0.00    +0.095 C 
ATOM     11  C   UNL     1      -5.515 -12.794  16.899  0.00  0.00    +0.026 C 
ATOM     12  C   UNL     1      -4.181 -11.947  18.814  0.00  0.00    +0.019 C 
ATOM     13  C   UNL     1      -5.366  -9.992  16.950  0.00  0.00    +0.094 C 
ATOM     14  C   UNL     1      -5.267 -10.915  19.166  0.00  0.00    +0.085 C 
ENDROOT
BRANCH   9  15
ATOM      5  N   UNL     1      -2.391 -10.446  14.739  0.00  0.00    -0.270 N 
ATOM      6  N   UNL     1      -2.265 -10.406  13.401  0.00  0.00    -0.171 NA
ATOM     15  C   UNL     1      -3.667 -10.670  15.165  0.00  0.00    +0.044 A 
ATOM     17  C   UNL     1      -4.429 -10.785  14.029  0.00  0.00    +0.053 A 
ATOM     18  C   UNL     1      -3.514 -10.614  12.973  0.00  0.00    +0.096 A 
ATOM     19  C   UNL     1      -1.221 -10.254  15.564  0.00  0.00    +0.172 C 
BRANCH  18  20
ATOM     20  C   UNL     1      -3.808 -10.643  11.563  0.00  0.00    +0.044 A 
ATOM     22  C   UNL     1      -3.665 -11.818  10.826  0.00  0.00    +0.129 A 
ATOM     23  C   UNL     1      -4.242  -9.474  10.937  0.00  0.00    +0.014 A 
ATOM     24  C   UNL     1      -3.956 -11.824   9.462  0.00  0.00    +0.046 A 
ATOM     25  C   UNL     1      -4.532  -9.480   9.573  0.00  0.00    +0.001 A 
ATOM     27  C   UNL     1      -4.390 -10.655   8.835  0.00  0.00    +0.004 A 
BRANCH  22   3
ATOM      3  O   UNL     1      -3.244 -12.975  11.412  0.00  0.00    -0.494 OA
ATOM     30  C   UNL     1      -3.852 -14.184  10.965  0.00  0.00    +0.277 C 
ENDBRANCH  22   3
ENDBRANCH  18  20
ENDBRANCH   9  15
BRANCH  10  16
ATOM     16  C   UNL     1      -7.846 -11.822  16.567  0.00  0.00    +0.252 C 
BRANCH  16   1
ATOM      1  O   UNL     1      -8.807 -10.980  17.172  0.00  0.00    -0.449 OA
BRANCH   1  21
ATOM      2  O   UNL     1      -9.249 -10.026  15.141  0.00  0.00    -0.226 OA
ATOM      7  N   UNL     1     -10.328  -9.321  17.095  0.00  0.00    -0.251 N 
ATOM     21  C   UNL     1      -9.455 -10.087  16.347  0.00  0.00    +0.405 C 
ATOM     34  H   UNL     1     -10.361  -9.521  18.092  0.00  0.00    +0.158 HD
BRANCH   7  26
ATOM     26  C   UNL     1     -11.185  -8.291  16.647  0.00  0.00    +0.036 A 
ATOM     28  C   UNL     1     -10.666  -7.029  16.358  0.00  0.00    +0.023 A 
ATOM     29  C   UNL     1     -12.550  -8.536  16.495  0.00  0.00    +0.023 A 
ATOM     31  C   UNL     1     -11.513  -6.012  15.915  0.00  0.00    +0.002 A 
ATOM     32  C   UNL     1     -13.397  -7.519  16.054  0.00  0.00    +0.002 A 
ATOM     33  C   UNL     1     -12.878  -6.256  15.763  0.00  0.00    +0.000 A 
ENDBRANCH   7  26
ENDBRANCH   1  21
ENDBRANCH  16   1
ENDBRANCH  10  16
TORSDOF 7
ENDMDL
MODEL 6
REMARK VINA RESULT:      -5.6      2.850      6.521
REMARK  Name = 40780112
REMARK  9 active torsions:
REMARK  status: ('A' for Active; 'I' for Inactive)
REMARK    1  A    between atoms: O_1  and  C_16
REMARK    2  A    between atoms: O_1  and  C_21
REMARK    3  A    between atoms: O_3  and  C_22
REMARK    4  A    between atoms: O_3  and  C_30
REMARK    5  A    between atoms: N_5  and  C_19
REMARK    6  A    between atoms: N_7  and  C_26
REMARK    7  A    between atoms: C_9  and  C_15
REMARK    8  A    between atoms: C_10  and  C_16
REMARK    9  A    between atoms: C_18  and  C_20
REMARK                            x       y       z     vdW  Elec       q    Type
REMARK                         _______ _______ _______ _____ _____    ______ ____
ROOT
ATOM      4  N   UNL     1      -3.831 -10.826  17.098  0.00  0.00    -0.296 NA
ATOM      8  C   UNL     1      -4.969 -11.686  14.917  0.00  0.00    +0.002 C 
ATOM      9  C   UNL     1      -5.504 -10.275  15.290  0.00  0.00    +0.055 C 
ATOM     10  C   UNL     1      -4.352 -12.203  17.305  0.00  0.00    +0.095 C 
ATOM     11  C   UNL     1      -5.207 -12.649  16.099  0.00  0.00    +0.026 C 
ATOM     12  C   UNL     1      -3.441 -11.551  14.743  0.00  0.00    +0.019 C 
ATOM     13  C   UNL     1      -4.937  -9.920  16.694  0.00  0.00    +0.094 C 
ATOM     14  C   UNL     1      -2.847 -10.874  15.991  0.00  0.00    +0.085 C 
ENDROOT
BRANCH   9  15
ATOM      5  N   UNL     1      -7.633  -9.734  14.019  0.00  0.00    -0.270 N 
ATOM      6  N   UNL     1      -8.958  -9.548  14.146  0.00  0.00    -0.171 NA
ATOM     15  C   UNL     1      -7.002 -10.025  15.192  0.00  0.00    +0.044 A 
ATOM     17  C   UNL     1      -7.982 -10.030  16.155  0.00  0.00    +0.053 A 
ATOM     18  C   UNL     1      -9.165  -9.730  15.453  0.00  0.00    +0.096 A 
ATOM     19  C   UNL     1      -7.025  -9.612  12.714  0.00  0.00    +0.172 C 
BRANCH  18  20
ATOM     20  C   UNL     1     -10.489  -9.612  16.008  0.00  0.00    +0.044 A 
ATOM     22  C   UNL     1     -10.958  -8.389  16.486  0.00  0.00    +0.129 A 
ATOM     23  C   UNL     1     -11.305 -10.742  16.062  0.00  0.00    +0.014 A 
ATOM     24  C   UNL     1     -12.243  -8.297  17.020  0.00  0.00    +0.046 A 
ATOM     25  C   UNL     1     -12.590 -10.650  16.595  0.00  0.00    +0.001 A 
ATOM     27  C   UNL     1     -13.060  -9.427  17.074  0.00  0.00    +0.004 A 
BRANCH  22   3
ATOM      3  O   UNL     1     -10.183  -7.268  16.446  0.00  0.00    -0.494 OA
ATOM     30  C   UNL     1     -10.616  -6.214  15.590  0.00  0.00    +0.277 C 
ENDBRANCH  22   3
ENDBRANCH  18  20
ENDBRANCH   9  15
BRANCH  10  16
ATOM     16  C   UNL     1      -5.111 -12.346  18.626  0.00  0.00    +0.252 C 
BRANCH  16   1
ATOM      1  O   UNL     1      -6.476 -12.572  18.333  0.00  0.00    -0.449 OA
BRANCH   1  21
ATOM      2  O   UNL     1      -7.082 -11.807  20.402  0.00  0.00    -0.226 OA
ATOM      7  N   UNL     1      -8.644 -12.070  18.677  0.00  0.00    -0.251 N 
ATOM     21  C   UNL     1      -7.391 -12.113  19.256  0.00  0.00    +0.405 C 
ATOM     34  H   UNL     1      -8.701 -12.365  17.706  0.00  0.00    +0.158 HD
BRANCH   7  26
ATOM     26  C   UNL     1      -9.862 -11.662  19.268  0.00  0.00    +0.036 A 
ATOM     28  C   UNL     1     -10.869 -12.597  19.505  0.00  0.00    +0.023 A 
ATOM     29  C   UNL     1     -10.057 -10.325  19.612  0.00  0.00    +0.023 A 
ATOM     31  C   UNL     1     -12.070 -12.195  20.089  0.00  0.00    +0.002 A 
ATOM     32  C   UNL     1     -11.259  -9.922  20.195  0.00  0.00    +0.002 A 
ATOM     33  C   UNL     1     -12.266 -10.857  20.433  0.00  0.00    +0.000 A 
ENDBRANCH   7  26
ENDBRANCH   1  21
ENDBRANCH  16   1
ENDBRANCH  10  16
TORSDOF 7
ENDMDL
MODEL 7
REMARK VINA RESULT:      -5.6     27.009     29.663
REMARK  Name = 40780112
REMARK  9 active torsions:
REMARK  status: ('A' for Active; 'I' for Inactive)
REMARK    1  A    between atoms: O_1  and  C_16
REMARK    2  A    between atoms: O_1  and  C_21
REMARK    3  A    between atoms: O_3  and  C_22
REMARK    4  A    between atoms: O_3  and  C_30
REMARK    5  A    between atoms: N_5  and  C_19
REMARK    6  A    between atoms: N_7  and  C_26
REMARK    7  A    between atoms: C_9  and  C_15
REMARK    8  A    between atoms: C_10  and  C_16
REMARK    9  A    between atoms: C_18  and  C_20
REMARK                            x       y       z     vdW  Elec       q    Type
REMARK                         _______ _______ _______ _____ _____    ______ ____
ROOT
ATOM      4  N   UNL     1      10.944  11.907  22.377  0.00  0.00    -0.296 NA
ATOM      8  C   UNL     1      13.168  11.576  23.692  0.00  0.00    +0.002 C 
ATOM      9  C   UNL     1      13.461  11.878  22.196  0.00  0.00    +0.055 C 
ATOM     10  C   UNL     1      10.883  10.653  23.173  0.00  0.00    +0.095 C 
ATOM     11  C   UNL     1      12.260  10.332  23.793  0.00  0.00    +0.026 C 
ATOM     12  C   UNL     1      12.361  12.773  24.238  0.00  0.00    +0.019 C 
ATOM     13  C   UNL     1      12.099  11.861  21.445  0.00  0.00    +0.094 C 
ATOM     14  C   UNL     1      11.155  13.032  23.319  0.00  0.00    +0.085 C 
ENDROOT
BRANCH   9  15
ATOM      5  N   UNL     1      15.325  11.545  20.507  0.00  0.00    -0.270 N 
ATOM      6  N   UNL     1      16.194  10.649  20.009  0.00  0.00    -0.171 NA
ATOM     15  C   UNL     1      14.521  11.046  21.488  0.00  0.00    +0.044 A 
ATOM     17  C   UNL     1      14.888   9.732  21.643  0.00  0.00    +0.053 A 
ATOM     18  C   UNL     1      15.922   9.543  20.708  0.00  0.00    +0.096 A 
ATOM     19  C   UNL     1      15.320  12.890  19.981  0.00  0.00    +0.172 C 
BRANCH  18  20
ATOM     20  C   UNL     1      16.654   8.326  20.466  0.00  0.00    +0.044 A 
ATOM     22  C   UNL     1      17.874   8.087  21.098  0.00  0.00    +0.129 A 
ATOM     23  C   UNL     1      16.127   7.382  19.586  0.00  0.00    +0.014 A 
ATOM     24  C   UNL     1      18.567   6.903  20.849  0.00  0.00    +0.046 A 
ATOM     25  C   UNL     1      16.820   6.197  19.337  0.00  0.00    +0.001 A 
ATOM     27  C   UNL     1      18.040   5.957  19.969  0.00  0.00    +0.004 A 
BRANCH  22   3
ATOM      3  O   UNL     1      18.413   8.993  21.964  0.00  0.00    -0.494 OA
ATOM     30  C   UNL     1      19.564   9.705  21.519  0.00  0.00    +0.277 C 
ENDBRANCH  22   3
ENDBRANCH  18  20
ENDBRANCH   9  15
BRANCH  10  16
ATOM     16  C   UNL     1      10.335   9.476  22.363  0.00  0.00    +0.252 C 
BRANCH  16   1
ATOM      1  O   UNL     1      11.403   8.592  22.083  0.00  0.00    -0.449 OA
BRANCH   1  21
ATOM      2  O   UNL     1      11.343   6.976  20.465  0.00  0.00    -0.226 OA
ATOM      7  N   UNL     1      11.834   9.209  19.960  0.00  0.00    -0.251 N 
ATOM     21  C   UNL     1      11.513   8.147  20.784  0.00  0.00    +0.405 C 
ATOM     34  H   UNL     1      11.933  10.114  20.413  0.00  0.00    +0.158 HD
BRANCH   7  26
ATOM     26  C   UNL     1      12.039   9.195  18.562  0.00  0.00    +0.036 A 
ATOM     28  C   UNL     1      10.999   8.829  17.708  0.00  0.00    +0.023 A 
ATOM     29  C   UNL     1      13.282   9.548  18.037  0.00  0.00    +0.023 A 
ATOM     31  C   UNL     1      11.202   8.816  16.328  0.00  0.00    +0.002 A 
ATOM     32  C   UNL     1      13.485   9.535  16.656  0.00  0.00    +0.002 A 
ATOM     33  C   UNL     1      12.445   9.168  15.802  0.00  0.00    +0.000 A 
ENDBRANCH   7  26
ENDBRANCH   1  21
ENDBRANCH  16   1
ENDBRANCH  10  16
TORSDOF 7
ENDMDL
MODEL 8
REMARK VINA RESULT:      -5.5      2.829      6.154
REMARK  Name = 40780112
REMARK  9 active torsions:
REMARK  status: ('A' for Active; 'I' for Inactive)
REMARK    1  A    between atoms: O_1  and  C_16
REMARK    2  A    between atoms: O_1  and  C_21
REMARK    3  A    between atoms: O_3  and  C_22
REMARK    4  A    between atoms: O_3  and  C_30
REMARK    5  A    between atoms: N_5  and  C_19
REMARK    6  A    between atoms: N_7  and  C_26
REMARK    7  A    between atoms: C_9  and  C_15
REMARK    8  A    between atoms: C_10  and  C_16
REMARK    9  A    between atoms: C_18  and  C_20
REMARK                            x       y       z     vdW  Elec       q    Type
REMARK                         _______ _______ _______ _____ _____    ______ ____
ROOT
ATOM      4  N   UNL     1      -6.238 -10.428  17.789  0.00  0.00    -0.296 NA
ATOM      8  C   UNL     1      -4.340 -12.068  17.088  0.00  0.00    +0.002 C 
ATOM      9  C   UNL     1      -4.128 -10.678  16.427  0.00  0.00    +0.055 C 
ATOM     10  C   UNL     1      -6.823 -11.708  17.310  0.00  0.00    +0.095 C 
ATOM     11  C   UNL     1      -5.731 -12.612  16.698  0.00  0.00    +0.026 C 
ATOM     12  C   UNL     1      -4.354 -11.838  18.613  0.00  0.00    +0.019 C 
ATOM     13  C   UNL     1      -5.395  -9.825  16.725  0.00  0.00    +0.094 C 
ATOM     14  C   UNL     1      -5.369 -10.732  18.950  0.00  0.00    +0.085 C 
ENDROOT
BRANCH   9  15
ATOM      5  N   UNL     1      -2.440 -10.627  14.533  0.00  0.00    -0.270 N 
ATOM      6  N   UNL     1      -2.305 -10.584  13.197  0.00  0.00    -0.171 NA
ATOM     15  C   UNL     1      -3.736 -10.633  14.957  0.00  0.00    +0.044 A 
ATOM     17  C   UNL     1      -4.503 -10.590  13.819  0.00  0.00    +0.053 A 
ATOM     18  C   UNL     1      -3.570 -10.562  12.766  0.00  0.00    +0.096 A 
ATOM     19  C   UNL     1      -1.256 -10.660  15.361  0.00  0.00    +0.172 C 
BRANCH  18  20
ATOM     20  C   UNL     1      -3.861 -10.511  11.356  0.00  0.00    +0.044 A 
ATOM     22  C   UNL     1      -4.306 -11.644  10.676  0.00  0.00    +0.129 A 
ATOM     23  C   UNL     1      -3.693  -9.307  10.672  0.00  0.00    +0.014 A 
ATOM     24  C   UNL     1      -4.583 -11.574   9.311  0.00  0.00    +0.046 A 
ATOM     25  C   UNL     1      -3.970  -9.237   9.307  0.00  0.00    +0.001 A 
ATOM     27  C   UNL     1      -4.415 -10.370   8.626  0.00  0.00    +0.004 A 
BRANCH  22   3
ATOM      3  O   UNL     1      -4.480 -12.834  11.320  0.00  0.00    -0.494 OA
ATOM     30  C   UNL     1      -3.461 -13.815  11.150  0.00  0.00    +0.277 C 
ENDBRANCH  22   3
ENDBRANCH  18  20
ENDBRANCH   9  15
BRANCH  10  16
ATOM     16  C   UNL     1      -7.989 -11.490  16.344  0.00  0.00    +0.252 C 
BRANCH  16   1
ATOM      1  O   UNL     1      -8.820 -10.472  16.869  0.00  0.00    -0.449 OA
BRANCH   1  21
ATOM      2  O   UNL     1     -10.380 -12.041  17.449  0.00  0.00    -0.226 OA
ATOM      7  N   UNL     1     -10.625  -9.785  18.026  0.00  0.00    -0.251 N 
ATOM     21  C   UNL     1      -9.997 -10.876  17.459  0.00  0.00    +0.405 C 
ATOM     34  H   UNL     1     -10.148  -8.892  17.930  0.00  0.00    +0.158 HD
BRANCH   7  26
ATOM     26  C   UNL     1     -11.852  -9.754  18.728  0.00  0.00    +0.036 A 
ATOM     28  C   UNL     1     -13.045  -9.550  18.036  0.00  0.00    +0.023 A 
ATOM     29  C   UNL     1     -11.868  -9.925  20.112  0.00  0.00    +0.023 A 
ATOM     31  C   UNL     1     -14.256  -9.520  18.728  0.00  0.00    +0.002 A 
ATOM     32  C   UNL     1     -13.079  -9.894  20.805  0.00  0.00    +0.002 A 
ATOM     33  C   UNL     1     -14.273  -9.691  20.113  0.00  0.00    +0.000 A 
ENDBRANCH   7  26
ENDBRANCH   1  21
ENDBRANCH  16   1
ENDBRANCH  10  16
TORSDOF 7
ENDMDL
MODEL 9
REMARK VINA RESULT:      -5.5      1.627      4.666
REMARK  Name = 40780112
REMARK  9 active torsions:
REMARK  status: ('A' for Active; 'I' for Inactive)
REMARK    1  A    between atoms: O_1  and  C_16
REMARK    2  A    between atoms: O_1  and  C_21
REMARK    3  A    between atoms: O_3  and  C_22
REMARK    4  A    between atoms: O_3  and  C_30
REMARK    5  A    between atoms: N_5  and  C_19
REMARK    6  A    between atoms: N_7  and  C_26
REMARK    7  A    between atoms: C_9  and  C_15
REMARK    8  A    between atoms: C_10  and  C_16
REMARK    9  A    between atoms: C_18  and  C_20
REMARK                            x       y       z     vdW  Elec       q    Type
REMARK                         _______ _______ _______ _____ _____    ______ ____
ROOT
ATOM      4  N   UNL     1      -3.873  -9.104  10.472  0.00  0.00    -0.296 NA
ATOM      8  C   UNL     1      -5.733 -10.884  10.074  0.00  0.00    +0.002 C 
ATOM      9  C   UNL     1      -6.296  -9.680  10.878  0.00  0.00    +0.055 C 
ATOM     10  C   UNL     1      -3.379 -10.451  10.862  0.00  0.00    +0.095 C 
ATOM     11  C   UNL     1      -4.528 -11.483  10.830  0.00  0.00    +0.026 C 
ATOM     12  C   UNL     1      -5.197 -10.318   8.742  0.00  0.00    +0.019 C 
ATOM     13  C   UNL     1      -5.093  -8.766  11.249  0.00  0.00    +0.094 C 
ATOM     14  C   UNL     1      -4.237  -9.152   9.037  0.00  0.00    +0.085 C 
ENDROOT
BRANCH   9  15
ATOM      5  N   UNL     1      -8.547 -10.067  11.985  0.00  0.00    -0.270 N 
ATOM      6  N   UNL     1      -9.153 -10.327  13.156  0.00  0.00    -0.171 NA
ATOM     15  C   UNL     1      -7.190  -9.971  12.076  0.00  0.00    +0.044 A 
ATOM     17  C   UNL     1      -6.886 -10.183  13.398  0.00  0.00    +0.053 A 
ATOM     18  C   UNL     1      -8.133 -10.398  14.015  0.00  0.00    +0.096 A 
ATOM     19  C   UNL     1      -9.350  -9.915  10.794  0.00  0.00    +0.172 C 
BRANCH  18  20
ATOM     20  C   UNL     1      -8.368 -10.667  15.411  0.00  0.00    +0.044 A 
ATOM     22  C   UNL     1      -8.772  -9.652  16.277  0.00  0.00    +0.129 A 
ATOM     23  C   UNL     1      -8.187 -11.964  15.892  0.00  0.00    +0.014 A 
ATOM     24  C   UNL     1      -8.995  -9.933  17.625  0.00  0.00    +0.046 A 
ATOM     25  C   UNL     1      -8.410 -12.245  17.239  0.00  0.00    +0.001 A 
ATOM     27  C   UNL     1      -8.814 -11.230  18.106  0.00  0.00    +0.004 A 
BRANCH  22   3
ATOM      3  O   UNL     1      -8.958  -8.375  15.835  0.00  0.00    -0.494 OA
ATOM     30  C   UNL     1     -10.068  -7.661  16.371  0.00  0.00    +0.277 C 
ENDBRANCH  22   3
ENDBRANCH  18  20
ENDBRANCH   9  15
BRANCH  10  16
ATOM     16  C   UNL     1      -2.661 -10.441  12.213  0.00  0.00    +0.252 C 
BRANCH  16   1
ATOM      1  O   UNL     1      -3.328 -11.337  13.080  0.00  0.00    -0.449 OA
BRANCH   1  21
ATOM      2  O   UNL     1      -2.279 -10.490  14.927  0.00  0.00    -0.226 OA
ATOM      7  N   UNL     1      -4.342 -11.588  15.075  0.00  0.00    -0.251 N 
ATOM     21  C   UNL     1      -3.231 -11.081  14.430  0.00  0.00    +0.405 C 
ATOM     34  H   UNL     1      -5.031 -12.049  14.487  0.00  0.00    +0.158 HD
BRANCH   7  26
ATOM     26  C   UNL     1      -4.643 -11.544  16.455  0.00  0.00    +0.036 A 
ATOM     28  C   UNL     1      -4.566 -12.706  17.222  0.00  0.00    +0.023 A 
ATOM     29  C   UNL     1      -5.017 -10.339  17.049  0.00  0.00    +0.023 A 
ATOM     31  C   UNL     1      -4.863 -12.663  18.585  0.00  0.00    +0.002 A 
ATOM     32  C   UNL     1      -5.315 -10.296  18.412  0.00  0.00    +0.002 A 
ATOM     33  C   UNL     1      -5.238 -11.458  19.180  0.00  0.00    +0.000 A 
ENDBRANCH   7  26
ENDBRANCH   1  21
ENDBRANCH  16   1
ENDBRANCH  10  16
TORSDOF 7
ENDMDL
MODEL 10
REMARK VINA RESULT:      -5.3     24.471     27.800
REMARK  Name = 40780112
REMARK  9 active torsions:
REMARK  status: ('A' for Active; 'I' for Inactive)
REMARK    1  A    between atoms: O_1  and  C_16
REMARK    2  A    between atoms: O_1  and  C_21
REMARK    3  A    between atoms: O_3  and  C_22
REMARK    4  A    between atoms: O_3  and  C_30
REMARK    5  A    between atoms: N_5  and  C_19
REMARK    6  A    between atoms: N_7  and  C_26
REMARK    7  A    between atoms: C_9  and  C_15
REMARK    8  A    between atoms: C_10  and  C_16
REMARK    9  A    between atoms: C_18  and  C_20
REMARK                            x       y       z     vdW  Elec       q    Type
REMARK                         _______ _______ _______ _____ _____    ______ ____
ROOT
ATOM      4  N   UNL     1      14.633   3.995  -0.439  0.00  0.00    -0.296 NA
ATOM      8  C   UNL     1      15.042   6.568  -0.438  0.00  0.00    +0.002 C 
ATOM      9  C   UNL     1      15.374   5.964   0.955  0.00  0.00    +0.055 C 
ATOM     10  C   UNL     1      13.445   4.699  -0.989  0.00  0.00    +0.095 C 
ATOM     11  C   UNL     1      13.582   6.226  -0.806  0.00  0.00    +0.026 C 
ATOM     12  C   UNL     1      15.947   5.851  -1.461  0.00  0.00    +0.019 C 
ATOM     13  C   UNL     1      14.917   4.477   0.937  0.00  0.00    +0.094 C 
ATOM     14  C   UNL     1      15.795   4.329  -1.295  0.00  0.00    +0.085 C 
ENDROOT
BRANCH   9  15
ATOM      5  N   UNL     1      15.637   7.637   2.845  0.00  0.00    -0.270 N 
ATOM      6  N   UNL     1      15.028   8.172   3.916  0.00  0.00    -0.171 NA
ATOM     15  C   UNL     1      14.888   6.702   2.194  0.00  0.00    +0.044 A 
ATOM     17  C   UNL     1      13.705   6.619   2.887  0.00  0.00    +0.053 A 
ATOM     18  C   UNL     1      13.847   7.546   3.937  0.00  0.00    +0.096 A 
ATOM     19  C   UNL     1      16.969   8.076   2.498  0.00  0.00    +0.172 C 
BRANCH  18  20
ATOM     20  C   UNL     1      12.879   7.844   4.960  0.00  0.00    +0.044 A 
ATOM     22  C   UNL     1      12.040   8.953   4.851  0.00  0.00    +0.129 A 
ATOM     23  C   UNL     1      12.787   7.006   6.071  0.00  0.00    +0.014 A 
ATOM     24  C   UNL     1      11.110   9.224   5.854  0.00  0.00    +0.046 A 
ATOM     25  C   UNL     1      11.856   7.277   7.074  0.00  0.00    +0.001 A 
ATOM     27  C   UNL     1      11.017   8.386   6.966  0.00  0.00    +0.004 A 
BRANCH  22   3
ATOM      3  O   UNL     1      12.107   9.790   3.776  0.00  0.00    -0.494 OA
ATOM     30  C   UNL     1      10.921   9.943   3.003  0.00  0.00    +0.277 C 
ENDBRANCH  22   3
ENDBRANCH  18  20
ENDBRANCH   9  15
BRANCH  10  16
ATOM     16  C   UNL     1      12.132   4.171  -0.405  0.00  0.00    +0.252 C 
BRANCH  16   1
ATOM      1  O   UNL     1      11.448   5.250   0.201  0.00  0.00    -0.449 OA
BRANCH   1  21
ATOM      2  O   UNL     1       9.837   3.954   1.178  0.00  0.00    -0.226 OA
ATOM      7  N   UNL     1      10.667   5.881   2.217  0.00  0.00    -0.251 N 
ATOM     21  C   UNL     1      10.570   4.936   1.215  0.00  0.00    +0.405 C 
ATOM     34  H   UNL     1      11.340   6.629   2.065  0.00  0.00    +0.158 HD
BRANCH   7  26
ATOM     26  C   UNL     1       9.948   5.939   3.432  0.00  0.00    +0.036 A 
ATOM     28  C   UNL     1       9.012   6.951   3.640  0.00  0.00    +0.023 A 
ATOM     29  C   UNL     1      10.175   4.984   4.423  0.00  0.00    +0.023 A 
ATOM     31  C   UNL     1       8.302   7.008   4.840  0.00  0.00    +0.002 A 
ATOM     32  C   UNL     1       9.466   5.041   5.623  0.00  0.00    +0.002 A 
ATOM     33  C   UNL     1       8.528   6.054   5.832  0.00  0.00    +0.000 A 
ENDBRANCH   7  26
ENDBRANCH   1  21
ENDBRANCH  16   1
ENDBRANCH  10  16
TORSDOF 7
ENDMDL
