MODEL 1
REMARK VINA RESULT:      -7.0      0.000      0.000
REMARK  Name = 7051380
REMARK  6 active torsions:
REMARK  status: ('A' for Active; 'I' for Inactive)
REMARK    1  A    between atoms: S_1  and  N_10
REMARK    2  A    between atoms: S_1  and  C_24
REMARK    3  A    between atoms: O_6  and  C_31
REMARK    4  A    between atoms: O_6  and  C_35
REMARK    5  A    between atoms: N_9  and  C_23
REMARK    6  A    between atoms: N_10  and  C_21
REMARK                            x       y       z     vdW  Elec       q    Type
REMARK                         _______ _______ _______ _____ _____    ______ ____
ROOT
ATOM      2  O   UNL     1      -4.549 -14.167  15.574  0.00  0.00    -0.266 OA
ATOM      3  O   UNL     1      -9.281 -11.886  15.588  0.00  0.00    -0.252 OA
ATOM      7  N   UNL     1      -7.985 -10.903  17.234  0.00  0.00    -0.284 N 
ATOM      8  N   UNL     1      -5.160 -12.363  16.938  0.00  0.00    -0.310 N 
ATOM      9  N   UNL     1      -8.312  -9.823  15.162  0.00  0.00    -0.269 N 
ATOM     11  C   UNL     1      -6.915 -12.543  18.791  0.00  0.00    +0.027 C 
ATOM     12  C   UNL     1      -5.822 -10.385  18.355  0.00  0.00    +0.054 C 
ATOM     13  C   UNL     1      -6.143 -11.405  19.445  0.00  0.00    +0.018 C 
ATOM     14  C   UNL     1      -8.215 -12.016  18.161  0.00  0.00    +0.114 C 
ATOM     15  C   UNL     1      -6.012 -13.231  17.760  0.00  0.00    +0.130 C 
ATOM     16  C   UNL     1      -7.131  -9.824  17.761  0.00  0.00    +0.119 C 
ATOM     17  C   UNL     1      -4.986 -11.008  17.252  0.00  0.00    +0.027 A 
ATOM     18  C   UNL     1      -4.111 -10.255  16.559  0.00  0.00    +0.024 A 
ATOM     19  C   UNL     1      -4.451 -12.981  15.887  0.00  0.00    +0.274 A 
ATOM     20  C   UNL     1      -8.576 -10.941  15.951  0.00  0.00    +0.306 C 
ATOM     21  C   UNL     1      -3.520 -12.094  15.145  0.00  0.00    +0.112 A 
ATOM     22  C   UNL     1      -3.353 -10.812  15.471  0.00  0.00    +0.031 A 
ATOM     36  H   UNL     1      -8.129  -8.940  15.625  0.00  0.00    +0.156 HD
ENDROOT
BRANCH   9  23
ATOM     23  C   UNL     1      -8.317  -9.754  13.747  0.00  0.00    +0.035 A 
ATOM     25  C   UNL     1      -9.524  -9.810  13.055  0.00  0.00    +0.027 A 
ATOM     26  C   UNL     1      -7.115  -9.632  13.056  0.00  0.00    +0.027 A 
ATOM     27  C   UNL     1      -9.528  -9.743  11.662  0.00  0.00    +0.047 A 
ATOM     28  C   UNL     1      -7.119  -9.565  11.663  0.00  0.00    +0.047 A 
ATOM     31  C   UNL     1      -8.326  -9.621  10.965  0.00  0.00    +0.120 A 
BRANCH  31   6
ATOM      6  O   UNL     1      -8.330  -9.553   9.606  0.00  0.00    -0.495 OA
ATOM     35  C   UNL     1      -7.402  -8.656   8.998  0.00  0.00    +0.277 C 
ENDBRANCH  31   6
ENDBRANCH   9  23
BRANCH  21  10
ATOM     10  N   UNL     1      -2.766 -12.599  14.071  0.00  0.00    -0.211 N 
ATOM     37  H   UNL     1      -1.812 -12.213  14.037  0.00  0.00    +0.174 HD
BRANCH  10   1
ATOM      1  S   UNL     1      -3.538 -12.699  12.568  0.00  0.00    +0.072 S 
ATOM      4  O   UNL     1      -3.007 -13.823  11.820  0.00  0.00    -0.150 OA
ATOM      5  O   UNL     1      -4.970 -12.550  12.743  0.00  0.00    -0.150 OA
BRANCH   1  24
ATOM     24  C   UNL     1      -2.944 -11.225  11.794  0.00  0.00    +0.108 A 
ATOM     29  C   UNL     1      -3.722 -10.606  10.831  0.00  0.00    +0.029 A 
ATOM     30  C   UNL     1      -1.712 -10.716  12.166  0.00  0.00    +0.029 A 
ATOM     32  C   UNL     1      -3.254  -9.443  10.221  0.00  0.00    +0.002 A 
ATOM     33  C   UNL     1      -1.242  -9.553  11.555  0.00  0.00    +0.002 A 
ATOM     34  C   UNL     1      -2.014  -8.917  10.582  0.00  0.00    +0.000 A 
ENDBRANCH   1  24
ENDBRANCH  10   1
ENDBRANCH  21  10
TORSDOF 5
ENDMDL
MODEL 2
REMARK VINA RESULT:      -7.0      2.468      3.077
REMARK  Name = 7051380
REMARK  6 active torsions:
REMARK  status: ('A' for Active; 'I' for Inactive)
REMARK    1  A    between atoms: S_1  and  N_10
REMARK    2  A    between atoms: S_1  and  C_24
REMARK    3  A    between atoms: O_6  and  C_31
REMARK    4  A    between atoms: O_6  and  C_35
REMARK    5  A    between atoms: N_9  and  C_23
REMARK    6  A    between atoms: N_10  and  C_21
REMARK                            x       y       z     vdW  Elec       q    Type
REMARK                         _______ _______ _______ _____ _____    ______ ____
ROOT
ATOM      2  O   UNL     1      -7.015 -13.415  14.580  0.00  0.00    -0.266 OA
ATOM      3  O   UNL     1      -9.852 -11.003  18.286  0.00  0.00    -0.252 OA
ATOM      7  N   UNL     1      -7.608 -10.745  18.791  0.00  0.00    -0.284 N 
ATOM      8  N   UNL     1      -6.119 -12.174  16.355  0.00  0.00    -0.310 N 
ATOM      9  N   UNL     1      -8.822  -8.985  17.791  0.00  0.00    -0.269 N 
ATOM     11  C   UNL     1      -6.322 -12.890  18.802  0.00  0.00    +0.027 C 
ATOM     12  C   UNL     1      -5.180 -10.788  18.239  0.00  0.00    +0.054 C 
ATOM     13  C   UNL     1      -5.031 -12.105  18.996  0.00  0.00    +0.018 C 
ATOM     14  C   UNL     1      -7.519 -12.097  19.351  0.00  0.00    +0.114 C 
ATOM     15  C   UNL     1      -6.484 -13.223  17.314  0.00  0.00    +0.130 C 
ATOM     16  C   UNL     1      -6.352  -9.975  18.827  0.00  0.00    +0.119 C 
ATOM     17  C   UNL     1      -5.418 -11.030  16.760  0.00  0.00    +0.027 A 
ATOM     18  C   UNL     1      -4.989 -10.136  15.850  0.00  0.00    +0.024 A 
ATOM     19  C   UNL     1      -6.417 -12.424  14.999  0.00  0.00    +0.274 A 
ATOM     20  C   UNL     1      -8.844 -10.292  18.277  0.00  0.00    +0.306 C 
ATOM     21  C   UNL     1      -5.939 -11.390  14.046  0.00  0.00    +0.112 A 
ATOM     22  C   UNL     1      -5.256 -10.318  14.449  0.00  0.00    +0.031 A 
ATOM     36  H   UNL     1      -8.154  -8.335  18.191  0.00  0.00    +0.156 HD
ENDROOT
BRANCH   9  23
ATOM     23  C   UNL     1      -9.677  -8.421  16.813  0.00  0.00    +0.035 A 
ATOM     25  C   UNL     1      -9.725  -8.971  15.535  0.00  0.00    +0.027 A 
ATOM     26  C   UNL     1     -10.465  -7.320  17.135  0.00  0.00    +0.027 A 
ATOM     27  C   UNL     1     -10.567  -8.414  14.572  0.00  0.00    +0.047 A 
ATOM     28  C   UNL     1     -11.307  -6.763  16.173  0.00  0.00    +0.047 A 
ATOM     31  C   UNL     1     -11.358  -7.310  14.891  0.00  0.00    +0.120 A 
BRANCH  31   6
ATOM      6  O   UNL     1     -12.182  -6.769  13.952  0.00  0.00    -0.495 OA
ATOM     35  C   UNL     1     -12.348  -5.352  13.973  0.00  0.00    +0.277 C 
ENDBRANCH  31   6
ENDBRANCH   9  23
BRANCH  21  10
ATOM     10  N   UNL     1      -6.187 -11.528  12.669  0.00  0.00    -0.211 N 
ATOM     37  H   UNL     1      -7.172 -11.749  12.460  0.00  0.00    +0.174 HD
BRANCH  10   1
ATOM      1  S   UNL     1      -5.062 -12.416  11.768  0.00  0.00    +0.072 S 
ATOM      4  O   UNL     1      -4.403 -13.383  12.626  0.00  0.00    -0.150 OA
ATOM      5  O   UNL     1      -5.662 -12.838  10.517  0.00  0.00    -0.150 OA
BRANCH   1  24
ATOM     24  C   UNL     1      -3.879 -11.158  11.388  0.00  0.00    +0.108 A 
ATOM     29  C   UNL     1      -4.203 -10.186  10.457  0.00  0.00    +0.029 A 
ATOM     30  C   UNL     1      -2.652 -11.169  12.028  0.00  0.00    +0.029 A 
ATOM     32  C   UNL     1      -3.270  -9.194  10.157  0.00  0.00    +0.002 A 
ATOM     33  C   UNL     1      -1.719 -10.177  11.728  0.00  0.00    +0.002 A 
ATOM     34  C   UNL     1      -2.028  -9.189  10.792  0.00  0.00    +0.000 A 
ENDBRANCH   1  24
ENDBRANCH  10   1
ENDBRANCH  21  10
TORSDOF 5
ENDMDL
MODEL 3
REMARK VINA RESULT:      -6.8     30.547     33.491
REMARK  Name = 7051380
REMARK  6 active torsions:
REMARK  status: ('A' for Active; 'I' for Inactive)
REMARK    1  A    between atoms: S_1  and  N_10
REMARK    2  A    between atoms: S_1  and  C_24
REMARK    3  A    between atoms: O_6  and  C_31
REMARK    4  A    between atoms: O_6  and  C_35
REMARK    5  A    between atoms: N_9  and  C_23
REMARK    6  A    between atoms: N_10  and  C_21
REMARK                            x       y       z     vdW  Elec       q    Type
REMARK                         _______ _______ _______ _____ _____    ______ ____
ROOT
ATOM      2  O   UNL     1      20.755   4.047  20.386  0.00  0.00    -0.266 OA
ATOM      3  O   UNL     1      22.309   2.287  25.086  0.00  0.00    -0.252 OA
ATOM      7  N   UNL     1      24.186   2.722  23.805  0.00  0.00    -0.284 N 
ATOM      8  N   UNL     1      22.986   3.880  21.082  0.00  0.00    -0.310 N 
ATOM      9  N   UNL     1      23.482   4.252  25.458  0.00  0.00    -0.269 N 
ATOM     11  C   UNL     1      24.141   1.646  21.547  0.00  0.00    +0.027 C 
ATOM     12  C   UNL     1      25.377   3.745  21.871  0.00  0.00    +0.054 C 
ATOM     13  C   UNL     1      25.420   2.386  21.179  0.00  0.00    +0.018 C 
ATOM     14  C   UNL     1      24.050   1.460  23.071  0.00  0.00    +0.114 C 
ATOM     15  C   UNL     1      22.940   2.416  20.987  0.00  0.00    +0.130 C 
ATOM     16  C   UNL     1      25.335   3.553  23.402  0.00  0.00    +0.119 C 
ATOM     17  C   UNL     1      24.170   4.550  21.424  0.00  0.00    +0.027 A 
ATOM     18  C   UNL     1      24.226   5.894  21.392  0.00  0.00    +0.024 A 
ATOM     19  C   UNL     1      21.817   4.577  20.712  0.00  0.00    +0.274 A 
ATOM     20  C   UNL     1      23.244   3.041  24.809  0.00  0.00    +0.306 C 
ATOM     21  C   UNL     1      21.935   6.057  20.718  0.00  0.00    +0.112 A 
ATOM     22  C   UNL     1      23.075   6.675  21.028  0.00  0.00    +0.031 A 
ATOM     36  H   UNL     1      24.437   4.588  25.514  0.00  0.00    +0.156 HD
ENDROOT
BRANCH   9  23
ATOM     23  C   UNL     1      22.531   5.072  26.114  0.00  0.00    +0.035 A 
ATOM     25  C   UNL     1      22.157   4.786  27.424  0.00  0.00    +0.027 A 
ATOM     26  C   UNL     1      21.976   6.159  25.445  0.00  0.00    +0.027 A 
ATOM     27  C   UNL     1      21.220   5.593  28.069  0.00  0.00    +0.047 A 
ATOM     28  C   UNL     1      21.039   6.966  26.090  0.00  0.00    +0.047 A 
ATOM     31  C   UNL     1      20.661   6.684  27.402  0.00  0.00    +0.120 A 
BRANCH  31   6
ATOM      6  O   UNL     1      19.748   7.473  28.032  0.00  0.00    -0.495 OA
ATOM     35  C   UNL     1      19.807   8.873  27.765  0.00  0.00    +0.277 C 
ENDBRANCH  31   6
ENDBRANCH   9  23
BRANCH  21  10
ATOM     10  N   UNL     1      20.830   6.857  20.376  0.00  0.00    -0.211 N 
ATOM     37  H   UNL     1      21.080   7.639  19.754  0.00  0.00    +0.174 HD
BRANCH  10   1
ATOM      1  S   UNL     1      19.758   7.264  21.621  0.00  0.00    +0.072 S 
ATOM      4  O   UNL     1      19.833   6.271  22.676  0.00  0.00    -0.150 OA
ATOM      5  O   UNL     1      19.887   8.675  21.934  0.00  0.00    -0.150 OA
BRANCH   1  24
ATOM     24  C   UNL     1      18.205   7.046  20.803  0.00  0.00    +0.108 A 
ATOM     29  C   UNL     1      18.106   6.121  19.778  0.00  0.00    +0.029 A 
ATOM     30  C   UNL     1      17.119   7.803  21.203  0.00  0.00    +0.029 A 
ATOM     32  C   UNL     1      16.882   5.949  19.133  0.00  0.00    +0.002 A 
ATOM     33  C   UNL     1      15.894   7.632  20.558  0.00  0.00    +0.002 A 
ATOM     34  C   UNL     1      15.776   6.704  19.522  0.00  0.00    +0.000 A 
ENDBRANCH   1  24
ENDBRANCH  10   1
ENDBRANCH  21  10
TORSDOF 5
ENDMDL
MODEL 4
REMARK VINA RESULT:      -6.7     24.607     28.186
REMARK  Name = 7051380
REMARK  6 active torsions:
REMARK  status: ('A' for Active; 'I' for Inactive)
REMARK    1  A    between atoms: S_1  and  N_10
REMARK    2  A    between atoms: S_1  and  C_24
REMARK    3  A    between atoms: O_6  and  C_31
REMARK    4  A    between atoms: O_6  and  C_35
REMARK    5  A    between atoms: N_9  and  C_23
REMARK    6  A    between atoms: N_10  and  C_21
REMARK                            x       y       z     vdW  Elec       q    Type
REMARK                         _______ _______ _______ _____ _____    ______ ____
ROOT
ATOM      2  O   UNL     1      14.296   6.569   6.958  0.00  0.00    -0.266 OA
ATOM      3  O   UNL     1      10.163   4.013   4.961  0.00  0.00    -0.252 OA
ATOM      7  N   UNL     1       9.504   6.162   5.511  0.00  0.00    -0.284 N 
ATOM      8  N   UNL     1      12.191   7.524   6.572  0.00  0.00    -0.310 N 
ATOM      9  N   UNL     1       9.978   5.590   3.271  0.00  0.00    -0.269 N 
ATOM     11  C   UNL     1      10.087   6.830   7.850  0.00  0.00    +0.027 C 
ATOM     12  C   UNL     1       9.936   8.545   6.097  0.00  0.00    +0.054 C 
ATOM     13  C   UNL     1       9.607   8.245   7.557  0.00  0.00    +0.018 C 
ATOM     14  C   UNL     1       9.377   5.822   6.931  0.00  0.00    +0.114 C 
ATOM     15  C   UNL     1      11.611   6.777   7.696  0.00  0.00    +0.130 C 
ATOM     16  C   UNL     1       9.182   7.561   5.177  0.00  0.00    +0.119 C 
ATOM     17  C   UNL     1      11.428   8.443   5.839  0.00  0.00    +0.027 A 
ATOM     18  C   UNL     1      12.005   9.204   4.890  0.00  0.00    +0.024 A 
ATOM     19  C   UNL     1      13.571   7.347   6.339  0.00  0.00    +0.274 A 
ATOM     20  C   UNL     1       9.912   5.164   4.597  0.00  0.00    +0.306 C 
ATOM     21  C   UNL     1      14.144   8.196   5.264  0.00  0.00    +0.112 A 
ATOM     22  C   UNL     1      13.405   9.079   4.590  0.00  0.00    +0.031 A 
ATOM     36  H   UNL     1       9.371   6.348   2.979  0.00  0.00    +0.156 HD
ENDROOT
BRANCH   9  23
ATOM     23  C   UNL     1      10.776   5.044   2.236  0.00  0.00    +0.035 A 
ATOM     25  C   UNL     1      12.134   4.827   2.451  0.00  0.00    +0.027 A 
ATOM     26  C   UNL     1      10.198   4.728   1.010  0.00  0.00    +0.027 A 
ATOM     27  C   UNL     1      12.920   4.290   1.431  0.00  0.00    +0.047 A 
ATOM     28  C   UNL     1      10.984   4.192  -0.010  0.00  0.00    +0.047 A 
ATOM     31  C   UNL     1      12.345   3.973   0.200  0.00  0.00    +0.120 A 
BRANCH  31   6
ATOM      6  O   UNL     1      13.111   3.447  -0.794  0.00  0.00    -0.495 OA
ATOM     35  C   UNL     1      12.436   2.717  -1.817  0.00  0.00    +0.277 C 
ENDBRANCH  31   6
ENDBRANCH   9  23
BRANCH  21  10
ATOM     10  N   UNL     1      15.508   8.099   4.936  0.00  0.00    -0.211 N 
ATOM     37  H   UNL     1      15.932   7.215   5.253  0.00  0.00    +0.174 HD
BRANCH  10   1
ATOM      1  S   UNL     1      16.463   9.471   5.198  0.00  0.00    +0.072 S 
ATOM      4  O   UNL     1      16.459  10.304   4.009  0.00  0.00    -0.150 OA
ATOM      5  O   UNL     1      16.150  10.045   6.493  0.00  0.00    -0.150 OA
BRANCH   1  24
ATOM     24  C   UNL     1      18.067   8.737   5.320  0.00  0.00    +0.108 A 
ATOM     29  C   UNL     1      18.771   8.844   6.507  0.00  0.00    +0.029 A 
ATOM     30  C   UNL     1      18.589   8.069   4.226  0.00  0.00    +0.029 A 
ATOM     32  C   UNL     1      20.035   8.265   6.603  0.00  0.00    +0.002 A 
ATOM     33  C   UNL     1      19.854   7.490   4.321  0.00  0.00    +0.002 A 
ATOM     34  C   UNL     1      20.578   7.589   5.510  0.00  0.00    +0.000 A 
ENDBRANCH   1  24
ENDBRANCH  10   1
ENDBRANCH  21  10
TORSDOF 5
ENDMDL
MODEL 5
REMARK VINA RESULT:      -6.7     24.429     27.593
REMARK  Name = 7051380
REMARK  6 active torsions:
REMARK  status: ('A' for Active; 'I' for Inactive)
REMARK    1  A    between atoms: S_1  and  N_10
REMARK    2  A    between atoms: S_1  and  C_24
REMARK    3  A    between atoms: O_6  and  C_31
REMARK    4  A    between atoms: O_6  and  C_35
REMARK    5  A    between atoms: N_9  and  C_23
REMARK    6  A    between atoms: N_10  and  C_21
REMARK                            x       y       z     vdW  Elec       q    Type
REMARK                         _______ _______ _______ _____ _____    ______ ____
ROOT
ATOM      2  O   UNL     1       9.120   8.259   2.868  0.00  0.00    -0.266 OA
ATOM      3  O   UNL     1      12.500   9.668   6.634  0.00  0.00    -0.252 OA
ATOM      7  N   UNL     1      11.277   7.853   7.384  0.00  0.00    -0.284 N 
ATOM      8  N   UNL     1       9.410   7.126   4.897  0.00  0.00    -0.310 N 
ATOM      9  N   UNL     1      13.475   7.565   6.576  0.00  0.00    -0.269 N 
ATOM     11  C   UNL     1       8.802   8.142   7.165  0.00  0.00    +0.027 C 
ATOM     12  C   UNL     1       9.778   5.889   7.063  0.00  0.00    +0.054 C 
ATOM     13  C   UNL     1       8.602   6.698   7.605  0.00  0.00    +0.018 C 
ATOM     14  C   UNL     1      10.125   8.694   7.721  0.00  0.00    +0.114 C 
ATOM     15  C   UNL     1       8.747   8.209   5.634  0.00  0.00    +0.130 C 
ATOM     16  C   UNL     1      11.099   6.416   7.663  0.00  0.00    +0.119 C 
ATOM     17  C   UNL     1       9.841   5.962   5.548  0.00  0.00    +0.027 A 
ATOM     18  C   UNL     1      10.339   4.930   4.841  0.00  0.00    +0.024 A 
ATOM     19  C   UNL     1       9.495   7.271   3.497  0.00  0.00    +0.274 A 
ATOM     20  C   UNL     1      12.433   8.453   6.837  0.00  0.00    +0.306 C 
ATOM     21  C   UNL     1      10.075   6.110   2.775  0.00  0.00    +0.112 A 
ATOM     22  C   UNL     1      10.461   5.003   3.410  0.00  0.00    +0.031 A 
ATOM     36  H   UNL     1      13.541   6.723   7.137  0.00  0.00    +0.156 HD
ENDROOT
BRANCH   9  23
ATOM     23  C   UNL     1      14.515   7.721   5.627  0.00  0.00    +0.035 A 
ATOM     25  C   UNL     1      14.311   7.335   4.305  0.00  0.00    +0.027 A 
ATOM     26  C   UNL     1      15.737   8.261   6.021  0.00  0.00    +0.027 A 
ATOM     27  C   UNL     1      15.336   7.489   3.372  0.00  0.00    +0.047 A 
ATOM     28  C   UNL     1      16.761   8.414   5.088  0.00  0.00    +0.047 A 
ATOM     31  C   UNL     1      16.561   8.029   3.763  0.00  0.00    +0.120 A 
BRANCH  31   6
ATOM      6  O   UNL     1      17.560   8.181   2.851  0.00  0.00    -0.495 OA
ATOM     35  C   UNL     1      17.217   8.010   1.477  0.00  0.00    +0.277 C 
ENDBRANCH  31   6
ENDBRANCH   9  23
BRANCH  21  10
ATOM     10  N   UNL     1      10.218   6.145   1.377  0.00  0.00    -0.211 N 
ATOM     37  H   UNL     1       9.511   6.737   0.918  0.00  0.00    +0.174 HD
BRANCH  10   1
ATOM      1  S   UNL     1      10.518   4.674   0.595  0.00  0.00    +0.072 S 
ATOM      4  O   UNL     1       9.941   3.586   1.363  0.00  0.00    -0.150 OA
ATOM      5  O   UNL     1      10.226   4.805  -0.820  0.00  0.00    -0.150 OA
BRANCH   1  24
ATOM     24  C   UNL     1      12.274   4.564   0.764  0.00  0.00    +0.108 A 
ATOM     29  C   UNL     1      12.825   3.457   1.386  0.00  0.00    +0.029 A 
ATOM     30  C   UNL     1      13.066   5.586   0.271  0.00  0.00    +0.029 A 
ATOM     32  C   UNL     1      14.210   3.370   1.519  0.00  0.00    +0.002 A 
ATOM     33  C   UNL     1      14.452   5.500   0.404  0.00  0.00    +0.002 A 
ATOM     34  C   UNL     1      15.024   4.391   1.029  0.00  0.00    +0.000 A 
ENDBRANCH   1  24
ENDBRANCH  10   1
ENDBRANCH  21  10
TORSDOF 5
ENDMDL
MODEL 6
REMARK VINA RESULT:      -6.5      2.492      7.353
REMARK  Name = 7051380
REMARK  6 active torsions:
REMARK  status: ('A' for Active; 'I' for Inactive)
REMARK    1  A    between atoms: S_1  and  N_10
REMARK    2  A    between atoms: S_1  and  C_24
REMARK    3  A    between atoms: O_6  and  C_31
REMARK    4  A    between atoms: O_6  and  C_35
REMARK    5  A    between atoms: N_9  and  C_23
REMARK    6  A    between atoms: N_10  and  C_21
REMARK                            x       y       z     vdW  Elec       q    Type
REMARK                         _______ _______ _______ _____ _____    ______ ____
ROOT
ATOM      2  O   UNL     1      -7.862 -12.691  11.785  0.00  0.00    -0.266 OA
ATOM      3  O   UNL     1      -3.838 -13.264  15.114  0.00  0.00    -0.252 OA
ATOM      7  N   UNL     1      -3.229 -11.748  13.476  0.00  0.00    -0.284 N 
ATOM      8  N   UNL     1      -5.854 -11.488  11.677  0.00  0.00    -0.310 N 
ATOM      9  N   UNL     1      -3.900 -11.000  15.611  0.00  0.00    -0.269 N 
ATOM     11  C   UNL     1      -3.601 -12.574  11.144  0.00  0.00    +0.027 C 
ATOM     12  C   UNL     1      -3.709 -10.164  11.614  0.00  0.00    +0.054 C 
ATOM     13  C   UNL     1      -3.220 -11.201  10.606  0.00  0.00    +0.018 C 
ATOM     14  C   UNL     1      -2.942 -12.815  12.513  0.00  0.00    +0.114 C 
ATOM     15  C   UNL     1      -5.129 -12.677  11.215  0.00  0.00    +0.130 C 
ATOM     16  C   UNL     1      -3.008 -10.380  12.971  0.00  0.00    +0.119 C 
ATOM     17  C   UNL     1      -5.214 -10.247  11.798  0.00  0.00    +0.027 A 
ATOM     18  C   UNL     1      -5.919  -9.143  12.110  0.00  0.00    +0.024 A 
ATOM     19  C   UNL     1      -7.241 -11.634  11.891  0.00  0.00    +0.274 A 
ATOM     20  C   UNL     1      -3.679 -12.090  14.771  0.00  0.00    +0.306 C 
ATOM     21  C   UNL     1      -7.959 -10.387  12.255  0.00  0.00    +0.112 A 
ATOM     22  C   UNL     1      -7.336  -9.212  12.347  0.00  0.00    +0.031 A 
ATOM     36  H   UNL     1      -3.362 -10.155  15.453  0.00  0.00    +0.156 HD
ENDROOT
BRANCH   9  23
ATOM     23  C   UNL     1      -4.773 -10.942  16.725  0.00  0.00    +0.035 A 
ATOM     25  C   UNL     1      -6.011 -10.319  16.603  0.00  0.00    +0.027 A 
ATOM     26  C   UNL     1      -4.387 -11.507  17.938  0.00  0.00    +0.027 A 
ATOM     27  C   UNL     1      -6.870 -10.261  17.700  0.00  0.00    +0.047 A 
ATOM     28  C   UNL     1      -5.246 -11.449  19.035  0.00  0.00    +0.047 A 
ATOM     31  C   UNL     1      -6.487 -10.826  18.917  0.00  0.00    +0.120 A 
BRANCH  31   6
ATOM      6  O   UNL     1      -7.326 -10.772  19.987  0.00  0.00    -0.495 OA
ATOM     35  C   UNL     1      -8.682 -11.158  19.769  0.00  0.00    +0.277 C 
ENDBRANCH  31   6
ENDBRANCH   9  23
BRANCH  21  10
ATOM     10  N   UNL     1      -9.343 -10.414  12.502  0.00  0.00    -0.211 N 
ATOM     37  H   UNL     1      -9.838  -9.608  12.091  0.00  0.00    +0.174 HD
BRANCH  10   1
ATOM      1  S   UNL     1      -9.840 -10.818  14.069  0.00  0.00    +0.072 S 
ATOM      4  O   UNL     1     -11.056 -11.608  14.007  0.00  0.00    -0.150 OA
ATOM      5  O   UNL     1      -8.702 -11.287  14.836  0.00  0.00    -0.150 OA
BRANCH   1  24
ATOM     24  C   UNL     1     -10.279  -9.224  14.696  0.00  0.00    +0.108 A 
ATOM     29  C   UNL     1      -9.581  -8.706  15.773  0.00  0.00    +0.029 A 
ATOM     30  C   UNL     1     -11.313  -8.525  14.098  0.00  0.00    +0.029 A 
ATOM     32  C   UNL     1      -9.928  -7.450  16.268  0.00  0.00    +0.002 A 
ATOM     33  C   UNL     1     -11.661  -7.268  14.593  0.00  0.00    +0.002 A 
ATOM     34  C   UNL     1     -10.967  -6.731  15.679  0.00  0.00    +0.000 A 
ENDBRANCH   1  24
ENDBRANCH  10   1
ENDBRANCH  21  10
TORSDOF 5
ENDMDL
MODEL 7
REMARK VINA RESULT:      -6.4      2.183      2.876
REMARK  Name = 7051380
REMARK  6 active torsions:
REMARK  status: ('A' for Active; 'I' for Inactive)
REMARK    1  A    between atoms: S_1  and  N_10
REMARK    2  A    between atoms: S_1  and  C_24
REMARK    3  A    between atoms: O_6  and  C_31
REMARK    4  A    between atoms: O_6  and  C_35
REMARK    5  A    between atoms: N_9  and  C_23
REMARK    6  A    between atoms: N_10  and  C_21
REMARK                            x       y       z     vdW  Elec       q    Type
REMARK                         _______ _______ _______ _____ _____    ______ ____
ROOT
ATOM      2  O   UNL     1      -5.097 -14.031  15.919  0.00  0.00    -0.266 OA
ATOM      3  O   UNL     1      -9.277 -11.356  14.193  0.00  0.00    -0.252 OA
ATOM      7  N   UNL     1      -8.519 -10.363  16.141  0.00  0.00    -0.284 N 
ATOM      8  N   UNL     1      -5.937 -12.079  16.905  0.00  0.00    -0.310 N 
ATOM      9  N   UNL     1      -8.003  -9.425  14.038  0.00  0.00    -0.269 N 
ATOM     11  C   UNL     1      -8.225 -11.961  18.043  0.00  0.00    +0.027 C 
ATOM     12  C   UNL     1      -6.823  -9.947  17.917  0.00  0.00    +0.054 C 
ATOM     13  C   UNL     1      -7.603 -10.846  18.873  0.00  0.00    +0.018 C 
ATOM     14  C   UNL     1      -9.168 -11.375  16.979  0.00  0.00    +0.114 C 
ATOM     15  C   UNL     1      -7.105 -12.803  17.419  0.00  0.00    +0.130 C 
ATOM     16  C   UNL     1      -7.783  -9.323  16.882  0.00  0.00    +0.119 C 
ATOM     17  C   UNL     1      -5.734 -10.723  17.200  0.00  0.00    +0.027 A 
ATOM     18  C   UNL     1      -4.600 -10.106  16.820  0.00  0.00    +0.024 A 
ATOM     19  C   UNL     1      -4.984 -12.837  16.193  0.00  0.00    +0.274 A 
ATOM     20  C   UNL     1      -8.639 -10.450  14.736  0.00  0.00    +0.306 C 
ATOM     21  C   UNL     1      -3.766 -12.095  15.781  0.00  0.00    +0.112 A 
ATOM     22  C   UNL     1      -3.582 -10.810  16.087  0.00  0.00    +0.031 A 
ATOM     36  H   UNL     1      -7.894  -8.527  14.497  0.00  0.00    +0.156 HD
ENDROOT
BRANCH   9  23
ATOM     23  C   UNL     1      -7.520  -9.467  12.707  0.00  0.00    +0.035 A 
ATOM     25  C   UNL     1      -6.149  -9.491  12.468  0.00  0.00    +0.027 A 
ATOM     26  C   UNL     1      -8.419  -9.485  11.644  0.00  0.00    +0.027 A 
ATOM     27  C   UNL     1      -5.674  -9.532  11.158  0.00  0.00    +0.047 A 
ATOM     28  C   UNL     1      -7.944  -9.526  10.334  0.00  0.00    +0.047 A 
ATOM     31  C   UNL     1      -6.571  -9.550  10.090  0.00  0.00    +0.120 A 
BRANCH  31   6
ATOM      6  O   UNL     1      -6.108  -9.592   8.811  0.00  0.00    -0.495 OA
ATOM     35  C   UNL     1      -4.722  -9.315   8.613  0.00  0.00    +0.277 C 
ENDBRANCH  31   6
ENDBRANCH   9  23
BRANCH  21  10
ATOM     10  N   UNL     1      -2.751 -12.746  15.057  0.00  0.00    -0.211 N 
ATOM     37  H   UNL     1      -1.825 -12.655  15.498  0.00  0.00    +0.174 HD
BRANCH  10   1
ATOM      1  S   UNL     1      -2.752 -12.545  13.376  0.00  0.00    +0.072 S 
ATOM      4  O   UNL     1      -4.119 -12.470  12.894  0.00  0.00    -0.150 OA
ATOM      5  O   UNL     1      -1.790 -11.524  13.006  0.00  0.00    -0.150 OA
BRANCH   1  24
ATOM     24  C   UNL     1      -2.095 -14.102  12.858  0.00  0.00    +0.108 A 
ATOM     29  C   UNL     1      -2.667 -14.750  11.777  0.00  0.00    +0.029 A 
ATOM     30  C   UNL     1      -1.022 -14.644  13.544  0.00  0.00    +0.029 A 
ATOM     32  C   UNL     1      -2.148 -15.979  11.368  0.00  0.00    +0.002 A 
ATOM     33  C   UNL     1      -0.504 -15.873  13.136  0.00  0.00    +0.002 A 
ATOM     34  C   UNL     1      -1.068 -16.541  12.048  0.00  0.00    +0.000 A 
ENDBRANCH   1  24
ENDBRANCH  10   1
ENDBRANCH  21  10
TORSDOF 5
ENDMDL
MODEL 8
REMARK VINA RESULT:      -6.4      2.958      6.580
REMARK  Name = 7051380
REMARK  6 active torsions:
REMARK  status: ('A' for Active; 'I' for Inactive)
REMARK    1  A    between atoms: S_1  and  N_10
REMARK    2  A    between atoms: S_1  and  C_24
REMARK    3  A    between atoms: O_6  and  C_31
REMARK    4  A    between atoms: O_6  and  C_35
REMARK    5  A    between atoms: N_9  and  C_23
REMARK    6  A    between atoms: N_10  and  C_21
REMARK                            x       y       z     vdW  Elec       q    Type
REMARK                         _______ _______ _______ _____ _____    ______ ____
ROOT
ATOM      2  O   UNL     1      -8.585  -8.672  16.465  0.00  0.00    -0.266 OA
ATOM      3  O   UNL     1      -3.503  -9.994  16.601  0.00  0.00    -0.252 OA
ATOM      7  N   UNL     1      -4.752 -11.792  17.353  0.00  0.00    -0.284 N 
ATOM      8  N   UNL     1      -7.768 -10.787  17.057  0.00  0.00    -0.310 N 
ATOM      9  N   UNL     1      -3.901 -11.760  15.152  0.00  0.00    -0.269 N 
ATOM     11  C   UNL     1      -6.377 -11.207  19.162  0.00  0.00    +0.027 C 
ATOM     12  C   UNL     1      -6.870 -13.070  17.637  0.00  0.00    +0.054 C 
ATOM     13  C   UNL     1      -6.948 -12.618  19.093  0.00  0.00    +0.018 C 
ATOM     14  C   UNL     1      -4.916 -11.197  18.682  0.00  0.00    +0.114 C 
ATOM     15  C   UNL     1      -7.263 -10.269  18.334  0.00  0.00    +0.130 C 
ATOM     16  C   UNL     1      -5.398 -13.104  17.176  0.00  0.00    +0.119 C 
ATOM     17  C   UNL     1      -7.667 -12.147  16.733  0.00  0.00    +0.027 A 
ATOM     18  C   UNL     1      -8.239 -12.625  15.612  0.00  0.00    +0.024 A 
ATOM     19  C   UNL     1      -8.449  -9.872  16.227  0.00  0.00    +0.274 A 
ATOM     20  C   UNL     1      -4.014 -11.093  16.371  0.00  0.00    +0.306 C 
ATOM     21  C   UNL     1      -9.038 -10.454  14.994  0.00  0.00    +0.112 A 
ATOM     22  C   UNL     1      -8.947 -11.755  14.713  0.00  0.00    +0.031 A 
ATOM     36  H   UNL     1      -3.937 -12.773  15.153  0.00  0.00    +0.156 HD
ENDROOT
BRANCH   9  23
ATOM     23  C   UNL     1      -3.684 -11.181  13.877  0.00  0.00    +0.035 A 
ATOM     25  C   UNL     1      -2.402 -11.158  13.335  0.00  0.00    +0.027 A 
ATOM     26  C   UNL     1      -4.755 -10.637  13.173  0.00  0.00    +0.027 A 
ATOM     27  C   UNL     1      -2.189 -10.588  12.081  0.00  0.00    +0.047 A 
ATOM     28  C   UNL     1      -4.542 -10.066  11.918  0.00  0.00    +0.047 A 
ATOM     31  C   UNL     1      -3.259 -10.041  11.372  0.00  0.00    +0.120 A 
BRANCH  31   6
ATOM      6  O   UNL     1      -3.052  -9.487  10.147  0.00  0.00    -0.495 OA
ATOM     35  C   UNL     1      -4.168  -9.435   9.260  0.00  0.00    +0.277 C 
ENDBRANCH  31   6
ENDBRANCH   9  23
BRANCH  21  10
ATOM     10  N   UNL     1      -9.732  -9.635  14.086  0.00  0.00    -0.211 N 
ATOM     37  H   UNL     1      -9.327  -8.691  14.011  0.00  0.00    +0.174 HD
BRANCH  10   1
ATOM      1  S   UNL     1     -11.423  -9.673  14.150  0.00  0.00    +0.072 S 
ATOM      4  O   UNL     1     -11.944 -10.289  12.945  0.00  0.00    -0.150 OA
ATOM      5  O   UNL     1     -11.852 -10.142  15.454  0.00  0.00    -0.150 OA
BRANCH   1  24
ATOM     24  C   UNL     1     -11.794  -7.946  14.062  0.00  0.00    +0.108 A 
ATOM     29  C   UNL     1     -11.517  -7.139  15.152  0.00  0.00    +0.029 A 
ATOM     30  C   UNL     1     -12.354  -7.435  12.904  0.00  0.00    +0.029 A 
ATOM     32  C   UNL     1     -11.810  -5.778  15.081  0.00  0.00    +0.002 A 
ATOM     33  C   UNL     1     -12.647  -6.073  12.834  0.00  0.00    +0.002 A 
ATOM     34  C   UNL     1     -12.375  -5.244  13.923  0.00  0.00    +0.000 A 
ENDBRANCH   1  24
ENDBRANCH  10   1
ENDBRANCH  21  10
TORSDOF 5
ENDMDL
MODEL 9
REMARK VINA RESULT:      -6.3     25.340     28.614
REMARK  Name = 7051380
REMARK  6 active torsions:
REMARK  status: ('A' for Active; 'I' for Inactive)
REMARK    1  A    between atoms: S_1  and  N_10
REMARK    2  A    between atoms: S_1  and  C_24
REMARK    3  A    between atoms: O_6  and  C_31
REMARK    4  A    between atoms: O_6  and  C_35
REMARK    5  A    between atoms: N_9  and  C_23
REMARK    6  A    between atoms: N_10  and  C_21
REMARK                            x       y       z     vdW  Elec       q    Type
REMARK                         _______ _______ _______ _____ _____    ______ ____
ROOT
ATOM      2  O   UNL     1      11.366   9.490   5.456  0.00  0.00    -0.266 OA
ATOM      3  O   UNL     1      14.857   8.789   1.593  0.00  0.00    -0.252 OA
ATOM      7  N   UNL     1      15.977   8.730   3.617  0.00  0.00    -0.284 N 
ATOM      8  N   UNL     1      13.646   9.051   5.776  0.00  0.00    -0.310 N 
ATOM      9  N   UNL     1      15.455   6.731   2.477  0.00  0.00    -0.269 N 
ATOM     11  C   UNL     1      15.492  10.687   5.098  0.00  0.00    +0.027 C 
ATOM     12  C   UNL     1      16.090   8.522   6.097  0.00  0.00    +0.054 C 
ATOM     13  C   UNL     1      16.294  10.030   6.214  0.00  0.00    +0.018 C 
ATOM     14  C   UNL     1      15.978  10.192   3.726  0.00  0.00    +0.114 C 
ATOM     15  C   UNL     1      14.002  10.400   5.320  0.00  0.00    +0.130 C 
ATOM     16  C   UNL     1      16.624   8.024   4.737  0.00  0.00    +0.119 C 
ATOM     17  C   UNL     1      14.623   8.156   6.233  0.00  0.00    +0.027 A 
ATOM     18  C   UNL     1      14.267   6.968   6.757  0.00  0.00    +0.024 A 
ATOM     19  C   UNL     1      12.270   8.742   5.827  0.00  0.00    +0.274 A 
ATOM     20  C   UNL     1      15.379   8.123   2.490  0.00  0.00    +0.306 C 
ATOM     21  C   UNL     1      11.943   7.408   6.392  0.00  0.00    +0.112 A 
ATOM     22  C   UNL     1      12.886   6.579   6.841  0.00  0.00    +0.031 A 
ATOM     36  H   UNL     1      16.229   6.287   2.959  0.00  0.00    +0.156 HD
ENDROOT
BRANCH   9  23
ATOM     23  C   UNL     1      14.584   5.833   1.812  0.00  0.00    +0.035 A 
ATOM     25  C   UNL     1      13.206   5.982   1.937  0.00  0.00    +0.027 A 
ATOM     26  C   UNL     1      15.113   4.804   1.036  0.00  0.00    +0.027 A 
ATOM     27  C   UNL     1      12.350   5.097   1.282  0.00  0.00    +0.047 A 
ATOM     28  C   UNL     1      14.256   3.919   0.381  0.00  0.00    +0.047 A 
ATOM     31  C   UNL     1      12.875   4.065   0.504  0.00  0.00    +0.120 A 
BRANCH  31   6
ATOM      6  O   UNL     1      12.040   3.203  -0.137  0.00  0.00    -0.495 OA
ATOM     35  C   UNL     1      12.162   3.114  -1.556  0.00  0.00    +0.277 C 
ENDBRANCH  31   6
ENDBRANCH   9  23
BRANCH  21  10
ATOM     10  N   UNL     1      10.604   6.988   6.484  0.00  0.00    -0.211 N 
ATOM     37  H   UNL     1      10.339   6.707   7.439  0.00  0.00    +0.174 HD
BRANCH  10   1
ATOM      1  S   UNL     1      10.033   5.962   5.265  0.00  0.00    +0.072 S 
ATOM      4  O   UNL     1      11.152   5.424   4.515  0.00  0.00    -0.150 OA
ATOM      5  O   UNL     1       9.023   5.074   5.809  0.00  0.00    -0.150 OA
BRANCH   1  24
ATOM     24  C   UNL     1       9.207   7.123   4.218  0.00  0.00    +0.108 A 
ATOM     29  C   UNL     1       9.586   7.225   2.891  0.00  0.00    +0.029 A 
ATOM     30  C   UNL     1       8.196   7.908   4.746  0.00  0.00    +0.029 A 
ATOM     32  C   UNL     1       8.934   8.140   2.066  0.00  0.00    +0.002 A 
ATOM     33  C   UNL     1       7.545   8.824   3.921  0.00  0.00    +0.002 A 
ATOM     34  C   UNL     1       7.914   8.940   2.580  0.00  0.00    +0.000 A 
ENDBRANCH   1  24
ENDBRANCH  10   1
ENDBRANCH  21  10
TORSDOF 5
ENDMDL
MODEL 10
REMARK VINA RESULT:      -6.2     28.079     30.342
REMARK  Name = 7051380
REMARK  6 active torsions:
REMARK  status: ('A' for Active; 'I' for Inactive)
REMARK    1  A    between atoms: S_1  and  N_10
REMARK    2  A    between atoms: S_1  and  C_24
REMARK    3  A    between atoms: O_6  and  C_31
REMARK    4  A    between atoms: O_6  and  C_35
REMARK    5  A    between atoms: N_9  and  C_23
REMARK    6  A    between atoms: N_10  and  C_21
REMARK                            x       y       z     vdW  Elec       q    Type
REMARK                         _______ _______ _______ _____ _____    ______ ____
ROOT
ATOM      2  O   UNL     1      16.039   8.024  21.931  0.00  0.00    -0.266 OA
ATOM      3  O   UNL     1      13.623   7.523  17.293  0.00  0.00    -0.252 OA
ATOM      7  N   UNL     1      12.032   7.998  18.905  0.00  0.00    -0.284 N 
ATOM      8  N   UNL     1      13.750   8.372  21.570  0.00  0.00    -0.310 N 
ATOM      9  N   UNL     1      12.814   9.689  17.456  0.00  0.00    -0.269 N 
ATOM     11  C   UNL     1      12.139   6.500  20.905  0.00  0.00    +0.027 C 
ATOM     12  C   UNL     1      11.301   8.797  21.148  0.00  0.00    +0.054 C 
ATOM     13  C   UNL     1      11.080   7.353  21.590  0.00  0.00    +0.018 C 
ATOM     14  C   UNL     1      12.010   6.611  19.376  0.00  0.00    +0.114 C 
ATOM     15  C   UNL     1      13.525   6.932  21.399  0.00  0.00    +0.130 C 
ATOM     16  C   UNL     1      11.122   8.911  19.619  0.00  0.00    +0.119 C 
ATOM     17  C   UNL     1      12.685   9.284  21.537  0.00  0.00    +0.027 A 
ATOM     18  C   UNL     1      12.893  10.585  21.812  0.00  0.00    +0.024 A 
ATOM     19  C   UNL     1      15.067   8.777  21.872  0.00  0.00    +0.274 A 
ATOM     20  C   UNL     1      12.890   8.351  17.839  0.00  0.00    +0.306 C 
ATOM     21  C   UNL     1      15.237  10.227  22.142  0.00  0.00    +0.112 A 
ATOM     22  C   UNL     1      14.208  11.075  22.125  0.00  0.00    +0.031 A 
ATOM     36  H   UNL     1      11.942  10.184  17.608  0.00  0.00    +0.156 HD
ENDROOT
BRANCH   9  23
ATOM     23  C   UNL     1      13.819  10.455  16.815  0.00  0.00    +0.035 A 
ATOM     25  C   UNL     1      14.301  10.061  15.570  0.00  0.00    +0.027 A 
ATOM     26  C   UNL     1      14.319  11.597  17.434  0.00  0.00    +0.027 A 
ATOM     27  C   UNL     1      15.291  10.814  14.940  0.00  0.00    +0.047 A 
ATOM     28  C   UNL     1      15.310  12.350  16.804  0.00  0.00    +0.047 A 
ATOM     31  C   UNL     1      15.796  11.959  15.557  0.00  0.00    +0.120 A 
BRANCH  31   6
ATOM      6  O   UNL     1      16.760  12.695  14.941  0.00  0.00    -0.495 OA
ATOM     35  C   UNL     1      17.788  11.978  14.258  0.00  0.00    +0.277 C 
ENDBRANCH  31   6
ENDBRANCH   9  23
BRANCH  21  10
ATOM     10  N   UNL     1      16.508  10.747  22.445  0.00  0.00    -0.211 N 
ATOM     37  H   UNL     1      16.539  11.219  23.360  0.00  0.00    +0.174 HD
BRANCH  10   1
ATOM      1  S   UNL     1      17.322  11.563  21.205  0.00  0.00    +0.072 S 
ATOM      4  O   UNL     1      16.697  11.263  19.930  0.00  0.00    -0.150 OA
ATOM      5  O   UNL     1      17.556  12.939  21.599  0.00  0.00    -0.150 OA
BRANCH   1  24
ATOM     24  C   UNL     1      18.883  10.733  21.235  0.00  0.00    +0.108 A 
ATOM     29  C   UNL     1      19.001   9.541  21.928  0.00  0.00    +0.029 A 
ATOM     30  C   UNL     1      19.957  11.291  20.564  0.00  0.00    +0.029 A 
ATOM     32  C   UNL     1      20.232   8.886  21.950  0.00  0.00    +0.002 A 
ATOM     33  C   UNL     1      21.189  10.637  20.587  0.00  0.00    +0.002 A 
ATOM     34  C   UNL     1      21.326   9.434  21.281  0.00  0.00    +0.000 A 
ENDBRANCH   1  24
ENDBRANCH  10   1
ENDBRANCH  21  10
TORSDOF 5
ENDMDL
