MODEL 1
REMARK VINA RESULT:      -7.9      0.000      0.000
REMARK  Name = 51137369
REMARK  5 active torsions:
REMARK  status: ('A' for Active; 'I' for Inactive)
REMARK    1  A    between atoms: N_4  and  C_12
REMARK    2  A    between atoms: C_8  and  C_13
REMARK    3  A    between atoms: C_12  and  C_14
REMARK    4  A    between atoms: C_15  and  C_18
REMARK    5  A    between atoms: C_18  and  C_20
REMARK                            x       y       z     vdW  Elec       q    Type
REMARK                         _______ _______ _______ _____ _____    ______ ____
ROOT
ATOM      1  O   UNL     1     -15.353   2.503  28.971  0.00  0.00    -0.424 OA
ATOM      5  N   UNL     1     -16.305   0.552  28.434  0.00  0.00    -0.112 NA
ATOM      6  N   UNL     1     -15.325   0.304  29.377  0.00  0.00    -0.112 NA
ATOM     13  C   UNL     1     -16.286   1.847  28.228  0.00  0.00    +0.222 A 
ATOM     15  C   UNL     1     -14.796   1.470  29.661  0.00  0.00    +0.222 A 
ENDROOT
BRANCH  13   8
ATOM      4  N   UNL     1     -16.385   3.470  25.190  0.00  0.00    -0.297 NA
ATOM      8  C   UNL     1     -17.137   2.689  27.304  0.00  0.00    +0.092 C 
ATOM      9  C   UNL     1     -16.776   4.181  27.358  0.00  0.00    +0.029 C 
ATOM     10  C   UNL     1     -17.034   2.314  25.814  0.00  0.00    +0.097 C 
ATOM     11  C   UNL     1     -16.878   4.640  25.914  0.00  0.00    +0.085 C 
BRANCH   4  12
ATOM     12  C   UNL     1     -16.639   3.549  23.759  0.00  0.00    +0.119 C 
BRANCH  12  14
ATOM      2  O   UNL     1     -15.231   6.827  20.329  0.00  0.00    -0.453 OA
ATOM      3  O   UNL     1     -12.933   6.774  21.052  0.00  0.00    -0.453 OA
ATOM     14  C   UNL     1     -15.617   4.401  23.054  0.00  0.00    -0.030 A 
ATOM     16  C   UNL     1     -16.009   5.215  21.989  0.00  0.00    +0.054 A 
ATOM     17  C   UNL     1     -14.276   4.371  23.476  0.00  0.00    +0.009 A 
ATOM     19  C   UNL     1     -15.037   5.980  21.376  0.00  0.00    +0.167 A 
ATOM     21  C   UNL     1     -13.312   5.155  22.838  0.00  0.00    +0.050 A 
ATOM     22  C   UNL     1     -13.726   5.950  21.788  0.00  0.00    +0.166 A 
ATOM     26  C   UNL     1     -13.893   7.328  20.129  0.00  0.00    +0.466 C 
ENDBRANCH  12  14
ENDBRANCH   4  12
ENDBRANCH  13   8
BRANCH  15  18
ATOM     18  C   UNL     1     -13.715   1.805  30.598  0.00  0.00    +0.135 C 
BRANCH  18  20
ATOM      7  N   UNL     1     -15.005   2.037  34.056  0.00  0.00    -0.360 N 
ATOM     20  C   UNL     1     -14.182   2.182  32.000  0.00  0.00    -0.013 A 
ATOM     23  C   UNL     1     -14.151   3.479  32.584  0.00  0.00    +0.003 A 
ATOM     24  C   UNL     1     -14.673   3.360  33.874  0.00  0.00    +0.047 A 
ATOM     25  C   UNL     1     -14.712   1.316  32.929  0.00  0.00    +0.087 A 
ATOM     27  C   UNL     1     -13.729   4.746  32.137  0.00  0.00    +0.010 A 
ATOM     28  C   UNL     1     -14.793   4.450  34.743  0.00  0.00    +0.026 A 
ATOM     29  C   UNL     1     -13.843   5.846  32.995  0.00  0.00    +0.001 A 
ATOM     30  C   UNL     1     -14.367   5.698  34.278  0.00  0.00    +0.002 A 
ATOM     31  H   UNL     1     -15.406   1.653  34.902  0.00  0.00    +0.165 HD
ENDBRANCH  18  20
ENDBRANCH  15  18
TORSDOF 5
ENDMDL
MODEL 2
REMARK VINA RESULT:      -7.7     28.881     31.123
REMARK  Name = 51137369
REMARK  5 active torsions:
REMARK  status: ('A' for Active; 'I' for Inactive)
REMARK    1  A    between atoms: N_4  and  C_12
REMARK    2  A    between atoms: C_8  and  C_13
REMARK    3  A    between atoms: C_12  and  C_14
REMARK    4  A    between atoms: C_15  and  C_18
REMARK    5  A    between atoms: C_18  and  C_20
REMARK                            x       y       z     vdW  Elec       q    Type
REMARK                         _______ _______ _______ _____ _____    ______ ____
ROOT
ATOM      1  O   UNL     1      11.912   9.454  20.783  0.00  0.00    -0.424 OA
ATOM      5  N   UNL     1      10.930   7.705  21.775  0.00  0.00    -0.112 NA
ATOM      6  N   UNL     1      10.585   8.845  22.477  0.00  0.00    -0.112 NA
ATOM     13  C   UNL     1      11.704   8.108  20.796  0.00  0.00    +0.222 A 
ATOM     15  C   UNL     1      11.180   9.840  21.864  0.00  0.00    +0.222 A 
ENDROOT
BRANCH  13   8
ATOM      4  N   UNL     1      14.725   7.321  19.335  0.00  0.00    -0.297 NA
ATOM      8  C   UNL     1      12.378   7.304  19.706  0.00  0.00    +0.092 C 
ATOM      9  C   UNL     1      12.742   8.153  18.479  0.00  0.00    +0.029 C 
ATOM     10  C   UNL     1      13.699   6.634  20.125  0.00  0.00    +0.097 C 
ATOM     11  C   UNL     1      14.099   7.624  18.050  0.00  0.00    +0.085 C 
BRANCH   4  12
ATOM     12  C   UNL     1      15.943   6.537  19.195  0.00  0.00    +0.119 C 
BRANCH  12  14
ATOM      2  O   UNL     1      18.118   9.984  22.001  0.00  0.00    -0.453 OA
ATOM      3  O   UNL     1      19.973   8.544  22.539  0.00  0.00    -0.453 OA
ATOM     14  C   UNL     1      17.043   7.043  20.089  0.00  0.00    -0.030 A 
ATOM     16  C   UNL     1      16.978   8.342  20.599  0.00  0.00    +0.054 A 
ATOM     17  C   UNL     1      18.126   6.203  20.404  0.00  0.00    +0.009 A 
ATOM     19  C   UNL     1      18.010   8.761  21.416  0.00  0.00    +0.167 A 
ATOM     21  C   UNL     1      19.156   6.652  21.233  0.00  0.00    +0.050 A 
ATOM     22  C   UNL     1      19.069   7.939  21.723  0.00  0.00    +0.166 A 
ATOM     26  C   UNL     1      19.364   9.841  22.712  0.00  0.00    +0.466 C 
ENDBRANCH  12  14
ENDBRANCH   4  12
ENDBRANCH  13   8
BRANCH  15  18
ATOM     18  C   UNL     1      11.163  11.276  22.175  0.00  0.00    +0.135 C 
BRANCH  18  20
ATOM      7  N   UNL     1      11.760  12.168  25.714  0.00  0.00    -0.360 N 
ATOM     20  C   UNL     1      11.689  11.635  23.560  0.00  0.00    -0.013 A 
ATOM     23  C   UNL     1      13.054  11.778  23.938  0.00  0.00    +0.003 A 
ATOM     24  C   UNL     1      13.070  12.112  25.294  0.00  0.00    +0.047 A 
ATOM     25  C   UNL     1      10.918  11.880  24.673  0.00  0.00    +0.087 A 
ATOM     27  C   UNL     1      14.279  11.655  23.255  0.00  0.00    +0.010 A 
ATOM     28  C   UNL     1      14.256  12.330  26.004  0.00  0.00    +0.026 A 
ATOM     29  C   UNL     1      15.474  11.871  23.952  0.00  0.00    +0.001 A 
ATOM     30  C   UNL     1      15.460  12.203  25.305  0.00  0.00    +0.002 A 
ATOM     31  H   UNL     1      11.463  12.387  26.655  0.00  0.00    +0.165 HD
ENDBRANCH  18  20
ENDBRANCH  15  18
TORSDOF 5
ENDMDL
MODEL 3
REMARK VINA RESULT:      -7.5     28.788     31.075
REMARK  Name = 51137369
REMARK  5 active torsions:
REMARK  status: ('A' for Active; 'I' for Inactive)
REMARK    1  A    between atoms: N_4  and  C_12
REMARK    2  A    between atoms: C_8  and  C_13
REMARK    3  A    between atoms: C_12  and  C_14
REMARK    4  A    between atoms: C_15  and  C_18
REMARK    5  A    between atoms: C_18  and  C_20
REMARK                            x       y       z     vdW  Elec       q    Type
REMARK                         _______ _______ _______ _____ _____    ______ ____
ROOT
ATOM      1  O   UNL     1      12.041   9.641  20.411  0.00  0.00    -0.424 OA
ATOM      5  N   UNL     1      10.894   7.984  21.383  0.00  0.00    -0.112 NA
ATOM      6  N   UNL     1      10.574   9.163  22.030  0.00  0.00    -0.112 NA
ATOM     13  C   UNL     1      11.753   8.310  20.446  0.00  0.00    +0.222 A 
ATOM     15  C   UNL     1      11.265  10.102  21.430  0.00  0.00    +0.222 A 
ENDROOT
BRANCH  13   8
ATOM      4  N   UNL     1      14.806   7.358  19.163  0.00  0.00    -0.297 NA
ATOM      8  C   UNL     1      12.446   7.434  19.427  0.00  0.00    +0.092 C 
ATOM      9  C   UNL     1      12.892   8.213  18.180  0.00  0.00    +0.029 C 
ATOM     10  C   UNL     1      13.723   6.742  19.935  0.00  0.00    +0.097 C 
ATOM     11  C   UNL     1      14.248   7.620  17.838  0.00  0.00    +0.085 C 
BRANCH   4  12
ATOM     12  C   UNL     1      16.000   6.529  19.114  0.00  0.00    +0.119 C 
BRANCH  12  14
ATOM      2  O   UNL     1      20.235   6.033  21.627  0.00  0.00    -0.453 OA
ATOM      3  O   UNL     1      20.004   8.191  22.674  0.00  0.00    -0.453 OA
ATOM     14  C   UNL     1      17.055   7.006  20.076  0.00  0.00    -0.030 A 
ATOM     16  C   UNL     1      18.159   6.196  20.352  0.00  0.00    +0.054 A 
ATOM     17  C   UNL     1      16.921   8.265  20.687  0.00  0.00    +0.009 A 
ATOM     19  C   UNL     1      19.101   6.677  21.239  0.00  0.00    +0.167 A 
ATOM     21  C   UNL     1      17.890   8.729  21.580  0.00  0.00    +0.050 A 
ATOM     22  C   UNL     1      18.969   7.909  21.836  0.00  0.00    +0.166 A 
ATOM     26  C   UNL     1      20.802   6.997  22.536  0.00  0.00    +0.466 C 
ENDBRANCH  12  14
ENDBRANCH   4  12
ENDBRANCH  13   8
BRANCH  15  18
ATOM     18  C   UNL     1      11.314  11.545  21.699  0.00  0.00    +0.135 C 
BRANCH  18  20
ATOM      7  N   UNL     1      13.716  12.056  24.464  0.00  0.00    -0.360 N 
ATOM     20  C   UNL     1      12.104  11.936  22.944  0.00  0.00    -0.013 A 
ATOM     23  C   UNL     1      11.687  12.836  23.964  0.00  0.00    +0.003 A 
ATOM     24  C   UNL     1      12.717  12.893  24.905  0.00  0.00    +0.047 A 
ATOM     25  C   UNL     1      13.355  11.473  23.279  0.00  0.00    +0.087 A 
ATOM     27  C   UNL     1      10.529  13.608  24.178  0.00  0.00    +0.010 A 
ATOM     28  C   UNL     1      12.646  13.689  26.055  0.00  0.00    +0.026 A 
ATOM     29  C   UNL     1      10.444  14.408  25.323  0.00  0.00    +0.001 A 
ATOM     30  C   UNL     1      11.487  14.447  26.246  0.00  0.00    +0.002 A 
ATOM     31  H   UNL     1      14.592  11.897  24.945  0.00  0.00    +0.165 HD
ENDBRANCH  18  20
ENDBRANCH  15  18
TORSDOF 5
ENDMDL
MODEL 4
REMARK VINA RESULT:      -7.5      3.258      9.474
REMARK  Name = 51137369
REMARK  5 active torsions:
REMARK  status: ('A' for Active; 'I' for Inactive)
REMARK    1  A    between atoms: N_4  and  C_12
REMARK    2  A    between atoms: C_8  and  C_13
REMARK    3  A    between atoms: C_12  and  C_14
REMARK    4  A    between atoms: C_15  and  C_18
REMARK    5  A    between atoms: C_18  and  C_20
REMARK                            x       y       z     vdW  Elec       q    Type
REMARK                         _______ _______ _______ _____ _____    ______ ____
ROOT
ATOM      1  O   UNL     1     -16.488   4.473  23.629  0.00  0.00    -0.424 OA
ATOM      5  N   UNL     1     -17.875   4.266  21.886  0.00  0.00    -0.112 NA
ATOM      6  N   UNL     1     -16.644   4.671  21.406  0.00  0.00    -0.112 NA
ATOM     13  C   UNL     1     -17.738   4.163  23.187  0.00  0.00    +0.222 A 
ATOM     15  C   UNL     1     -15.866   4.779  22.457  0.00  0.00    +0.222 A 
ENDROOT
BRANCH  13   8
ATOM      4  N   UNL     1     -18.152   2.792  26.321  0.00  0.00    -0.297 NA
ATOM      8  C   UNL     1     -18.751   3.757  24.234  0.00  0.00    +0.092 C 
ATOM      9  C   UNL     1     -19.019   2.244  24.245  0.00  0.00    +0.029 C 
ATOM     10  C   UNL     1     -18.351   4.096  25.681  0.00  0.00    +0.097 C 
ATOM     11  C   UNL     1     -19.141   1.900  25.720  0.00  0.00    +0.085 C 
BRANCH   4  12
ATOM     12  C   UNL     1     -18.264   2.857  27.770  0.00  0.00    +0.119 C 
BRANCH  12  14
ATOM      2  O   UNL     1     -14.913  -0.388  29.423  0.00  0.00    -0.453 OA
ATOM      3  O   UNL     1     -13.478   1.349  30.276  0.00  0.00    -0.453 OA
ATOM     14  C   UNL     1     -16.972   2.488  28.450  0.00  0.00    -0.030 A 
ATOM     16  C   UNL     1     -16.616   1.144  28.578  0.00  0.00    +0.054 A 
ATOM     17  C   UNL     1     -16.134   3.502  28.948  0.00  0.00    +0.009 A 
ATOM     19  C   UNL     1     -15.421   0.855  29.207  0.00  0.00    +0.167 A 
ATOM     21  C   UNL     1     -14.930   3.183  29.579  0.00  0.00    +0.050 A 
ATOM     22  C   UNL     1     -14.602   1.847  29.694  0.00  0.00    +0.166 A 
ATOM     26  C   UNL     1     -13.680  -0.068  30.100  0.00  0.00    +0.466 C 
ENDBRANCH  12  14
ENDBRANCH   4  12
ENDBRANCH  13   8
BRANCH  15  18
ATOM     18  C   UNL     1     -14.453   5.173  22.540  0.00  0.00    +0.135 C 
BRANCH  18  20
ATOM      7  N   UNL     1     -14.363   8.867  22.404  0.00  0.00    -0.360 N 
ATOM     20  C   UNL     1     -14.190   6.657  22.308  0.00  0.00    -0.013 A 
ATOM     23  C   UNL     1     -13.167   7.219  21.493  0.00  0.00    +0.003 A 
ATOM     24  C   UNL     1     -13.298   8.607  21.572  0.00  0.00    +0.047 A 
ATOM     25  C   UNL     1     -14.909   7.695  22.854  0.00  0.00    +0.087 A 
ATOM     27  C   UNL     1     -12.141   6.679  20.695  0.00  0.00    +0.010 A 
ATOM     28  C   UNL     1     -12.450   9.486  20.889  0.00  0.00    +0.026 A 
ATOM     29  C   UNL     1     -11.284   7.545  20.005  0.00  0.00    +0.001 A 
ATOM     30  C   UNL     1     -11.438   8.926  20.102  0.00  0.00    +0.002 A 
ATOM     31  H   UNL     1     -14.693   9.792  22.649  0.00  0.00    +0.165 HD
ENDBRANCH  18  20
ENDBRANCH  15  18
TORSDOF 5
ENDMDL
MODEL 5
REMARK VINA RESULT:      -7.5     20.888     24.477
REMARK  Name = 51137369
REMARK  5 active torsions:
REMARK  status: ('A' for Active; 'I' for Inactive)
REMARK    1  A    between atoms: N_4  and  C_12
REMARK    2  A    between atoms: C_8  and  C_13
REMARK    3  A    between atoms: C_12  and  C_14
REMARK    4  A    between atoms: C_15  and  C_18
REMARK    5  A    between atoms: C_18  and  C_20
REMARK                            x       y       z     vdW  Elec       q    Type
REMARK                         _______ _______ _______ _____ _____    ______ ____
ROOT
ATOM      1  O   UNL     1      -2.429 -10.370  12.372  0.00  0.00    -0.424 OA
ATOM      5  N   UNL     1      -3.207 -12.446  12.073  0.00  0.00    -0.112 NA
ATOM      6  N   UNL     1      -3.448 -11.728  10.917  0.00  0.00    -0.112 NA
ATOM     13  C   UNL     1      -2.611 -11.614  12.894  0.00  0.00    +0.222 A 
ATOM     15  C   UNL     1      -2.978 -10.523  11.136  0.00  0.00    +0.222 A 
ENDROOT
BRANCH  13   8
ATOM      4  N   UNL     1      -3.245 -11.049  16.234  0.00  0.00    -0.297 NA
ATOM      8  C   UNL     1      -2.111 -11.843  14.303  0.00  0.00    +0.092 C 
ATOM      9  C   UNL     1      -1.410 -10.609  14.892  0.00  0.00    +0.029 C 
ATOM     10  C   UNL     1      -3.206 -12.198  15.325  0.00  0.00    +0.097 C 
ATOM     11  C   UNL     1      -1.865 -10.581  16.342  0.00  0.00    +0.085 C 
BRANCH   4  12
ATOM     12  C   UNL     1      -3.828 -11.377  17.526  0.00  0.00    +0.119 C 
BRANCH  12  14
ATOM      2  O   UNL     1      -8.262 -11.180  19.716  0.00  0.00    -0.453 OA
ATOM      3  O   UNL     1      -9.141  -9.663  18.065  0.00  0.00    -0.453 OA
ATOM     14  C   UNL     1      -5.251 -10.897  17.639  0.00  0.00    -0.030 A 
ATOM     16  C   UNL     1      -6.047 -11.334  18.700  0.00  0.00    +0.054 A 
ATOM     17  C   UNL     1      -5.764 -10.011  16.676  0.00  0.00    +0.009 A 
ATOM     19  C   UNL     1      -7.344 -10.866  18.762  0.00  0.00    +0.167 A 
ATOM     21  C   UNL     1      -7.080  -9.552  16.762  0.00  0.00    +0.050 A 
ATOM     22  C   UNL     1      -7.846  -9.999  17.819  0.00  0.00    +0.166 A 
ATOM     26  C   UNL     1      -9.398 -10.414  19.269  0.00  0.00    +0.466 C 
ENDBRANCH  12  14
ENDBRANCH   4  12
ENDBRANCH  13   8
BRANCH  15  18
ATOM     18  C   UNL     1      -2.961  -9.349  10.253  0.00  0.00    +0.135 C 
BRANCH  18  20
ATOM      7  N   UNL     1      -6.261  -8.065   9.187  0.00  0.00    -0.360 N 
ATOM     20  C   UNL     1      -4.301  -9.020   9.605  0.00  0.00    -0.013 A 
ATOM     23  C   UNL     1      -4.871  -9.654   8.466  0.00  0.00    +0.003 A 
ATOM     24  C   UNL     1      -6.100  -9.037   8.225  0.00  0.00    +0.047 A 
ATOM     25  C   UNL     1      -5.179  -8.047  10.026  0.00  0.00    +0.087 A 
ATOM     27  C   UNL     1      -4.458 -10.698   7.616  0.00  0.00    +0.010 A 
ATOM     28  C   UNL     1      -6.940  -9.412   7.170  0.00  0.00    +0.026 A 
ATOM     29  C   UNL     1      -5.288 -11.085   6.557  0.00  0.00    +0.001 A 
ATOM     30  C   UNL     1      -6.509 -10.451   6.340  0.00  0.00    +0.002 A 
ATOM     31  H   UNL     1      -7.062  -7.453   9.261  0.00  0.00    +0.165 HD
ENDBRANCH  18  20
ENDBRANCH  15  18
TORSDOF 5
ENDMDL
MODEL 6
REMARK VINA RESULT:      -7.5     20.559     22.667
REMARK  Name = 51137369
REMARK  5 active torsions:
REMARK  status: ('A' for Active; 'I' for Inactive)
REMARK    1  A    between atoms: N_4  and  C_12
REMARK    2  A    between atoms: C_8  and  C_13
REMARK    3  A    between atoms: C_12  and  C_14
REMARK    4  A    between atoms: C_15  and  C_18
REMARK    5  A    between atoms: C_18  and  C_20
REMARK                            x       y       z     vdW  Elec       q    Type
REMARK                         _______ _______ _______ _____ _____    ______ ____
ROOT
ATOM      1  O   UNL     1      -3.167 -11.456  14.598  0.00  0.00    -0.424 OA
ATOM      5  N   UNL     1      -1.387 -10.107  14.720  0.00  0.00    -0.112 NA
ATOM      6  N   UNL     1      -1.924 -10.222  15.989  0.00  0.00    -0.112 NA
ATOM     13  C   UNL     1      -2.144 -10.843  13.942  0.00  0.00    +0.222 A 
ATOM     15  C   UNL     1      -2.960 -11.018  15.870  0.00  0.00    +0.222 A 
ENDROOT
BRANCH  13   8
ATOM      4  N   UNL     1      -3.400 -10.007  10.843  0.00  0.00    -0.297 NA
ATOM      8  C   UNL     1      -2.037 -11.098  12.455  0.00  0.00    +0.092 C 
ATOM      9  C   UNL     1      -3.138 -12.033  11.932  0.00  0.00    +0.029 C 
ATOM     10  C   UNL     1      -2.142  -9.839  11.576  0.00  0.00    +0.097 C 
ATOM     11  C   UNL     1      -3.521 -11.440  10.587  0.00  0.00    +0.085 C 
BRANCH   4  12
ATOM     12  C   UNL     1      -3.449  -9.214   9.625  0.00  0.00    +0.119 C 
BRANCH  12  14
ATOM      2  O   UNL     1      -8.272  -8.107   9.589  0.00  0.00    -0.453 OA
ATOM      3  O   UNL     1      -8.614  -9.139   7.439  0.00  0.00    -0.453 OA
ATOM     14  C   UNL     1      -4.823  -9.214   9.009  0.00  0.00    -0.030 A 
ATOM     16  C   UNL     1      -5.886  -8.614   9.687  0.00  0.00    +0.054 A 
ATOM     17  C   UNL     1      -5.022  -9.815   7.754  0.00  0.00    +0.009 A 
ATOM     19  C   UNL     1      -7.126  -8.637   9.082  0.00  0.00    +0.167 A 
ATOM     21  C   UNL     1      -6.288  -9.824   7.163  0.00  0.00    +0.050 A 
ATOM     22  C   UNL     1      -7.321  -9.226   7.854  0.00  0.00    +0.166 A 
ATOM     26  C   UNL     1      -9.211  -8.429   8.543  0.00  0.00    +0.466 C 
ENDBRANCH  12  14
ENDBRANCH   4  12
ENDBRANCH  13   8
BRANCH  15  18
ATOM     18  C   UNL     1      -3.900 -11.490  16.895  0.00  0.00    +0.135 C 
BRANCH  18  20
ATOM      7  N   UNL     1      -6.832  -9.272  16.493  0.00  0.00    -0.360 N 
ATOM     20  C   UNL     1      -5.224 -10.735  16.942  0.00  0.00    -0.013 A 
ATOM     23  C   UNL     1      -6.320 -10.998  17.811  0.00  0.00    +0.003 A 
ATOM     24  C   UNL     1      -7.315 -10.066  17.508  0.00  0.00    +0.047 A 
ATOM     25  C   UNL     1      -5.569  -9.668  16.144  0.00  0.00    +0.087 A 
ATOM     27  C   UNL     1      -6.561 -11.942  18.828  0.00  0.00    +0.010 A 
ATOM     28  C   UNL     1      -8.545 -10.032  18.175  0.00  0.00    +0.026 A 
ATOM     29  C   UNL     1      -7.786 -11.919  19.504  0.00  0.00    +0.001 A 
ATOM     30  C   UNL     1      -8.761 -10.978  19.181  0.00  0.00    +0.002 A 
ATOM     31  H   UNL     1      -7.338  -8.507  16.067  0.00  0.00    +0.165 HD
ENDBRANCH  18  20
ENDBRANCH  15  18
TORSDOF 5
ENDMDL
MODEL 7
REMARK VINA RESULT:      -7.3     30.708     33.519
REMARK  Name = 51137369
REMARK  5 active torsions:
REMARK  status: ('A' for Active; 'I' for Inactive)
REMARK    1  A    between atoms: N_4  and  C_12
REMARK    2  A    between atoms: C_8  and  C_13
REMARK    3  A    between atoms: C_12  and  C_14
REMARK    4  A    between atoms: C_15  and  C_18
REMARK    5  A    between atoms: C_18  and  C_20
REMARK                            x       y       z     vdW  Elec       q    Type
REMARK                         _______ _______ _______ _____ _____    ______ ____
ROOT
ATOM      1  O   UNL     1      14.548   9.782  17.026  0.00  0.00    -0.424 OA
ATOM      5  N   UNL     1      13.187   8.903  15.483  0.00  0.00    -0.112 NA
ATOM      6  N   UNL     1      13.186   8.065  16.582  0.00  0.00    -0.112 NA
ATOM     13  C   UNL     1      13.996   9.891  15.787  0.00  0.00    +0.222 A 
ATOM     15  C   UNL     1      13.993   8.616  17.457  0.00  0.00    +0.222 A 
ENDROOT
BRANCH  13   8
ATOM      4  N   UNL     1      16.587  11.994  14.929  0.00  0.00    -0.297 NA
ATOM      8  C   UNL     1      14.385  11.103  14.970  0.00  0.00    +0.092 C 
ATOM      9  C   UNL     1      14.484  12.382  15.816  0.00  0.00    +0.029 C 
ATOM     10  C   UNL     1      15.748  10.993  14.264  0.00  0.00    +0.097 C 
ATOM     11  C   UNL     1      15.695  13.105  15.254  0.00  0.00    +0.085 C 
BRANCH   4  12
ATOM     12  C   UNL     1      17.720  12.405  14.114  0.00  0.00    +0.119 C 
BRANCH  12  14
ATOM      2  O   UNL     1      22.196  10.305  14.325  0.00  0.00    -0.453 OA
ATOM      3  O   UNL     1      22.653  11.219  16.507  0.00  0.00    -0.453 OA
ATOM     14  C   UNL     1      19.034  12.106  14.787  0.00  0.00    -0.030 A 
ATOM     16  C   UNL     1      19.976  11.304  14.140  0.00  0.00    +0.054 A 
ATOM     17  C   UNL     1      19.300  12.640  16.060  0.00  0.00    +0.009 A 
ATOM     19  C   UNL     1      21.166  11.059  14.796  0.00  0.00    +0.167 A 
ATOM     21  C   UNL     1      20.513  12.378  16.701  0.00  0.00    +0.050 A 
ATOM     22  C   UNL     1      21.427  11.581  16.041  0.00  0.00    +0.166 A 
ATOM     26  C   UNL     1      23.135  10.411  15.415  0.00  0.00    +0.466 C 
ENDBRANCH  12  14
ENDBRANCH   4  12
ENDBRANCH  13   8
BRANCH  15  18
ATOM     18  C   UNL     1      14.367   8.161  18.802  0.00  0.00    +0.135 C 
BRANCH  18  20
ATOM      7  N   UNL     1      11.662   6.388  20.596  0.00  0.00    -0.360 N 
ATOM     20  C   UNL     1      13.200   7.688  19.663  0.00  0.00    -0.013 A 
ATOM     23  C   UNL     1      12.430   8.482  20.558  0.00  0.00    +0.003 A 
ATOM     24  C   UNL     1      11.472   7.643  21.130  0.00  0.00    +0.047 A 
ATOM     25  C   UNL     1      12.704   6.405  19.708  0.00  0.00    +0.087 A 
ATOM     27  C   UNL     1      12.455   9.839  20.936  0.00  0.00    +0.010 A 
ATOM     28  C   UNL     1      10.535   8.094  22.066  0.00  0.00    +0.026 A 
ATOM     29  C   UNL     1      11.524  10.305  21.871  0.00  0.00    +0.001 A 
ATOM     30  C   UNL     1      10.579   9.444  22.426  0.00  0.00    +0.002 A 
ATOM     31  H   UNL     1      11.111   5.572  20.827  0.00  0.00    +0.165 HD
ENDBRANCH  18  20
ENDBRANCH  15  18
TORSDOF 5
ENDMDL
MODEL 8
REMARK VINA RESULT:      -7.3      2.497      9.769
REMARK  Name = 51137369
REMARK  5 active torsions:
REMARK  status: ('A' for Active; 'I' for Inactive)
REMARK    1  A    between atoms: N_4  and  C_12
REMARK    2  A    between atoms: C_8  and  C_13
REMARK    3  A    between atoms: C_12  and  C_14
REMARK    4  A    between atoms: C_15  and  C_18
REMARK    5  A    between atoms: C_18  and  C_20
REMARK                            x       y       z     vdW  Elec       q    Type
REMARK                         _______ _______ _______ _____ _____    ______ ____
ROOT
ATOM      1  O   UNL     1     -16.196   4.445  24.472  0.00  0.00    -0.424 OA
ATOM      5  N   UNL     1     -16.391   2.922  22.844  0.00  0.00    -0.112 NA
ATOM      6  N   UNL     1     -15.639   3.975  22.357  0.00  0.00    -0.112 NA
ATOM     13  C   UNL     1     -16.694   3.239  24.080  0.00  0.00    +0.222 A 
ATOM     15  C   UNL     1     -15.551   4.840  23.340  0.00  0.00    +0.222 A 
ENDROOT
BRANCH  13   8
ATOM      4  N   UNL     1     -16.901   2.336  27.400  0.00  0.00    -0.297 NA
ATOM      8  C   UNL     1     -17.497   2.468  25.104  0.00  0.00    +0.092 C 
ATOM      9  C   UNL     1     -16.877   1.104  25.440  0.00  0.00    +0.029 C 
ATOM     10  C   UNL     1     -17.656   3.173  26.463  0.00  0.00    +0.097 C 
ATOM     11  C   UNL     1     -17.083   0.962  26.938  0.00  0.00    +0.085 C 
BRANCH   4  12
ATOM     12  C   UNL     1     -17.320   2.524  28.780  0.00  0.00    +0.119 C 
BRANCH  12  14
ATOM      2  O   UNL     1     -14.953   5.454  31.990  0.00  0.00    -0.453 OA
ATOM      3  O   UNL     1     -13.074   3.954  32.155  0.00  0.00    -0.453 OA
ATOM     14  C   UNL     1     -16.162   2.877  29.676  0.00  0.00    -0.030 A 
ATOM     16  C   UNL     1     -16.188   4.068  30.404  0.00  0.00    +0.054 A 
ATOM     17  C   UNL     1     -15.066   2.002  29.772  0.00  0.00    +0.009 A 
ATOM     19  C   UNL     1     -15.104   4.348  31.213  0.00  0.00    +0.167 A 
ATOM     21  C   UNL     1     -13.982   2.308  30.599  0.00  0.00    +0.050 A 
ATOM     22  C   UNL     1     -14.032   3.492  31.307  0.00  0.00    +0.166 A 
ATOM     26  C   UNL     1     -13.665   5.198  32.585  0.00  0.00    +0.466 C 
ENDBRANCH  12  14
ENDBRANCH   4  12
ENDBRANCH  13   8
BRANCH  15  18
ATOM     18  C   UNL     1     -14.868   6.139  23.386  0.00  0.00    +0.135 C 
BRANCH  18  20
ATOM      7  N   UNL     1     -15.433   8.098  20.301  0.00  0.00    -0.360 N 
ATOM     20  C   UNL     1     -14.824   6.884  22.056  0.00  0.00    -0.013 A 
ATOM     23  C   UNL     1     -13.707   6.993  21.182  0.00  0.00    +0.003 A 
ATOM     24  C   UNL     1     -14.115   7.759  20.088  0.00  0.00    +0.047 A 
ATOM     25  C   UNL     1     -15.870   7.574  21.487  0.00  0.00    +0.087 A 
ATOM     27  C   UNL     1     -12.384   6.511  21.216  0.00  0.00    +0.010 A 
ATOM     28  C   UNL     1     -13.263   8.070  19.023  0.00  0.00    +0.026 A 
ATOM     29  C   UNL     1     -11.520   6.813  20.157  0.00  0.00    +0.001 A 
ATOM     30  C   UNL     1     -11.954   7.580  19.079  0.00  0.00    +0.002 A 
ATOM     31  H   UNL     1     -15.995   8.655  19.671  0.00  0.00    +0.165 HD
ENDBRANCH  18  20
ENDBRANCH  15  18
TORSDOF 5
ENDMDL
MODEL 9
REMARK VINA RESULT:      -7.3     17.945     20.504
REMARK  Name = 51137369
REMARK  5 active torsions:
REMARK  status: ('A' for Active; 'I' for Inactive)
REMARK    1  A    between atoms: N_4  and  C_12
REMARK    2  A    between atoms: C_8  and  C_13
REMARK    3  A    between atoms: C_12  and  C_14
REMARK    4  A    between atoms: C_15  and  C_18
REMARK    5  A    between atoms: C_18  and  C_20
REMARK                            x       y       z     vdW  Elec       q    Type
REMARK                         _______ _______ _______ _____ _____    ______ ____
ROOT
ATOM      1  O   UNL     1      -6.345 -11.574  17.200  0.00  0.00    -0.424 OA
ATOM      5  N   UNL     1      -6.919  -9.460  16.743  0.00  0.00    -0.112 NA
ATOM      6  N   UNL     1      -5.578  -9.613  16.445  0.00  0.00    -0.112 NA
ATOM     13  C   UNL     1      -7.325 -10.629  17.180  0.00  0.00    +0.222 A 
ATOM     15  C   UNL     1      -5.286 -10.860  16.727  0.00  0.00    +0.222 A 
ENDROOT
BRANCH  13   8
ATOM      4  N   UNL     1     -10.479  -9.536  18.036  0.00  0.00    -0.297 NA
ATOM      8  C   UNL     1      -8.697 -11.059  17.650  0.00  0.00    +0.092 C 
ATOM      9  C   UNL     1      -8.911 -10.822  19.153  0.00  0.00    +0.029 C 
ATOM     10  C   UNL     1      -9.869 -10.332  16.967  0.00  0.00    +0.097 C 
ATOM     11  C   UNL     1     -10.347 -10.338  19.251  0.00  0.00    +0.085 C 
BRANCH   4  12
ATOM     12  C   UNL     1     -11.860  -9.178  17.749  0.00  0.00    +0.119 C 
BRANCH  12  14
ATOM      2  O   UNL     1     -13.972  -6.774  13.974  0.00  0.00    -0.453 OA
ATOM      3  O   UNL     1     -12.322  -5.019  14.015  0.00  0.00    -0.453 OA
ATOM     14  C   UNL     1     -11.952  -8.047  16.760  0.00  0.00    -0.030 A 
ATOM     16  C   UNL     1     -12.994  -8.023  15.830  0.00  0.00    +0.054 A 
ATOM     17  C   UNL     1     -10.990  -7.022  16.783  0.00  0.00    +0.009 A 
ATOM     19  C   UNL     1     -13.038  -6.964  14.945  0.00  0.00    +0.167 A 
ATOM     21  C   UNL     1     -11.058  -5.961  15.877  0.00  0.00    +0.050 A 
ATOM     22  C   UNL     1     -12.096  -5.962  14.968  0.00  0.00    +0.166 A 
ATOM     26  C   UNL     1     -13.513  -5.539  13.388  0.00  0.00    +0.466 C 
ENDBRANCH  12  14
ENDBRANCH   4  12
ENDBRANCH  13   8
BRANCH  15  18
ATOM     18  C   UNL     1      -4.009 -11.574  16.602  0.00  0.00    +0.135 C 
BRANCH  18  20
ATOM      7  N   UNL     1      -1.303  -9.901  14.717  0.00  0.00    -0.360 N 
ATOM     20  C   UNL     1      -3.038 -10.973  15.591  0.00  0.00    -0.013 A 
ATOM     23  C   UNL     1      -3.147 -11.032  14.173  0.00  0.00    +0.003 A 
ATOM     24  C   UNL     1      -2.046 -10.352  13.649  0.00  0.00    +0.047 A 
ATOM     25  C   UNL     1      -1.894 -10.271  15.895  0.00  0.00    +0.087 A 
ATOM     27  C   UNL     1      -4.080 -11.599  13.283  0.00  0.00    +0.010 A 
ATOM     28  C   UNL     1      -1.829 -10.211  12.274  0.00  0.00    +0.026 A 
ATOM     29  C   UNL     1      -3.877 -11.467  11.905  0.00  0.00    +0.001 A 
ATOM     30  C   UNL     1      -2.769 -10.783  11.410  0.00  0.00    +0.002 A 
ATOM     31  H   UNL     1      -0.443  -9.373  14.641  0.00  0.00    +0.165 HD
ENDBRANCH  18  20
ENDBRANCH  15  18
TORSDOF 5
ENDMDL
MODEL 10
REMARK VINA RESULT:      -7.2     30.045     33.671
REMARK  Name = 51137369
REMARK  5 active torsions:
REMARK  status: ('A' for Active; 'I' for Inactive)
REMARK    1  A    between atoms: N_4  and  C_12
REMARK    2  A    between atoms: C_8  and  C_13
REMARK    3  A    between atoms: C_12  and  C_14
REMARK    4  A    between atoms: C_15  and  C_18
REMARK    5  A    between atoms: C_18  and  C_20
REMARK                            x       y       z     vdW  Elec       q    Type
REMARK                         _______ _______ _______ _____ _____    ______ ____
ROOT
ATOM      1  O   UNL     1      13.792  11.453  15.697  0.00  0.00    -0.424 OA
ATOM      5  N   UNL     1      14.690   9.431  15.370  0.00  0.00    -0.112 NA
ATOM      6  N   UNL     1      15.064  10.240  14.314  0.00  0.00    -0.112 NA
ATOM     13  C   UNL     1      13.949  10.180  16.152  0.00  0.00    +0.222 A 
ATOM     15  C   UNL     1      14.517  11.410  14.546  0.00  0.00    +0.222 A 
ENDROOT
BRANCH  13   8
ATOM      4  N   UNL     1      13.844   7.936  18.765  0.00  0.00    -0.297 NA
ATOM      8  C   UNL     1      13.266   9.832  17.456  0.00  0.00    +0.092 C 
ATOM      9  C   UNL     1      12.227   8.711  17.302  0.00  0.00    +0.029 C 
ATOM     10  C   UNL     1      14.212   9.341  18.567  0.00  0.00    +0.097 C 
ATOM     11  C   UNL     1      12.400   7.870  18.554  0.00  0.00    +0.085 C 
BRANCH   4  12
ATOM     12  C   UNL     1      14.244   7.432  20.071  0.00  0.00    +0.119 C 
BRANCH  12  14
ATOM      2  O   UNL     1      18.771   7.313  22.064  0.00  0.00    -0.453 OA
ATOM      3  O   UNL     1      19.650   5.952  20.281  0.00  0.00    -0.453 OA
ATOM     14  C   UNL     1      15.691   7.018  20.094  0.00  0.00    -0.030 A 
ATOM     16  C   UNL     1      16.511   7.423  21.149  0.00  0.00    +0.054 A 
ATOM     17  C   UNL     1      16.204   6.223  19.054  0.00  0.00    +0.009 A 
ATOM     19  C   UNL     1      17.830   7.017  21.128  0.00  0.00    +0.167 A 
ATOM     21  C   UNL     1      17.543   5.825  19.057  0.00  0.00    +0.050 A 
ATOM     22  C   UNL     1      18.331   6.240  20.110  0.00  0.00    +0.166 A 
ATOM     26  C   UNL     1      19.923   6.635  21.522  0.00  0.00    +0.466 C 
ENDBRANCH  12  14
ENDBRANCH   4  12
ENDBRANCH  13   8
BRANCH  15  18
ATOM     18  C   UNL     1      14.582  12.646  13.756  0.00  0.00    +0.135 C 
BRANCH  18  20
ATOM      7  N   UNL     1      13.749  12.514  10.155  0.00  0.00    -0.360 N 
ATOM     20  C   UNL     1      13.968  12.547  12.364  0.00  0.00    -0.013 A 
ATOM     23  C   UNL     1      12.596  12.323  12.056  0.00  0.00    +0.003 A 
ATOM     24  C   UNL     1      12.486  12.307  10.664  0.00  0.00    +0.047 A 
ATOM     25  C   UNL     1      14.651  12.660  11.175  0.00  0.00    +0.087 A 
ATOM     27  C   UNL     1      11.435  12.134  12.830  0.00  0.00    +0.010 A 
ATOM     28  C   UNL     1      11.268  12.109  10.005  0.00  0.00    +0.026 A 
ATOM     29  C   UNL     1      10.209  11.934  12.185  0.00  0.00    +0.001 A 
ATOM     30  C   UNL     1      10.129  11.923  10.795  0.00  0.00    +0.002 A 
ATOM     31  H   UNL     1      13.976  12.551   9.170  0.00  0.00    +0.165 HD
ENDBRANCH  18  20
ENDBRANCH  15  18
TORSDOF 5
ENDMDL
