MODEL 1
REMARK VINA RESULT:      -6.0      0.000      0.000
REMARK  Name = 11887578
REMARK  14 active torsions:
REMARK  status: ('A' for Active; 'I' for Inactive)
REMARK    1  A    between atoms: S_1  and  N_9
REMARK    2  A    between atoms: S_1  and  C_20
REMARK    3  A    between atoms: O_6  and  C_23
REMARK    4  A    between atoms: O_6  and  C_32
REMARK    5  A    between atoms: O_8  and  C_31
REMARK    6  A    between atoms: O_8  and  C_33
REMARK    7  A    between atoms: N_11  and  C_19
REMARK    8  A    between atoms: N_12  and  C_22
REMARK    9  A    between atoms: C_13  and  C_17
REMARK   10  A    between atoms: C_19  and  C_21
REMARK   11  A    between atoms: C_19  and  C_23
REMARK   12  A    between atoms: C_21  and  C_24
REMARK   13  A    between atoms: C_22  and  C_25
REMARK   14  A    between atoms: C_22  and  C_26
REMARK                            x       y       z     vdW  Elec       q    Type
REMARK                         _______ _______ _______ _____ _____    ______ ____
ROOT
ATOM      4  O   UNL     1      -4.988 -12.131  14.888  0.00  0.00    -0.274 OA
ATOM     11  N   UNL     1      -3.970 -10.578  13.486  0.00  0.00    -0.301 N 
ATOM     17  C   UNL     1      -4.932 -11.014  14.379  0.00  0.00    +0.236 C 
ATOM     34  H   UNL     1      -4.020  -9.629  13.126  0.00  0.00    +0.150 HD
ENDROOT
BRANCH  17  13
ATOM      5  O   UNL     1      -6.470  -8.822  12.203  0.00  0.00    -0.253 OA
ATOM      9  N   UNL     1      -6.986 -11.024  16.669  0.00  0.00    -0.178 NA
ATOM     10  N   UNL     1      -7.133 -10.251  13.914  0.00  0.00    -0.272 N 
ATOM     12  N   UNL     1      -8.299 -10.163  11.854  0.00  0.00    -0.297 N 
ATOM     13  C   UNL     1      -5.934  -9.944  14.705  0.00  0.00    +0.179 C 
ATOM     14  C   UNL     1      -6.191  -9.852  16.206  0.00  0.00    +0.141 C 
ATOM     15  C   UNL     1      -8.288 -11.099  15.954  0.00  0.00    +0.128 C 
ATOM     16  C   UNL     1      -8.039 -11.277  14.462  0.00  0.00    +0.127 C 
ATOM     18  C   UNL     1      -7.249  -9.682  12.628  0.00  0.00    +0.303 C 
ATOM     35  H   UNL     1      -8.804 -10.994  12.135  0.00  0.00    +0.150 HD
BRANCH   9   1
ATOM      1  S   UNL     1      -7.064 -11.238  18.366  0.00  0.00    +0.029 S 
ATOM      2  O   UNL     1      -6.178 -10.282  18.995  0.00  0.00    -0.158 OA
ATOM      3  O   UNL     1      -6.991 -12.651  18.661  0.00  0.00    -0.158 OA
ATOM     20  C   UNL     1      -8.733 -10.703  18.644  0.00  0.00    +0.215 C 
ENDBRANCH   9   1
BRANCH  12  22
ATOM     22  C   UNL     1      -8.544  -9.691  10.509  0.00  0.00    +0.068 C 
ATOM     25  C   UNL     1      -8.427 -10.835   9.510  0.00  0.00    +0.027 C 
ATOM     26  C   UNL     1      -9.909  -9.021  10.423  0.00  0.00    +0.027 C 
ENDBRANCH  12  22
ENDBRANCH  17  13
BRANCH  11  19
ATOM     19  C   UNL     1      -2.880 -11.409  13.028  0.00  0.00    +0.186 C 
BRANCH  19  23
ATOM      7  O   UNL     1      -1.476 -12.842  14.376  0.00  0.00    -0.249 OA
ATOM     23  C   UNL     1      -1.875 -11.708  14.133  0.00  0.00    +0.328 C 
BRANCH  23   6
ATOM      6  O   UNL     1      -1.504 -10.583  14.809  0.00  0.00    -0.467 OA
ATOM     32  C   UNL     1      -1.626 -10.646  16.233  0.00  0.00    +0.280 C 
ENDBRANCH  23   6
ENDBRANCH  19  23
BRANCH  19  21
ATOM     21  C   UNL     1      -2.208 -10.813  11.784  0.00  0.00    +0.069 C 
BRANCH  21  24
ATOM     24  C   UNL     1      -3.154 -10.482  10.651  0.00  0.00    -0.045 A 
ATOM     27  C   UNL     1      -3.858 -11.501  10.010  0.00  0.00    +0.007 A 
ATOM     28  C   UNL     1      -3.322  -9.157  10.249  0.00  0.00    +0.007 A 
ATOM     29  C   UNL     1      -4.731 -11.195   8.966  0.00  0.00    +0.046 A 
ATOM     30  C   UNL     1      -4.195  -8.852   9.205  0.00  0.00    +0.046 A 
ATOM     31  C   UNL     1      -4.900  -9.871   8.563  0.00  0.00    +0.120 A 
BRANCH  31   8
ATOM      8  O   UNL     1      -5.752  -9.573   7.545  0.00  0.00    -0.495 OA
ATOM     33  C   UNL     1      -5.728 -10.430   6.405  0.00  0.00    +0.277 C 
ENDBRANCH  31   8
ENDBRANCH  21  24
ENDBRANCH  19  21
ENDBRANCH  11  19
TORSDOF 9
ENDMDL
MODEL 2
REMARK VINA RESULT:      -5.9     24.450     27.015
REMARK  Name = 11887578
REMARK  14 active torsions:
REMARK  status: ('A' for Active; 'I' for Inactive)
REMARK    1  A    between atoms: S_1  and  N_9
REMARK    2  A    between atoms: S_1  and  C_20
REMARK    3  A    between atoms: O_6  and  C_23
REMARK    4  A    between atoms: O_6  and  C_32
REMARK    5  A    between atoms: O_8  and  C_31
REMARK    6  A    between atoms: O_8  and  C_33
REMARK    7  A    between atoms: N_11  and  C_19
REMARK    8  A    between atoms: N_12  and  C_22
REMARK    9  A    between atoms: C_13  and  C_17
REMARK   10  A    between atoms: C_19  and  C_21
REMARK   11  A    between atoms: C_19  and  C_23
REMARK   12  A    between atoms: C_21  and  C_24
REMARK   13  A    between atoms: C_22  and  C_25
REMARK   14  A    between atoms: C_22  and  C_26
REMARK                            x       y       z     vdW  Elec       q    Type
REMARK                         _______ _______ _______ _____ _____    ______ ____
ROOT
ATOM      4  O   UNL     1       9.762   4.704  -0.368  0.00  0.00    -0.274 OA
ATOM     11  N   UNL     1      11.476   4.545   1.198  0.00  0.00    -0.301 N 
ATOM     17  C   UNL     1      10.851   4.268  -0.005  0.00  0.00    +0.236 C 
ATOM     34  H   UNL     1      12.381   4.127   1.396  0.00  0.00    +0.150 HD
ENDROOT
BRANCH  17  13
ATOM      5  O   UNL     1       9.818   2.493  -2.778  0.00  0.00    -0.253 OA
ATOM      9  N   UNL     1      13.862   4.483  -0.599  0.00  0.00    -0.178 NA
ATOM     10  N   UNL     1      11.582   3.909  -2.237  0.00  0.00    -0.272 N 
ATOM     12  N   UNL     1      10.392   4.137  -4.273  0.00  0.00    -0.297 N 
ATOM     13  C   UNL     1      11.671   3.361  -0.877  0.00  0.00    +0.179 C 
ATOM     14  C   UNL     1      13.100   3.224  -0.359  0.00  0.00    +0.141 C 
ATOM     15  C   UNL     1      13.897   4.814  -2.048  0.00  0.00    +0.128 C 
ATOM     16  C   UNL     1      12.477   5.036  -2.553  0.00  0.00    +0.127 C 
ATOM     18  C   UNL     1      10.548   3.444  -3.077  0.00  0.00    +0.303 C 
ATOM     35  H   UNL     1      10.862   5.022  -4.416  0.00  0.00    +0.150 HD
BRANCH   9   1
ATOM      1  S   UNL     1      15.359   4.605   0.222  0.00  0.00    +0.029 S 
ATOM      2  O   UNL     1      15.521   5.964   0.691  0.00  0.00    -0.158 OA
ATOM      3  O   UNL     1      16.377   3.946  -0.565  0.00  0.00    -0.158 OA
ATOM     20  C   UNL     1      14.999   3.581   1.625  0.00  0.00    +0.215 C 
ENDBRANCH   9   1
BRANCH  12  22
ATOM     22  C   UNL     1       9.369   3.792  -5.235  0.00  0.00    +0.068 C 
ATOM     25  C   UNL     1       8.579   5.029  -5.642  0.00  0.00    +0.027 C 
ATOM     26  C   UNL     1       9.991   3.111  -6.447  0.00  0.00    +0.027 C 
ENDBRANCH  12  22
ENDBRANCH  17  13
BRANCH  11  19
ATOM     19  C   UNL     1      10.906   5.410   2.205  0.00  0.00    +0.186 C 
BRANCH  19  23
ATOM      7  O   UNL     1      11.347   7.786   2.226  0.00  0.00    -0.249 OA
ATOM     23  C   UNL     1      11.754   6.651   2.452  0.00  0.00    +0.328 C 
BRANCH  23   6
ATOM      6  O   UNL     1      12.994   6.341   2.923  0.00  0.00    -0.467 OA
ATOM     32  C   UNL     1      13.597   7.318   3.778  0.00  0.00    +0.280 C 
ENDBRANCH  23   6
ENDBRANCH  19  23
BRANCH  19  21
ATOM     21  C   UNL     1      10.617   4.642   3.503  0.00  0.00    +0.069 C 
BRANCH  21  24
ATOM     24  C   UNL     1      10.037   5.482   4.619  0.00  0.00    -0.045 A 
ATOM     27  C   UNL     1       8.868   6.213   4.407  0.00  0.00    +0.007 A 
ATOM     28  C   UNL     1      10.672   5.525   5.860  0.00  0.00    +0.007 A 
ATOM     29  C   UNL     1       8.333   6.986   5.437  0.00  0.00    +0.046 A 
ATOM     30  C   UNL     1      10.136   6.299   6.889  0.00  0.00    +0.046 A 
ATOM     31  C   UNL     1       8.967   7.029   6.678  0.00  0.00    +0.120 A 
BRANCH  31   8
ATOM      8  O   UNL     1       8.445   7.784   7.683  0.00  0.00    -0.495 OA
ATOM     33  C   UNL     1       9.187   8.934   8.086  0.00  0.00    +0.277 C 
ENDBRANCH  31   8
ENDBRANCH  21  24
ENDBRANCH  19  21
ENDBRANCH  11  19
TORSDOF 9
ENDMDL
MODEL 3
REMARK VINA RESULT:      -5.8     24.262     26.943
REMARK  Name = 11887578
REMARK  14 active torsions:
REMARK  status: ('A' for Active; 'I' for Inactive)
REMARK    1  A    between atoms: S_1  and  N_9
REMARK    2  A    between atoms: S_1  and  C_20
REMARK    3  A    between atoms: O_6  and  C_23
REMARK    4  A    between atoms: O_6  and  C_32
REMARK    5  A    between atoms: O_8  and  C_31
REMARK    6  A    between atoms: O_8  and  C_33
REMARK    7  A    between atoms: N_11  and  C_19
REMARK    8  A    between atoms: N_12  and  C_22
REMARK    9  A    between atoms: C_13  and  C_17
REMARK   10  A    between atoms: C_19  and  C_21
REMARK   11  A    between atoms: C_19  and  C_23
REMARK   12  A    between atoms: C_21  and  C_24
REMARK   13  A    between atoms: C_22  and  C_25
REMARK   14  A    between atoms: C_22  and  C_26
REMARK                            x       y       z     vdW  Elec       q    Type
REMARK                         _______ _______ _______ _____ _____    ______ ____
ROOT
ATOM      4  O   UNL     1      13.520   8.003   3.932  0.00  0.00    -0.274 OA
ATOM     11  N   UNL     1      11.909   6.382   4.370  0.00  0.00    -0.301 N 
ATOM     17  C   UNL     1      12.900   7.285   4.712  0.00  0.00    +0.236 C 
ATOM     34  H   UNL     1      11.460   5.836   5.101  0.00  0.00    +0.150 HD
ENDROOT
BRANCH  17  13
ATOM      5  O   UNL     1      15.591   8.666   6.373  0.00  0.00    -0.253 OA
ATOM      9  N   UNL     1      10.787   7.380   6.946  0.00  0.00    -0.178 NA
ATOM     10  N   UNL     1      13.273   8.747   6.547  0.00  0.00    -0.272 N 
ATOM     12  N   UNL     1      14.592  10.711   6.672  0.00  0.00    -0.297 N 
ATOM     13  C   UNL     1      13.146   7.327   6.193  0.00  0.00    +0.179 C 
ATOM     14  C   UNL     1      12.053   6.593   6.966  0.00  0.00    +0.141 C 
ATOM     15  C   UNL     1      10.988   8.726   7.544  0.00  0.00    +0.128 C 
ATOM     16  C   UNL     1      12.017   9.497   6.725  0.00  0.00    +0.127 C 
ATOM     18  C   UNL     1      14.559   9.328   6.524  0.00  0.00    +0.303 C 
ATOM     35  H   UNL     1      13.742  11.254   6.601  0.00  0.00    +0.150 HD
BRANCH   9   1
ATOM      1  S   UNL     1       9.390   6.540   7.472  0.00  0.00    +0.029 S 
ATOM      2  O   UNL     1       8.976   5.628   6.428  0.00  0.00    -0.158 OA
ATOM      3  O   UNL     1       8.473   7.488   8.063  0.00  0.00    -0.158 OA
ATOM     20  C   UNL     1      10.111   5.583   8.781  0.00  0.00    +0.215 C 
ENDBRANCH   9   1
BRANCH  12  22
ATOM     22  C   UNL     1      15.831  11.457   6.657  0.00  0.00    +0.068 C 
ATOM     25  C   UNL     1      15.841  12.454   5.504  0.00  0.00    +0.027 C 
ATOM     26  C   UNL     1      16.045  12.155   7.993  0.00  0.00    +0.027 C 
ENDBRANCH  12  22
ENDBRANCH  17  13
BRANCH  11  19
ATOM     19  C   UNL     1      11.469   6.167   3.011  0.00  0.00    +0.186 C 
BRANCH  19  23
ATOM      7  O   UNL     1      10.318   7.867   1.736  0.00  0.00    -0.249 OA
ATOM     23  C   UNL     1      10.277   7.041   2.642  0.00  0.00    +0.328 C 
BRANCH  23   6
ATOM      6  O   UNL     1       9.199   6.805   3.442  0.00  0.00    -0.467 OA
ATOM     32  C   UNL     1       8.452   7.961   3.835  0.00  0.00    +0.280 C 
ENDBRANCH  23   6
ENDBRANCH  19  23
BRANCH  19  21
ATOM     21  C   UNL     1      11.198   4.681   2.740  0.00  0.00    +0.069 C 
BRANCH  21  24
ATOM     24  C   UNL     1      11.616   4.202   1.367  0.00  0.00    -0.045 A 
ATOM     27  C   UNL     1      10.756   4.363   0.280  0.00  0.00    +0.007 A 
ATOM     28  C   UNL     1      12.861   3.599   1.189  0.00  0.00    +0.007 A 
ATOM     29  C   UNL     1      11.142   3.922  -0.985  0.00  0.00    +0.046 A 
ATOM     30  C   UNL     1      13.246   3.158  -0.077  0.00  0.00    +0.046 A 
ATOM     31  C   UNL     1      12.386   3.319  -1.164  0.00  0.00    +0.120 A 
BRANCH  31   8
ATOM      8  O   UNL     1      12.763   2.890  -2.399  0.00  0.00    -0.495 OA
ATOM     33  C   UNL     1      13.181   3.883  -3.334  0.00  0.00    +0.277 C 
ENDBRANCH  31   8
ENDBRANCH  21  24
ENDBRANCH  19  21
ENDBRANCH  11  19
TORSDOF 9
ENDMDL
MODEL 4
REMARK VINA RESULT:      -5.8      2.185      4.850
REMARK  Name = 11887578
REMARK  14 active torsions:
REMARK  status: ('A' for Active; 'I' for Inactive)
REMARK    1  A    between atoms: S_1  and  N_9
REMARK    2  A    between atoms: S_1  and  C_20
REMARK    3  A    between atoms: O_6  and  C_23
REMARK    4  A    between atoms: O_6  and  C_32
REMARK    5  A    between atoms: O_8  and  C_31
REMARK    6  A    between atoms: O_8  and  C_33
REMARK    7  A    between atoms: N_11  and  C_19
REMARK    8  A    between atoms: N_12  and  C_22
REMARK    9  A    between atoms: C_13  and  C_17
REMARK   10  A    between atoms: C_19  and  C_21
REMARK   11  A    between atoms: C_19  and  C_23
REMARK   12  A    between atoms: C_21  and  C_24
REMARK   13  A    between atoms: C_22  and  C_25
REMARK   14  A    between atoms: C_22  and  C_26
REMARK                            x       y       z     vdW  Elec       q    Type
REMARK                         _______ _______ _______ _____ _____    ______ ____
ROOT
ATOM      4  O   UNL     1      -4.622 -14.263  13.330  0.00  0.00    -0.274 OA
ATOM     11  N   UNL     1      -4.212 -11.972  13.328  0.00  0.00    -0.301 N 
ATOM     17  C   UNL     1      -4.978 -13.105  13.537  0.00  0.00    +0.236 C 
ATOM     34  H   UNL     1      -4.608 -11.059  13.534  0.00  0.00    +0.150 HD
ENDROOT
BRANCH  17  13
ATOM      5  O   UNL     1      -6.154 -13.649  16.735  0.00  0.00    -0.253 OA
ATOM      9  N   UNL     1      -6.837 -10.814  12.666  0.00  0.00    -0.178 NA
ATOM     10  N   UNL     1      -6.115 -11.880  15.225  0.00  0.00    -0.272 N 
ATOM     12  N   UNL     1      -5.555 -11.572  17.507  0.00  0.00    -0.297 N 
ATOM     13  C   UNL     1      -6.337 -12.780  14.086  0.00  0.00    +0.179 C 
ATOM     14  C   UNL     1      -7.255 -12.203  13.012  0.00  0.00    +0.141 C 
ATOM     15  C   UNL     1      -6.872  -9.934  13.864  0.00  0.00    +0.128 C 
ATOM     16  C   UNL     1      -5.894 -10.458  14.908  0.00  0.00    +0.127 C 
ATOM     18  C   UNL     1      -5.959 -12.451  16.507  0.00  0.00    +0.303 C 
ATOM     35  H   UNL     1      -5.215 -10.649  17.271  0.00  0.00    +0.150 HD
BRANCH   9   1
ATOM      1  S   UNL     1      -7.548 -10.163  11.251  0.00  0.00    +0.029 S 
ATOM      2  O   UNL     1      -7.636 -11.207  10.253  0.00  0.00    -0.158 OA
ATOM      3  O   UNL     1      -6.931  -8.887  10.965  0.00  0.00    -0.158 OA
ATOM     20  C   UNL     1      -9.182  -9.856  11.870  0.00  0.00    +0.215 C 
ENDBRANCH   9   1
BRANCH  12  22
ATOM     22  C   UNL     1      -5.338 -12.005  18.870  0.00  0.00    +0.068 C 
ATOM     25  C   UNL     1      -3.848 -12.087  19.174  0.00  0.00    +0.027 C 
ATOM     26  C   UNL     1      -6.049 -11.071  19.841  0.00  0.00    +0.027 C 
ENDBRANCH  12  22
ENDBRANCH  17  13
BRANCH  11  19
ATOM     19  C   UNL     1      -2.858 -12.014  12.825  0.00  0.00    +0.186 C 
BRANCH  19  23
ATOM      7  O   UNL     1      -0.903 -13.110  13.731  0.00  0.00    -0.249 OA
ATOM     23  C   UNL     1      -1.845 -12.345  13.914  0.00  0.00    +0.328 C 
BRANCH  23   6
ATOM      6  O   UNL     1      -2.127 -11.715  15.088  0.00  0.00    -0.467 OA
ATOM     32  C   UNL     1      -1.140 -10.787  15.548  0.00  0.00    +0.280 C 
ENDBRANCH  23   6
ENDBRANCH  19  23
BRANCH  19  21
ATOM     21  C   UNL     1      -2.499 -10.721  12.079  0.00  0.00    +0.069 C 
BRANCH  21  24
ATOM     24  C   UNL     1      -3.260 -10.503  10.791  0.00  0.00    -0.045 A 
ATOM     27  C   UNL     1      -3.462  -9.209  10.310  0.00  0.00    +0.007 A 
ATOM     28  C   UNL     1      -3.760 -11.596  10.083  0.00  0.00    +0.007 A 
ATOM     29  C   UNL     1      -4.163  -9.008   9.122  0.00  0.00    +0.046 A 
ATOM     30  C   UNL     1      -4.462 -11.394   8.895  0.00  0.00    +0.046 A 
ATOM     31  C   UNL     1      -4.664 -10.100   8.414  0.00  0.00    +0.120 A 
BRANCH  31   8
ATOM      8  O   UNL     1      -5.348  -9.904   7.255  0.00  0.00    -0.495 OA
ATOM     33  C   UNL     1      -6.652  -9.334   7.358  0.00  0.00    +0.277 C 
ENDBRANCH  31   8
ENDBRANCH  21  24
ENDBRANCH  19  21
ENDBRANCH  11  19
TORSDOF 9
ENDMDL
MODEL 5
REMARK VINA RESULT:      -5.8      2.996      6.948
REMARK  Name = 11887578
REMARK  14 active torsions:
REMARK  status: ('A' for Active; 'I' for Inactive)
REMARK    1  A    between atoms: S_1  and  N_9
REMARK    2  A    between atoms: S_1  and  C_20
REMARK    3  A    between atoms: O_6  and  C_23
REMARK    4  A    between atoms: O_6  and  C_32
REMARK    5  A    between atoms: O_8  and  C_31
REMARK    6  A    between atoms: O_8  and  C_33
REMARK    7  A    between atoms: N_11  and  C_19
REMARK    8  A    between atoms: N_12  and  C_22
REMARK    9  A    between atoms: C_13  and  C_17
REMARK   10  A    between atoms: C_19  and  C_21
REMARK   11  A    between atoms: C_19  and  C_23
REMARK   12  A    between atoms: C_21  and  C_24
REMARK   13  A    between atoms: C_22  and  C_25
REMARK   14  A    between atoms: C_22  and  C_26
REMARK                            x       y       z     vdW  Elec       q    Type
REMARK                         _______ _______ _______ _____ _____    ______ ____
ROOT
ATOM      4  O   UNL     1      -5.212  -9.848  16.347  0.00  0.00    -0.274 OA
ATOM     11  N   UNL     1      -6.783 -11.375  17.130  0.00  0.00    -0.301 N 
ATOM     17  C   UNL     1      -5.895 -10.859  16.204  0.00  0.00    +0.236 C 
ATOM     34  H   UNL     1      -7.299 -12.222  16.905  0.00  0.00    +0.150 HD
ENDROOT
BRANCH  17  13
ATOM      5  O   UNL     1      -8.496 -12.339  14.486  0.00  0.00    -0.253 OA
ATOM      9  N   UNL     1      -3.813 -10.654  13.948  0.00  0.00    -0.178 NA
ATOM     10  N   UNL     1      -6.655 -11.020  13.958  0.00  0.00    -0.272 N 
ATOM     12  N   UNL     1      -8.797 -10.574  13.051  0.00  0.00    -0.297 N 
ATOM     13  C   UNL     1      -5.819 -11.696  14.959  0.00  0.00    +0.179 C 
ATOM     14  C   UNL     1      -4.376 -11.913  14.514  0.00  0.00    +0.141 C 
ATOM     15  C   UNL     1      -4.618 -10.187  12.787  0.00  0.00    +0.128 C 
ATOM     16  C   UNL     1      -6.040  -9.887  13.243  0.00  0.00    +0.127 C 
ATOM     18  C   UNL     1      -8.017 -11.381  13.871  0.00  0.00    +0.303 C 
ATOM     35  H   UNL     1      -8.440  -9.690  12.712  0.00  0.00    +0.150 HD
BRANCH   9   1
ATOM      1  S   UNL     1      -2.116 -10.642  13.721  0.00  0.00    +0.029 S 
ATOM      2  O   UNL     1      -1.499 -10.018  14.871  0.00  0.00    -0.158 OA
ATOM      3  O   UNL     1      -1.829 -10.206  12.373  0.00  0.00    -0.158 OA
ATOM     20  C   UNL     1      -1.805 -12.386  13.812  0.00  0.00    +0.215 C 
ENDBRANCH   9   1
BRANCH  12  22
ATOM     22  C   UNL     1     -10.213 -10.804  12.868  0.00  0.00    +0.068 C 
ATOM     25  C   UNL     1     -11.027  -9.759  13.621  0.00  0.00    +0.027 C 
ATOM     26  C   UNL     1     -10.561 -10.810  11.385  0.00  0.00    +0.027 C 
ENDBRANCH  12  22
ENDBRANCH  17  13
BRANCH  11  19
ATOM     19  C   UNL     1      -7.023 -10.769  18.419  0.00  0.00    +0.186 C 
BRANCH  19  23
ATOM      7  O   UNL     1      -6.103 -10.895  20.650  0.00  0.00    -0.249 OA
ATOM     23  C   UNL     1      -6.103 -11.321  19.500  0.00  0.00    +0.328 C 
BRANCH  23   6
ATOM      6  O   UNL     1      -5.289 -12.307  19.028  0.00  0.00    -0.467 OA
ATOM     32  C   UNL     1      -3.892 -12.136  19.286  0.00  0.00    +0.280 C 
ENDBRANCH  23   6
ENDBRANCH  19  23
BRANCH  19  21
ATOM     21  C   UNL     1      -8.503 -10.869  18.816  0.00  0.00    +0.069 C 
BRANCH  21  24
ATOM     24  C   UNL     1      -9.407  -9.856  18.151  0.00  0.00    -0.045 A 
ATOM     27  C   UNL     1      -8.859  -8.848  17.356  0.00  0.00    +0.007 A 
ATOM     28  C   UNL     1     -10.788  -9.930  18.331  0.00  0.00    +0.007 A 
ATOM     29  C   UNL     1      -9.693  -7.915  16.742  0.00  0.00    +0.046 A 
ATOM     30  C   UNL     1     -11.621  -8.995  17.716  0.00  0.00    +0.046 A 
ATOM     31  C   UNL     1     -11.074  -7.988  16.922  0.00  0.00    +0.120 A 
BRANCH  31   8
ATOM      8  O   UNL     1     -11.887  -7.077  16.322  0.00  0.00    -0.495 OA
ATOM     33  C   UNL     1     -11.266  -5.927  15.749  0.00  0.00    +0.277 C 
ENDBRANCH  31   8
ENDBRANCH  21  24
ENDBRANCH  19  21
ENDBRANCH  11  19
TORSDOF 9
ENDMDL
MODEL 6
REMARK VINA RESULT:      -5.7      2.259      5.862
REMARK  Name = 11887578
REMARK  14 active torsions:
REMARK  status: ('A' for Active; 'I' for Inactive)
REMARK    1  A    between atoms: S_1  and  N_9
REMARK    2  A    between atoms: S_1  and  C_20
REMARK    3  A    between atoms: O_6  and  C_23
REMARK    4  A    between atoms: O_6  and  C_32
REMARK    5  A    between atoms: O_8  and  C_31
REMARK    6  A    between atoms: O_8  and  C_33
REMARK    7  A    between atoms: N_11  and  C_19
REMARK    8  A    between atoms: N_12  and  C_22
REMARK    9  A    between atoms: C_13  and  C_17
REMARK   10  A    between atoms: C_19  and  C_21
REMARK   11  A    between atoms: C_19  and  C_23
REMARK   12  A    between atoms: C_21  and  C_24
REMARK   13  A    between atoms: C_22  and  C_25
REMARK   14  A    between atoms: C_22  and  C_26
REMARK                            x       y       z     vdW  Elec       q    Type
REMARK                         _______ _______ _______ _____ _____    ______ ____
ROOT
ATOM      4  O   UNL     1      -3.294 -10.787  11.586  0.00  0.00    -0.274 OA
ATOM     11  N   UNL     1      -4.235 -10.625  13.708  0.00  0.00    -0.301 N 
ATOM     17  C   UNL     1      -4.182 -10.403  12.344  0.00  0.00    +0.236 C 
ATOM     34  H   UNL     1      -5.021 -10.260  14.241  0.00  0.00    +0.150 HD
ENDROOT
BRANCH  17  13
ATOM      5  O   UNL     1      -4.603  -8.921   9.256  0.00  0.00    -0.253 OA
ATOM      9  N   UNL     1      -7.124 -10.804  13.149  0.00  0.00    -0.178 NA
ATOM     10  N   UNL     1      -5.832 -10.333  10.636  0.00  0.00    -0.272 N 
ATOM     12  N   UNL     1      -5.623 -10.747   8.312  0.00  0.00    -0.297 N 
ATOM     13  C   UNL     1      -5.373  -9.636  11.844  0.00  0.00    +0.179 C 
ATOM     14  C   UNL     1      -6.444  -9.496  12.922  0.00  0.00    +0.141 C 
ATOM     15  C   UNL     1      -7.752 -11.301  11.896  0.00  0.00    +0.128 C 
ATOM     16  C   UNL     1      -6.676 -11.524  10.842  0.00  0.00    +0.127 C 
ATOM     18  C   UNL     1      -5.306  -9.927   9.390  0.00  0.00    +0.303 C 
ATOM     35  H   UNL     1      -6.030 -11.660   8.466  0.00  0.00    +0.150 HD
BRANCH   9   1
ATOM      1  S   UNL     1      -8.104 -10.890  14.551  0.00  0.00    +0.029 S 
ATOM      2  O   UNL     1      -8.174  -9.575  15.150  0.00  0.00    -0.158 OA
ATOM      3  O   UNL     1      -7.720 -12.055  15.316  0.00  0.00    -0.158 OA
ATOM     20  C   UNL     1      -9.668 -11.227  13.783  0.00  0.00    +0.215 C 
ENDBRANCH   9   1
BRANCH  12  22
ATOM     22  C   UNL     1      -5.149 -10.475   6.973  0.00  0.00    +0.068 C 
ATOM     25  C   UNL     1      -4.529 -11.725   6.361  0.00  0.00    +0.027 C 
ATOM     26  C   UNL     1      -6.284  -9.942   6.108  0.00  0.00    +0.027 C 
ENDBRANCH  12  22
ENDBRANCH  17  13
BRANCH  11  19
ATOM     19  C   UNL     1      -3.222 -11.358  14.431  0.00  0.00    +0.186 C 
BRANCH  19  23
ATOM      7  O   UNL     1      -4.759 -13.166  14.886  0.00  0.00    -0.249 OA
ATOM     23  C   UNL     1      -3.607 -12.814  14.654  0.00  0.00    +0.328 C 
BRANCH  23   6
ATOM      6  O   UNL     1      -2.531 -13.648  14.582  0.00  0.00    -0.467 OA
ATOM     32  C   UNL     1      -1.601 -13.374  13.529  0.00  0.00    +0.280 C 
ENDBRANCH  23   6
ENDBRANCH  19  23
BRANCH  19  21
ATOM     21  C   UNL     1      -2.852 -10.652  15.743  0.00  0.00    +0.069 C 
BRANCH  21  24
ATOM     24  C   UNL     1      -3.857 -10.827  16.860  0.00  0.00    -0.045 A 
ATOM     27  C   UNL     1      -3.555 -11.645  17.949  0.00  0.00    +0.007 A 
ATOM     28  C   UNL     1      -5.085 -10.168  16.801  0.00  0.00    +0.007 A 
ATOM     29  C   UNL     1      -4.482 -11.805  18.978  0.00  0.00    +0.046 A 
ATOM     30  C   UNL     1      -6.011 -10.329  17.831  0.00  0.00    +0.046 A 
ATOM     31  C   UNL     1      -5.710 -11.148  18.920  0.00  0.00    +0.120 A 
BRANCH  31   8
ATOM      8  O   UNL     1      -6.614 -11.303  19.924  0.00  0.00    -0.495 OA
ATOM     33  C   UNL     1      -7.900 -11.810  19.569  0.00  0.00    +0.277 C 
ENDBRANCH  31   8
ENDBRANCH  21  24
ENDBRANCH  19  21
ENDBRANCH  11  19
TORSDOF 9
ENDMDL
MODEL 7
REMARK VINA RESULT:      -5.6      2.724      6.555
REMARK  Name = 11887578
REMARK  14 active torsions:
REMARK  status: ('A' for Active; 'I' for Inactive)
REMARK    1  A    between atoms: S_1  and  N_9
REMARK    2  A    between atoms: S_1  and  C_20
REMARK    3  A    between atoms: O_6  and  C_23
REMARK    4  A    between atoms: O_6  and  C_32
REMARK    5  A    between atoms: O_8  and  C_31
REMARK    6  A    between atoms: O_8  and  C_33
REMARK    7  A    between atoms: N_11  and  C_19
REMARK    8  A    between atoms: N_12  and  C_22
REMARK    9  A    between atoms: C_13  and  C_17
REMARK   10  A    between atoms: C_19  and  C_21
REMARK   11  A    between atoms: C_19  and  C_23
REMARK   12  A    between atoms: C_21  and  C_24
REMARK   13  A    between atoms: C_22  and  C_25
REMARK   14  A    between atoms: C_22  and  C_26
REMARK                            x       y       z     vdW  Elec       q    Type
REMARK                         _______ _______ _______ _____ _____    ______ ____
ROOT
ATOM      4  O   UNL     1      -5.238  -9.826  12.844  0.00  0.00    -0.274 OA
ATOM     11  N   UNL     1      -4.071 -11.510  13.946  0.00  0.00    -0.301 N 
ATOM     17  C   UNL     1      -4.990 -11.013  13.040  0.00  0.00    +0.236 C 
ATOM     34  H   UNL     1      -3.946 -12.516  14.027  0.00  0.00    +0.150 HD
ENDROOT
BRANCH  17  13
ATOM      5  O   UNL     1      -7.591 -10.704  10.793  0.00  0.00    -0.253 OA
ATOM      9  N   UNL     1      -3.753 -13.655  12.064  0.00  0.00    -0.178 NA
ATOM     10  N   UNL     1      -5.518 -11.756  10.846  0.00  0.00    -0.272 N 
ATOM     12  N   UNL     1      -6.227 -10.512   8.958  0.00  0.00    -0.297 N 
ATOM     13  C   UNL     1      -5.672 -12.103  12.264  0.00  0.00    +0.179 C 
ATOM     14  C   UNL     1      -5.123 -13.480  12.627  0.00  0.00    +0.141 C 
ATOM     15  C   UNL     1      -3.763 -13.507  10.585  0.00  0.00    +0.128 C 
ATOM     16  C   UNL     1      -4.230 -12.104  10.218  0.00  0.00    +0.127 C 
ATOM     18  C   UNL     1      -6.523 -10.974  10.236  0.00  0.00    +0.303 C 
ATOM     35  H   UNL     1      -5.285 -10.576   8.595  0.00  0.00    +0.150 HD
BRANCH   9   1
ATOM      1  S   UNL     1      -2.877 -14.999  12.665  0.00  0.00    +0.029 S 
ATOM      2  O   UNL     1      -2.230 -15.665  11.555  0.00  0.00    -0.158 OA
ATOM      3  O   UNL     1      -3.711 -15.717  13.602  0.00  0.00    -0.158 OA
ATOM     20  C   UNL     1      -1.632 -14.136  13.588  0.00  0.00    +0.215 C 
ENDBRANCH   9   1
BRANCH  12  22
ATOM     22  C   UNL     1      -7.148  -9.688   8.206  0.00  0.00    +0.068 C 
ATOM     25  C   UNL     1      -7.097  -8.246   8.695  0.00  0.00    +0.027 C 
ATOM     26  C   UNL     1      -6.841  -9.777   6.716  0.00  0.00    +0.027 C 
ENDBRANCH  12  22
ENDBRANCH  17  13
BRANCH  11  19
ATOM     19  C   UNL     1      -3.266 -10.667  14.800  0.00  0.00    +0.186 C 
BRANCH  19  23
ATOM      7  O   UNL     1      -1.123  -9.555  14.704  0.00  0.00    -0.249 OA
ATOM     23  C   UNL     1      -1.938 -10.290  14.156  0.00  0.00    +0.328 C 
BRANCH  23   6
ATOM      6  O   UNL     1      -1.789 -10.845  12.921  0.00  0.00    -0.467 OA
ATOM     32  C   UNL     1      -1.601  -9.922  11.843  0.00  0.00    +0.280 C 
ENDBRANCH  23   6
ENDBRANCH  19  23
BRANCH  19  21
ATOM     21  C   UNL     1      -3.075 -11.297  16.187  0.00  0.00    +0.069 C 
BRANCH  21  24
ATOM     24  C   UNL     1      -4.261 -11.155  17.115  0.00  0.00    -0.045 A 
ATOM     27  C   UNL     1      -5.265 -10.229  16.828  0.00  0.00    +0.007 A 
ATOM     28  C   UNL     1      -4.352 -11.951  18.257  0.00  0.00    +0.007 A 
ATOM     29  C   UNL     1      -6.359 -10.099  17.682  0.00  0.00    +0.046 A 
ATOM     30  C   UNL     1      -5.446 -11.820  19.112  0.00  0.00    +0.046 A 
ATOM     31  C   UNL     1      -6.449 -10.894  18.824  0.00  0.00    +0.120 A 
BRANCH  31   8
ATOM      8  O   UNL     1      -7.517 -10.767  19.659  0.00  0.00    -0.495 OA
ATOM     33  C   UNL     1      -8.455 -11.843  19.682  0.00  0.00    +0.277 C 
ENDBRANCH  31   8
ENDBRANCH  21  24
ENDBRANCH  19  21
ENDBRANCH  11  19
TORSDOF 9
ENDMDL
MODEL 8
REMARK VINA RESULT:      -5.5     21.241     24.200
REMARK  Name = 11887578
REMARK  14 active torsions:
REMARK  status: ('A' for Active; 'I' for Inactive)
REMARK    1  A    between atoms: S_1  and  N_9
REMARK    2  A    between atoms: S_1  and  C_20
REMARK    3  A    between atoms: O_6  and  C_23
REMARK    4  A    between atoms: O_6  and  C_32
REMARK    5  A    between atoms: O_8  and  C_31
REMARK    6  A    between atoms: O_8  and  C_33
REMARK    7  A    between atoms: N_11  and  C_19
REMARK    8  A    between atoms: N_12  and  C_22
REMARK    9  A    between atoms: C_13  and  C_17
REMARK   10  A    between atoms: C_19  and  C_21
REMARK   11  A    between atoms: C_19  and  C_23
REMARK   12  A    between atoms: C_21  and  C_24
REMARK   13  A    between atoms: C_22  and  C_25
REMARK   14  A    between atoms: C_22  and  C_26
REMARK                            x       y       z     vdW  Elec       q    Type
REMARK                         _______ _______ _______ _____ _____    ______ ____
ROOT
ATOM      4  O   UNL     1     -14.765   8.521  22.667  0.00  0.00    -0.274 OA
ATOM     11  N   UNL     1     -12.805   9.566  21.974  0.00  0.00    -0.301 N 
ATOM     17  C   UNL     1     -13.709   8.521  22.039  0.00  0.00    +0.236 C 
ATOM     34  H   UNL     1     -11.958   9.457  21.421  0.00  0.00    +0.150 HD
ENDROOT
BRANCH  17  13
ATOM      5  O   UNL     1     -15.119   5.373  21.948  0.00  0.00    -0.253 OA
ATOM      9  N   UNL     1     -12.339   8.573  19.285  0.00  0.00    -0.178 NA
ATOM     10  N   UNL     1     -14.433   6.964  20.397  0.00  0.00    -0.272 N 
ATOM     12  N   UNL     1     -16.511   5.846  20.186  0.00  0.00    -0.297 N 
ATOM     13  C   UNL     1     -13.275   7.341  21.218  0.00  0.00    +0.179 C 
ATOM     14  C   UNL     1     -12.018   7.649  20.410  0.00  0.00    +0.141 C 
ATOM     15  C   UNL     1     -13.365   7.981  18.387  0.00  0.00    +0.128 C 
ATOM     16  C   UNL     1     -14.652   7.749  19.168  0.00  0.00    +0.127 C 
ATOM     18  C   UNL     1     -15.338   6.013  20.914  0.00  0.00    +0.303 C 
ATOM     35  H   UNL     1     -16.761   6.505  19.460  0.00  0.00    +0.150 HD
BRANCH   9   1
ATOM      1  S   UNL     1     -10.989   9.276  18.500  0.00  0.00    +0.029 S 
ATOM      2  O   UNL     1     -10.421   8.302  17.593  0.00  0.00    -0.158 OA
ATOM      3  O   UNL     1     -10.181   9.958  19.486  0.00  0.00    -0.158 OA
ATOM     20  C   UNL     1     -11.829  10.503  17.533  0.00  0.00    +0.215 C 
ENDBRANCH   9   1
BRANCH  12  22
ATOM     22  C   UNL     1     -17.543   4.919  20.592  0.00  0.00    +0.068 C 
ATOM     25  C   UNL     1     -18.691   5.659  21.268  0.00  0.00    +0.027 C 
ATOM     26  C   UNL     1     -18.034   4.116  19.394  0.00  0.00    +0.027 C 
ENDBRANCH  12  22
ENDBRANCH  17  13
BRANCH  11  19
ATOM     19  C   UNL     1     -12.999  10.824  22.657  0.00  0.00    +0.186 C 
BRANCH  19  23
ATOM      7  O   UNL     1     -12.719  12.087  20.616  0.00  0.00    -0.249 OA
ATOM     23  C   UNL     1     -13.291  11.968  21.694  0.00  0.00    +0.328 C 
BRANCH  23   6
ATOM      6  O   UNL     1     -14.229  12.827  22.185  0.00  0.00    -0.467 OA
ATOM     32  C   UNL     1     -15.448  12.225  22.632  0.00  0.00    +0.280 C 
ENDBRANCH  23   6
ENDBRANCH  19  23
BRANCH  19  21
ATOM     21  C   UNL     1     -11.821  11.142  23.588  0.00  0.00    +0.069 C 
BRANCH  21  24
ATOM     24  C   UNL     1     -12.095  10.908  25.057  0.00  0.00    -0.045 A 
ATOM     27  C   UNL     1     -13.409  10.857  25.522  0.00  0.00    +0.007 A 
ATOM     28  C   UNL     1     -11.033  10.744  25.946  0.00  0.00    +0.007 A 
ATOM     29  C   UNL     1     -13.661  10.641  26.876  0.00  0.00    +0.046 A 
ATOM     30  C   UNL     1     -11.286  10.528  27.301  0.00  0.00    +0.046 A 
ATOM     31  C   UNL     1     -12.600  10.477  27.766  0.00  0.00    +0.120 A 
BRANCH  31   8
ATOM      8  O   UNL     1     -12.846  10.265  29.088  0.00  0.00    -0.495 OA
ATOM     33  C   UNL     1     -11.721   9.996  29.923  0.00  0.00    +0.277 C 
ENDBRANCH  31   8
ENDBRANCH  21  24
ENDBRANCH  19  21
ENDBRANCH  11  19
TORSDOF 9
ENDMDL
MODEL 9
REMARK VINA RESULT:      -5.5     23.662     26.203
REMARK  Name = 11887578
REMARK  14 active torsions:
REMARK  status: ('A' for Active; 'I' for Inactive)
REMARK    1  A    between atoms: S_1  and  N_9
REMARK    2  A    between atoms: S_1  and  C_20
REMARK    3  A    between atoms: O_6  and  C_23
REMARK    4  A    between atoms: O_6  and  C_32
REMARK    5  A    between atoms: O_8  and  C_31
REMARK    6  A    between atoms: O_8  and  C_33
REMARK    7  A    between atoms: N_11  and  C_19
REMARK    8  A    between atoms: N_12  and  C_22
REMARK    9  A    between atoms: C_13  and  C_17
REMARK   10  A    between atoms: C_19  and  C_21
REMARK   11  A    between atoms: C_19  and  C_23
REMARK   12  A    between atoms: C_21  and  C_24
REMARK   13  A    between atoms: C_22  and  C_25
REMARK   14  A    between atoms: C_22  and  C_26
REMARK                            x       y       z     vdW  Elec       q    Type
REMARK                         _______ _______ _______ _____ _____    ______ ____
ROOT
ATOM      4  O   UNL     1       8.922   8.504   8.095  0.00  0.00    -0.274 OA
ATOM     11  N   UNL     1      10.389   6.934   7.201  0.00  0.00    -0.301 N 
ATOM     17  C   UNL     1      10.036   8.178   7.693  0.00  0.00    +0.236 C 
ATOM     34  H   UNL     1      11.345   6.774   6.894  0.00  0.00    +0.150 HD
ENDROOT
BRANCH  17  13
ATOM      5  O   UNL     1      13.312   7.548   6.812  0.00  0.00    -0.253 OA
ATOM      9  N   UNL     1       9.947  11.225   7.277  0.00  0.00    -0.178 NA
ATOM     10  N   UNL     1      11.718   9.175   6.344  0.00  0.00    -0.272 N 
ATOM     12  N   UNL     1      13.049   8.218   4.633  0.00  0.00    -0.297 N 
ATOM     13  C   UNL     1      11.196   9.132   7.715  0.00  0.00    +0.179 C 
ATOM     14  C   UNL     1      10.791  10.496   8.266  0.00  0.00    +0.141 C 
ATOM     15  C   UNL     1      10.674  11.411   5.993  0.00  0.00    +0.128 C 
ATOM     16  C   UNL     1      11.006  10.050   5.395  0.00  0.00    +0.127 C 
ATOM     18  C   UNL     1      12.737   8.265   5.987  0.00  0.00    +0.303 C 
ATOM     35  H   UNL     1      12.446   8.662   3.953  0.00  0.00    +0.150 HD
BRANCH   9   1
ATOM      1  S   UNL     1       9.141  12.611   7.876  0.00  0.00    +0.029 S 
ATOM      2  O   UNL     1       8.648  12.323   9.206  0.00  0.00    -0.158 OA
ATOM      3  O   UNL     1       8.277  13.131   6.841  0.00  0.00    -0.158 OA
ATOM     20  C   UNL     1      10.531  13.703   8.032  0.00  0.00    +0.215 C 
ENDBRANCH   9   1
BRANCH  12  22
ATOM     22  C   UNL     1      14.061   7.328   4.107  0.00  0.00    +0.068 C 
ATOM     25  C   UNL     1      13.609   6.730   2.781  0.00  0.00    +0.027 C 
ATOM     26  C   UNL     1      15.386   8.063   3.958  0.00  0.00    +0.027 C 
ENDBRANCH  12  22
ENDBRANCH  17  13
BRANCH  11  19
ATOM     19  C   UNL     1       9.460   5.832   7.096  0.00  0.00    +0.186 C 
BRANCH  19  23
ATOM      7  O   UNL     1       9.801   3.522   7.717  0.00  0.00    -0.249 OA
ATOM     23  C   UNL     1       9.793   4.700   8.058  0.00  0.00    +0.328 C 
BRANCH  23   6
ATOM      6  O   UNL     1      10.055   5.154   9.317  0.00  0.00    -0.467 OA
ATOM     32  C   UNL     1       9.159   4.704  10.338  0.00  0.00    +0.280 C 
ENDBRANCH  23   6
ENDBRANCH  19  23
BRANCH  19  21
ATOM     21  C   UNL     1       9.339   5.340   5.647  0.00  0.00    +0.069 C 
BRANCH  21  24
ATOM     24  C   UNL     1       9.101   6.430   4.626  0.00  0.00    -0.045 A 
ATOM     27  C   UNL     1       8.060   7.340   4.807  0.00  0.00    +0.007 A 
ATOM     28  C   UNL     1       9.924   6.525   3.504  0.00  0.00    +0.007 A 
ATOM     29  C   UNL     1       7.841   8.346   3.866  0.00  0.00    +0.046 A 
ATOM     30  C   UNL     1       9.705   7.531   2.563  0.00  0.00    +0.046 A 
ATOM     31  C   UNL     1       8.663   8.441   2.744  0.00  0.00    +0.120 A 
BRANCH  31   8
ATOM      8  O   UNL     1       8.450   9.423   1.826  0.00  0.00    -0.495 OA
ATOM     33  C   UNL     1       9.291  10.573   1.897  0.00  0.00    +0.277 C 
ENDBRANCH  31   8
ENDBRANCH  21  24
ENDBRANCH  19  21
ENDBRANCH  11  19
TORSDOF 9
ENDMDL
MODEL 10
REMARK VINA RESULT:      -5.5     23.993     26.871
REMARK  Name = 11887578
REMARK  14 active torsions:
REMARK  status: ('A' for Active; 'I' for Inactive)
REMARK    1  A    between atoms: S_1  and  N_9
REMARK    2  A    between atoms: S_1  and  C_20
REMARK    3  A    between atoms: O_6  and  C_23
REMARK    4  A    between atoms: O_6  and  C_32
REMARK    5  A    between atoms: O_8  and  C_31
REMARK    6  A    between atoms: O_8  and  C_33
REMARK    7  A    between atoms: N_11  and  C_19
REMARK    8  A    between atoms: N_12  and  C_22
REMARK    9  A    between atoms: C_13  and  C_17
REMARK   10  A    between atoms: C_19  and  C_21
REMARK   11  A    between atoms: C_19  and  C_23
REMARK   12  A    between atoms: C_21  and  C_24
REMARK   13  A    between atoms: C_22  and  C_25
REMARK   14  A    between atoms: C_22  and  C_26
REMARK                            x       y       z     vdW  Elec       q    Type
REMARK                         _______ _______ _______ _____ _____    ______ ____
ROOT
ATOM      4  O   UNL     1     -10.086  -7.608  39.250  0.00  0.00    -0.274 OA
ATOM     11  N   UNL     1      -7.897  -8.335  38.946  0.00  0.00    -0.301 N 
ATOM     17  C   UNL     1      -8.888  -7.383  39.101  0.00  0.00    +0.236 C 
ATOM     34  H   UNL     1      -6.932  -8.035  38.829  0.00  0.00    +0.150 HD
ENDROOT
BRANCH  17  13
ATOM      5  O   UNL     1     -10.638  -4.424  38.801  0.00  0.00    -0.253 OA
ATOM      9  N   UNL     1      -6.363  -6.367  40.536  0.00  0.00    -0.178 NA
ATOM     10  N   UNL     1      -8.994  -5.281  40.205  0.00  0.00    -0.272 N 
ATOM     12  N   UNL     1     -10.870  -4.117  41.064  0.00  0.00    -0.297 N 
ATOM     13  C   UNL     1      -8.339  -5.984  39.094  0.00  0.00    +0.179 C 
ATOM     14  C   UNL     1      -6.815  -5.977  39.170  0.00  0.00    +0.141 C 
ATOM     15  C   UNL     1      -6.908  -5.438  41.562  0.00  0.00    +0.128 C 
ATOM     16  C   UNL     1      -8.430  -5.504  41.549  0.00  0.00    +0.127 C 
ATOM     18  C   UNL     1     -10.197  -4.592  39.943  0.00  0.00    +0.303 C 
ATOM     35  H   UNL     1     -10.604  -4.426  41.990  0.00  0.00    +0.150 HD
BRANCH   9   1
ATOM      1  S   UNL     1      -4.697  -6.732  40.684  0.00  0.00    +0.029 S 
ATOM      2  O   UNL     1      -3.986  -6.110  39.588  0.00  0.00    -0.158 OA
ATOM      3  O   UNL     1      -4.554  -8.140  40.981  0.00  0.00    -0.158 OA
ATOM     20  C   UNL     1      -4.335  -5.819  42.161  0.00  0.00    +0.215 C 
ENDBRANCH   9   1
BRANCH  12  22
ATOM     22  C   UNL     1     -12.123  -3.403  40.964  0.00  0.00    +0.068 C 
ATOM     25  C   UNL     1     -13.286  -4.301  41.367  0.00  0.00    +0.027 C 
ATOM     26  C   UNL     1     -12.082  -2.139  41.813  0.00  0.00    +0.027 C 
ENDBRANCH  12  22
ENDBRANCH  17  13
BRANCH  11  19
ATOM     19  C   UNL     1      -8.159  -9.756  38.940  0.00  0.00    +0.186 C 
BRANCH  19  23
ATOM      7  O   UNL     1      -7.237 -10.252  41.118  0.00  0.00    -0.249 OA
ATOM     23  C   UNL     1      -7.273 -10.513  39.920  0.00  0.00    +0.328 C 
BRANCH  23   6
ATOM      6  O   UNL     1      -6.532 -11.478  39.305  0.00  0.00    -0.467 OA
ATOM     32  C   UNL     1      -5.114 -11.291  39.341  0.00  0.00    +0.280 C 
ENDBRANCH  23   6
ENDBRANCH  19  23
BRANCH  19  21
ATOM     21  C   UNL     1      -8.073 -10.334  37.521  0.00  0.00    +0.069 C 
BRANCH  21  24
ATOM     24  C   UNL     1      -9.363 -10.929  37.001  0.00  0.00    -0.045 A 
ATOM     27  C   UNL     1      -9.365 -12.204  36.435  0.00  0.00    +0.007 A 
ATOM     28  C   UNL     1     -10.550 -10.202  37.088  0.00  0.00    +0.007 A 
ATOM     29  C   UNL     1     -10.554 -12.752  35.956  0.00  0.00    +0.046 A 
ATOM     30  C   UNL     1     -11.739 -10.751  36.608  0.00  0.00    +0.046 A 
ATOM     31  C   UNL     1     -11.741 -12.026  36.043  0.00  0.00    +0.120 A 
BRANCH  31   8
ATOM      8  O   UNL     1     -12.902 -12.561  35.576  0.00  0.00    -0.495 OA
ATOM     33  C   UNL     1     -13.566 -11.859  34.526  0.00  0.00    +0.277 C 
ENDBRANCH  31   8
ENDBRANCH  21  24
ENDBRANCH  19  21
ENDBRANCH  11  19
TORSDOF 9
ENDMDL
