MODEL 1
REMARK VINA RESULT:      -6.5      0.000      0.000
REMARK  Name = 38027067
REMARK  12 active torsions:
REMARK  status: ('A' for Active; 'I' for Inactive)
REMARK    1  A    between atoms: N_4  and  C_16
REMARK    2  A    between atoms: N_5  and  C_23
REMARK    3  A    between atoms: N_6  and  C_24
REMARK    4  A    between atoms: C_9  and  C_13
REMARK    5  A    between atoms: C_10  and  C_16
REMARK    6  A    between atoms: C_12  and  C_17
REMARK    7  A    between atoms: C_13  and  C_18
REMARK    8  A    between atoms: C_13  and  C_19
REMARK    9  A    between atoms: C_14  and  C_20
REMARK   10  A    between atoms: C_17  and  C_21
REMARK   11  A    between atoms: C_22  and  C_27
REMARK   12  A    between atoms: C_23  and  C_24
REMARK                            x       y       z     vdW  Elec       q    Type
REMARK                         _______ _______ _______ _____ _____    ______ ____
ROOT
ATOM      9  C   UNL     1      17.086   7.621  21.227  0.00  0.00    +0.000 C 
ATOM     10  C   UNL     1      18.609   7.904  21.281  0.00  0.00    +0.032 C 
ATOM     11  C   UNL     1      16.355   8.763  20.504  0.00  0.00    +0.012 C 
ATOM     12  C   UNL     1      16.575  10.123  21.191  0.00  0.00    +0.023 C 
ATOM     14  C   UNL     1      18.035  10.357  21.522  0.00  0.00    -0.073 C 
ATOM     15  C   UNL     1      18.931   9.356  21.544  0.00  0.00    -0.022 C 
ATOM     20  C   UNL     1      18.450  11.779  21.782  0.00  0.00    +0.039 C 
ENDROOT
BRANCH   9  13
ATOM     13  C   UNL     1      16.780   6.289  20.536  0.00  0.00    -0.013 C 
ATOM     18  C   UNL     1      15.319   6.240  20.099  0.00  0.00    +0.007 C 
ATOM     19  C   UNL     1      17.708   6.081  19.345  0.00  0.00    +0.007 C 
ENDBRANCH   9  13
BRANCH  10  16
ATOM     16  C   UNL     1      19.297   7.029  22.335  0.00  0.00    +0.112 C 
BRANCH  16   4
ATOM      3  O   UNL     1      21.373   5.597  23.708  0.00  0.00    -0.268 OA
ATOM      4  N   UNL     1      20.318   6.225  21.738  0.00  0.00    -0.309 N 
ATOM     22  C   UNL     1      21.292   5.562  22.483  0.00  0.00    +0.264 C 
ATOM     33  H   UNL     1      20.311   6.102  20.730  0.00  0.00    +0.149 HD
BRANCH  22  27
ATOM      7  N   UNL     1      22.248   3.447  21.825  0.00  0.00    -0.247 NA
ATOM      8  N   UNL     1      24.158   4.728  20.220  0.00  0.00    -0.259 NA
ATOM     27  C   UNL     1      22.300   4.788  21.711  0.00  0.00    +0.143 A 
ATOM     30  C   UNL     1      23.239   5.418  20.923  0.00  0.00    +0.143 A 
ATOM     31  C   UNL     1      23.168   2.756  21.122  0.00  0.00    +0.131 A 
ATOM     32  C   UNL     1      24.107   3.386  20.334  0.00  0.00    +0.130 A 
ENDBRANCH  22  27
ENDBRANCH  16   4
ENDBRANCH  10  16
BRANCH  12  17
ATOM     17  C   UNL     1      15.700  10.257  22.443  0.00  0.00    +0.103 C 
BRANCH  17  21
ATOM      1  O   UNL     1      14.420  12.047  21.437  0.00  0.00    -0.276 OA
ATOM      5  N   UNL     1      13.373  10.569  22.892  0.00  0.00    -0.314 N 
ATOM     21  C   UNL     1      14.453  11.071  22.182  0.00  0.00    +0.214 C 
ATOM     34  H   UNL     1      13.501   9.749  23.478  0.00  0.00    +0.149 HD
BRANCH   5  23
ATOM     23  C   UNL     1      12.052  11.151  22.834  0.00  0.00    +0.119 C 
BRANCH  23  24
ATOM     24  C   UNL     1      11.009  10.113  22.446  0.00  0.00    +0.103 C 
BRANCH  24   6
ATOM      2  O   UNL     1      11.555   6.737  20.014  0.00  0.00    -0.377 OA
ATOM      6  N   UNL     1      11.638   9.002  21.735  0.00  0.00    -0.297 NA
ATOM     25  C   UNL     1      11.462   9.146  20.283  0.00  0.00    +0.112 C 
ATOM     26  C   UNL     1      11.088   7.716  22.184  0.00  0.00    +0.112 C 
ATOM     28  C   UNL     1      12.115   7.971  19.563  0.00  0.00    +0.175 C 
ATOM     29  C   UNL     1      11.751   6.574  21.420  0.00  0.00    +0.175 C 
ENDBRANCH  24   6
ENDBRANCH  23  24
ENDBRANCH   5  23
ENDBRANCH  17  21
ENDBRANCH  12  17
TORSDOF 9
ENDMDL
MODEL 2
REMARK VINA RESULT:      -6.5      3.152      5.412
REMARK  Name = 38027067
REMARK  12 active torsions:
REMARK  status: ('A' for Active; 'I' for Inactive)
REMARK    1  A    between atoms: N_4  and  C_16
REMARK    2  A    between atoms: N_5  and  C_23
REMARK    3  A    between atoms: N_6  and  C_24
REMARK    4  A    between atoms: C_9  and  C_13
REMARK    5  A    between atoms: C_10  and  C_16
REMARK    6  A    between atoms: C_12  and  C_17
REMARK    7  A    between atoms: C_13  and  C_18
REMARK    8  A    between atoms: C_13  and  C_19
REMARK    9  A    between atoms: C_14  and  C_20
REMARK   10  A    between atoms: C_17  and  C_21
REMARK   11  A    between atoms: C_22  and  C_27
REMARK   12  A    between atoms: C_23  and  C_24
REMARK                            x       y       z     vdW  Elec       q    Type
REMARK                         _______ _______ _______ _____ _____    ______ ____
ROOT
ATOM      9  C   UNL     1      13.156   8.758  19.526  0.00  0.00    +0.000 C 
ATOM     10  C   UNL     1      13.497   8.203  18.121  0.00  0.00    +0.032 C 
ATOM     11  C   UNL     1      12.517  10.151  19.412  0.00  0.00    +0.012 C 
ATOM     12  C   UNL     1      13.439  11.158  18.699  0.00  0.00    +0.023 C 
ATOM     14  C   UNL     1      14.032  10.579  17.430  0.00  0.00    -0.073 C 
ATOM     15  C   UNL     1      14.037   9.258  17.183  0.00  0.00    -0.022 C 
ATOM     20  C   UNL     1      14.578  11.560  16.430  0.00  0.00    +0.039 C 
ENDROOT
BRANCH   9  13
ATOM     13  C   UNL     1      12.222   7.820  20.296  0.00  0.00    -0.013 C 
ATOM     18  C   UNL     1      12.823   7.467  21.653  0.00  0.00    +0.007 C 
ATOM     19  C   UNL     1      10.847   8.457  20.462  0.00  0.00    +0.007 C 
ENDBRANCH   9  13
BRANCH  10  16
ATOM     16  C   UNL     1      14.494   7.042  18.210  0.00  0.00    +0.112 C 
BRANCH  16   4
ATOM      3  O   UNL     1      16.826   5.452  18.737  0.00  0.00    -0.268 OA
ATOM      4  N   UNL     1      15.544   7.345  19.133  0.00  0.00    -0.309 N 
ATOM     22  C   UNL     1      16.646   6.513  19.327  0.00  0.00    +0.264 C 
ATOM     33  H   UNL     1      15.504   8.224  19.640  0.00  0.00    +0.149 HD
BRANCH  22  27
ATOM      7  N   UNL     1      18.664   6.120  20.588  0.00  0.00    -0.247 NA
ATOM      8  N   UNL     1      18.398   8.577  21.916  0.00  0.00    -0.259 NA
ATOM     27  C   UNL     1      17.637   6.958  20.341  0.00  0.00    +0.143 A 
ATOM     30  C   UNL     1      17.506   8.164  20.993  0.00  0.00    +0.143 A 
ATOM     31  C   UNL     1      19.556   6.533  21.512  0.00  0.00    +0.131 A 
ATOM     32  C   UNL     1      19.424   7.740  22.164  0.00  0.00    +0.130 A 
ENDBRANCH  22  27
ENDBRANCH  16   4
ENDBRANCH  10  16
BRANCH  12  17
ATOM     17  C   UNL     1      14.540  11.660  19.640  0.00  0.00    +0.103 C 
BRANCH  17  21
ATOM      1  O   UNL     1      14.280  11.938  22.030  0.00  0.00    -0.276 OA
ATOM      5  N   UNL     1      13.078  13.300  20.581  0.00  0.00    -0.314 N 
ATOM     21  C   UNL     1      13.975  12.289  20.893  0.00  0.00    +0.214 C 
ATOM     34  H   UNL     1      12.897  13.521  19.606  0.00  0.00    +0.149 HD
BRANCH   5  23
ATOM     23  C   UNL     1      12.382  14.074  21.583  0.00  0.00    +0.119 C 
BRANCH  23  24
ATOM     24  C   UNL     1      11.019  13.473  21.896  0.00  0.00    +0.103 C 
BRANCH  24   6
ATOM      2  O   UNL     1      12.090  11.887  25.631  0.00  0.00    -0.377 OA
ATOM      6  N   UNL     1      10.959  13.053  23.295  0.00  0.00    -0.297 NA
ATOM     25  C   UNL     1      11.966  13.761  24.096  0.00  0.00    +0.112 C 
ATOM     26  C   UNL     1      11.150  11.601  23.413  0.00  0.00    +0.112 C 
ATOM     28  C   UNL     1      11.892  13.299  25.548  0.00  0.00    +0.175 C 
ATOM     29  C   UNL     1      11.095  11.189  24.881  0.00  0.00    +0.175 C 
ENDBRANCH  24   6
ENDBRANCH  23  24
ENDBRANCH   5  23
ENDBRANCH  17  21
ENDBRANCH  12  17
TORSDOF 9
ENDMDL
MODEL 3
REMARK VINA RESULT:      -6.3     27.494     31.336
REMARK  Name = 38027067
REMARK  12 active torsions:
REMARK  status: ('A' for Active; 'I' for Inactive)
REMARK    1  A    between atoms: N_4  and  C_16
REMARK    2  A    between atoms: N_5  and  C_23
REMARK    3  A    between atoms: N_6  and  C_24
REMARK    4  A    between atoms: C_9  and  C_13
REMARK    5  A    between atoms: C_10  and  C_16
REMARK    6  A    between atoms: C_12  and  C_17
REMARK    7  A    between atoms: C_13  and  C_18
REMARK    8  A    between atoms: C_13  and  C_19
REMARK    9  A    between atoms: C_14  and  C_20
REMARK   10  A    between atoms: C_17  and  C_21
REMARK   11  A    between atoms: C_22  and  C_27
REMARK   12  A    between atoms: C_23  and  C_24
REMARK                            x       y       z     vdW  Elec       q    Type
REMARK                         _______ _______ _______ _____ _____    ______ ____
ROOT
ATOM      9  C   UNL     1      -5.170 -10.578  10.546  0.00  0.00    +0.000 C 
ATOM     10  C   UNL     1      -4.659  -9.544   9.513  0.00  0.00    +0.032 C 
ATOM     11  C   UNL     1      -4.640 -10.241  11.949  0.00  0.00    +0.012 C 
ATOM     12  C   UNL     1      -3.101 -10.218  12.001  0.00  0.00    +0.023 C 
ATOM     14  C   UNL     1      -2.511  -9.433  10.848  0.00  0.00    -0.073 C 
ATOM     15  C   UNL     1      -3.225  -9.129   9.750  0.00  0.00    -0.022 C 
ATOM     20  C   UNL     1      -1.091  -8.964  11.005  0.00  0.00    +0.039 C 
ENDROOT
BRANCH   9  13
ATOM     13  C   UNL     1      -6.700 -10.647  10.572  0.00  0.00    -0.013 C 
ATOM     18  C   UNL     1      -7.171 -11.587  11.678  0.00  0.00    +0.007 C 
ATOM     19  C   UNL     1      -7.293  -9.255  10.757  0.00  0.00    +0.007 C 
ENDBRANCH   9  13
BRANCH  10  16
ATOM     16  C   UNL     1      -4.807 -10.071   8.081  0.00  0.00    +0.112 C 
BRANCH  16   4
ATOM      3  O   UNL     1      -6.106 -10.848   5.641  0.00  0.00    -0.268 OA
ATOM      4  N   UNL     1      -5.798  -9.327   7.367  0.00  0.00    -0.309 N 
ATOM     22  C   UNL     1      -6.379  -9.781   6.184  0.00  0.00    +0.264 C 
ATOM     33  H   UNL     1      -6.119  -8.447   7.759  0.00  0.00    +0.149 HD
BRANCH  22  27
ATOM      7  N   UNL     1      -7.472  -8.936   4.207  0.00  0.00    -0.247 NA
ATOM      8  N   UNL     1      -9.057  -7.201   5.737  0.00  0.00    -0.259 NA
ATOM     27  C   UNL     1      -7.375  -8.878   5.550  0.00  0.00    +0.143 A 
ATOM     30  C   UNL     1      -8.153  -8.026   6.302  0.00  0.00    +0.143 A 
ATOM     31  C   UNL     1      -8.377  -8.111   3.642  0.00  0.00    +0.131 A 
ATOM     32  C   UNL     1      -9.155  -7.258   4.395  0.00  0.00    +0.130 A 
ENDBRANCH  22  27
ENDBRANCH  16   4
ENDBRANCH  10  16
BRANCH  12  17
ATOM     17  C   UNL     1      -2.529 -11.640  12.046  0.00  0.00    +0.103 C 
BRANCH  17  21
ATOM      1  O   UNL     1      -1.405 -13.047  13.663  0.00  0.00    -0.276 OA
ATOM      5  N   UNL     1      -1.961 -10.865  14.235  0.00  0.00    -0.314 N 
ATOM     21  C   UNL     1      -1.900 -11.958  13.384  0.00  0.00    +0.214 C 
ATOM     34  H   UNL     1      -2.386 -10.001  13.906  0.00  0.00    +0.149 HD
BRANCH   5  23
ATOM     23  C   UNL     1      -1.437 -10.882  15.581  0.00  0.00    +0.119 C 
BRANCH  23  24
ATOM     24  C   UNL     1      -2.549 -11.064  16.603  0.00  0.00    +0.103 C 
BRANCH  24   6
ATOM      2  O   UNL     1      -6.697 -11.126  15.970  0.00  0.00    -0.377 OA
ATOM      6  N   UNL     1      -3.856 -10.974  15.954  0.00  0.00    -0.297 NA
ATOM     25  C   UNL     1      -4.677  -9.928  16.578  0.00  0.00    +0.112 C 
ATOM     26  C   UNL     1      -4.556 -12.265  16.009  0.00  0.00    +0.112 C 
ATOM     28  C   UNL     1      -6.039  -9.860  15.893  0.00  0.00    +0.175 C 
ATOM     29  C   UNL     1      -5.920 -12.143  15.336  0.00  0.00    +0.175 C 
ENDBRANCH  24   6
ENDBRANCH  23  24
ENDBRANCH   5  23
ENDBRANCH  17  21
ENDBRANCH  12  17
TORSDOF 9
ENDMDL
MODEL 4
REMARK VINA RESULT:      -6.3     27.856     31.862
REMARK  Name = 38027067
REMARK  12 active torsions:
REMARK  status: ('A' for Active; 'I' for Inactive)
REMARK    1  A    between atoms: N_4  and  C_16
REMARK    2  A    between atoms: N_5  and  C_23
REMARK    3  A    between atoms: N_6  and  C_24
REMARK    4  A    between atoms: C_9  and  C_13
REMARK    5  A    between atoms: C_10  and  C_16
REMARK    6  A    between atoms: C_12  and  C_17
REMARK    7  A    between atoms: C_13  and  C_18
REMARK    8  A    between atoms: C_13  and  C_19
REMARK    9  A    between atoms: C_14  and  C_20
REMARK   10  A    between atoms: C_17  and  C_21
REMARK   11  A    between atoms: C_22  and  C_27
REMARK   12  A    between atoms: C_23  and  C_24
REMARK                            x       y       z     vdW  Elec       q    Type
REMARK                         _______ _______ _______ _____ _____    ______ ____
ROOT
ATOM      9  C   UNL     1      -6.820 -10.936  16.852  0.00  0.00    +0.000 C 
ATOM     10  C   UNL     1      -7.081 -11.322  18.329  0.00  0.00    +0.032 C 
ATOM     11  C   UNL     1      -5.716 -11.822  16.253  0.00  0.00    +0.012 C 
ATOM     12  C   UNL     1      -4.391 -11.707  17.029  0.00  0.00    +0.023 C 
ATOM     14  C   UNL     1      -4.605 -11.810  18.526  0.00  0.00    -0.073 C 
ATOM     15  C   UNL     1      -5.815 -11.649  19.087  0.00  0.00    -0.022 C 
ATOM     20  C   UNL     1      -3.400 -12.150  19.359  0.00  0.00    +0.039 C 
ENDROOT
BRANCH   9  13
ATOM     13  C   UNL     1      -8.090 -11.045  16.003  0.00  0.00    -0.013 C 
ATOM     18  C   UNL     1      -8.478  -9.678  15.448  0.00  0.00    +0.007 C 
ATOM     19  C   UNL     1      -7.892 -12.050  14.874  0.00  0.00    +0.007 C 
ENDBRANCH   9  13
BRANCH  10  16
ATOM     16  C   UNL     1      -7.846 -10.216  19.064  0.00  0.00    +0.112 C 
BRANCH  16   4
ATOM      3  O   UNL     1     -10.585  -9.683  18.388  0.00  0.00    -0.268 OA
ATOM      4  N   UNL     1      -9.004 -10.745  19.714  0.00  0.00    -0.309 N 
ATOM     22  C   UNL     1     -10.304 -10.433  19.319  0.00  0.00    +0.264 C 
ATOM     33  H   UNL     1      -8.873 -11.408  20.473  0.00  0.00    +0.149 HD
BRANCH  22  27
ATOM      7  N   UNL     1     -11.236 -12.333  20.476  0.00  0.00    -0.247 NA
ATOM      8  N   UNL     1     -13.526 -10.872  21.178  0.00  0.00    -0.259 NA
ATOM     27  C   UNL     1     -11.400 -11.045  20.114  0.00  0.00    +0.143 A 
ATOM     30  C   UNL     1     -12.524 -10.327  20.459  0.00  0.00    +0.143 A 
ATOM     31  C   UNL     1     -12.238 -12.878  21.195  0.00  0.00    +0.131 A 
ATOM     32  C   UNL     1     -13.363 -12.160  21.539  0.00  0.00    +0.130 A 
ENDBRANCH  22  27
ENDBRANCH  16   4
ENDBRANCH  10  16
BRANCH  12  17
ATOM     17  C   UNL     1      -3.651 -10.413  16.668  0.00  0.00    +0.103 C 
BRANCH  17  21
ATOM      1  O   UNL     1      -1.397 -11.092  16.108  0.00  0.00    -0.276 OA
ATOM      5  N   UNL     1      -2.820 -10.350  14.428  0.00  0.00    -0.314 N 
ATOM     21  C   UNL     1      -2.487 -10.665  15.737  0.00  0.00    +0.214 C 
ATOM     34  H   UNL     1      -3.756 -10.009  14.221  0.00  0.00    +0.149 HD
BRANCH   5  23
ATOM     23  C   UNL     1      -1.900 -10.490  13.323  0.00  0.00    +0.119 C 
BRANCH  23  24
ATOM     24  C   UNL     1      -2.388 -11.532  12.328  0.00  0.00    +0.103 C 
BRANCH  24   6
ATOM      2  O   UNL     1      -4.171 -10.130   8.797  0.00  0.00    -0.377 OA
ATOM      6  N   UNL     1      -3.346 -10.936  11.398  0.00  0.00    -0.297 NA
ATOM     25  C   UNL     1      -3.773 -11.916  10.390  0.00  0.00    +0.112 C 
ATOM     26  C   UNL     1      -2.770  -9.755  10.741  0.00  0.00    +0.112 C 
ATOM     28  C   UNL     1      -4.762 -11.269   9.425  0.00  0.00    +0.175 C 
ATOM     29  C   UNL     1      -3.784  -9.158   9.768  0.00  0.00    +0.175 C 
ENDBRANCH  24   6
ENDBRANCH  23  24
ENDBRANCH   5  23
ENDBRANCH  17  21
ENDBRANCH  12  17
TORSDOF 9
ENDMDL
MODEL 5
REMARK VINA RESULT:      -6.2     27.790     30.708
REMARK  Name = 38027067
REMARK  12 active torsions:
REMARK  status: ('A' for Active; 'I' for Inactive)
REMARK    1  A    between atoms: N_4  and  C_16
REMARK    2  A    between atoms: N_5  and  C_23
REMARK    3  A    between atoms: N_6  and  C_24
REMARK    4  A    between atoms: C_9  and  C_13
REMARK    5  A    between atoms: C_10  and  C_16
REMARK    6  A    between atoms: C_12  and  C_17
REMARK    7  A    between atoms: C_13  and  C_18
REMARK    8  A    between atoms: C_13  and  C_19
REMARK    9  A    between atoms: C_14  and  C_20
REMARK   10  A    between atoms: C_17  and  C_21
REMARK   11  A    between atoms: C_22  and  C_27
REMARK   12  A    between atoms: C_23  and  C_24
REMARK                            x       y       z     vdW  Elec       q    Type
REMARK                         _______ _______ _______ _____ _____    ______ ____
ROOT
ATOM      9  C   UNL     1      -2.990 -12.377  12.829  0.00  0.00    +0.000 C 
ATOM     10  C   UNL     1      -1.930 -11.247  12.800  0.00  0.00    +0.032 C 
ATOM     11  C   UNL     1      -3.450 -12.717  11.403  0.00  0.00    +0.012 C 
ATOM     12  C   UNL     1      -4.054 -11.499  10.679  0.00  0.00    +0.023 C 
ATOM     14  C   UNL     1      -3.188 -10.265  10.835  0.00  0.00    -0.073 C 
ATOM     15  C   UNL     1      -2.236 -10.176  11.779  0.00  0.00    -0.022 C 
ATOM     20  C   UNL     1      -3.412  -9.153   9.848  0.00  0.00    +0.039 C 
ENDROOT
BRANCH   9  13
ATOM     13  C   UNL     1      -2.458 -13.638  13.518  0.00  0.00    -0.013 C 
ATOM     18  C   UNL     1      -3.455 -14.137  14.558  0.00  0.00    +0.007 C 
ATOM     19  C   UNL     1      -2.162 -14.722  12.488  0.00  0.00    +0.007 C 
ENDBRANCH   9  13
BRANCH  10  16
ATOM     16  C   UNL     1      -1.768 -10.604  14.182  0.00  0.00    +0.112 C 
BRANCH  16   4
ATOM      3  O   UNL     1      -2.438 -11.003  16.945  0.00  0.00    -0.268 OA
ATOM      4  N   UNL     1      -3.042 -10.384  14.791  0.00  0.00    -0.309 N 
ATOM     22  C   UNL     1      -3.282 -10.604  16.147  0.00  0.00    +0.264 C 
ATOM     33  H   UNL     1      -3.796 -10.015  14.219  0.00  0.00    +0.149 HD
BRANCH  22  27
ATOM      7  N   UNL     1      -5.516  -9.792  15.737  0.00  0.00    -0.247 NA
ATOM      8  N   UNL     1      -6.312 -10.454  18.344  0.00  0.00    -0.259 NA
ATOM     27  C   UNL     1      -4.668 -10.353  16.621  0.00  0.00    +0.143 A 
ATOM     30  C   UNL     1      -5.058 -10.679  17.902  0.00  0.00    +0.143 A 
ATOM     31  C   UNL     1      -6.770  -9.567  16.180  0.00  0.00    +0.131 A 
ATOM     32  C   UNL     1      -7.160  -9.893  17.461  0.00  0.00    +0.130 A 
ENDBRANCH  22  27
ENDBRANCH  16   4
ENDBRANCH  10  16
BRANCH  12  17
ATOM     17  C   UNL     1      -5.486 -11.229  11.156  0.00  0.00    +0.103 C 
BRANCH  17  21
ATOM      1  O   UNL     1      -6.501 -11.325   8.962  0.00  0.00    -0.276 OA
ATOM      5  N   UNL     1      -7.016  -9.563  10.385  0.00  0.00    -0.314 N 
ATOM     21  C   UNL     1      -6.376 -10.741  10.035  0.00  0.00    +0.214 C 
ATOM     34  H   UNL     1      -6.852  -9.161  11.304  0.00  0.00    +0.149 HD
BRANCH   5  23
ATOM     23  C   UNL     1      -7.928  -8.868   9.505  0.00  0.00    +0.119 C 
BRANCH  23  24
ATOM     24  C   UNL     1      -7.250  -7.683   8.832  0.00  0.00    +0.103 C 
BRANCH  24   6
ATOM      2  O   UNL     1     -10.694  -6.755   6.622  0.00  0.00    -0.377 OA
ATOM      6  N   UNL     1      -8.191  -6.990   7.954  0.00  0.00    -0.297 NA
ATOM     25  C   UNL     1      -9.417  -6.635   8.681  0.00  0.00    +0.112 C 
ATOM     26  C   UNL     1      -8.519  -7.817   6.785  0.00  0.00    +0.112 C 
ATOM     28  C   UNL     1     -10.388  -5.924   7.743  0.00  0.00    +0.175 C 
ATOM     29  C   UNL     1      -9.510  -7.078   5.890  0.00  0.00    +0.175 C 
ENDBRANCH  24   6
ENDBRANCH  23  24
ENDBRANCH   5  23
ENDBRANCH  17  21
ENDBRANCH  12  17
TORSDOF 9
ENDMDL
MODEL 6
REMARK VINA RESULT:      -6.2     27.868     31.198
REMARK  Name = 38027067
REMARK  12 active torsions:
REMARK  status: ('A' for Active; 'I' for Inactive)
REMARK    1  A    between atoms: N_4  and  C_16
REMARK    2  A    between atoms: N_5  and  C_23
REMARK    3  A    between atoms: N_6  and  C_24
REMARK    4  A    between atoms: C_9  and  C_13
REMARK    5  A    between atoms: C_10  and  C_16
REMARK    6  A    between atoms: C_12  and  C_17
REMARK    7  A    between atoms: C_13  and  C_18
REMARK    8  A    between atoms: C_13  and  C_19
REMARK    9  A    between atoms: C_14  and  C_20
REMARK   10  A    between atoms: C_17  and  C_21
REMARK   11  A    between atoms: C_22  and  C_27
REMARK   12  A    between atoms: C_23  and  C_24
REMARK                            x       y       z     vdW  Elec       q    Type
REMARK                         _______ _______ _______ _____ _____    ______ ____
ROOT
ATOM      9  C   UNL     1     -12.245  10.060  19.679  0.00  0.00    +0.000 C 
ATOM     10  C   UNL     1     -10.869   9.403  19.947  0.00  0.00    +0.032 C 
ATOM     11  C   UNL     1     -13.258   9.643  20.756  0.00  0.00    +0.012 C 
ATOM     12  C   UNL     1     -13.449   8.115  20.816  0.00  0.00    +0.023 C 
ATOM     14  C   UNL     1     -12.124   7.381  20.812  0.00  0.00    -0.073 C 
ATOM     15  C   UNL     1     -10.979   7.977  20.434  0.00  0.00    -0.022 C 
ATOM     20  C   UNL     1     -12.137   5.959  21.298  0.00  0.00    +0.039 C 
ENDROOT
BRANCH   9  13
ATOM     13  C   UNL     1     -12.145  11.588  19.625  0.00  0.00    -0.013 C 
ATOM     18  C   UNL     1     -12.479  12.094  18.225  0.00  0.00    +0.007 C 
ATOM     19  C   UNL     1     -13.067  12.219  20.663  0.00  0.00    +0.007 C 
ENDBRANCH   9  13
BRANCH  10  16
ATOM     16  C   UNL     1      -9.980   9.449  18.699  0.00  0.00    +0.112 C 
BRANCH  16   4
ATOM      3  O   UNL     1     -10.140  10.455  16.015  0.00  0.00    -0.268 OA
ATOM      4  N   UNL     1     -10.630   8.823  17.590  0.00  0.00    -0.309 N 
ATOM     22  C   UNL     1     -10.660   9.383  16.314  0.00  0.00    +0.264 C 
ATOM     33  H   UNL     1     -11.056   7.911  17.730  0.00  0.00    +0.149 HD
BRANCH  22  27
ATOM      7  N   UNL     1     -12.744   8.641  15.354  0.00  0.00    -0.247 NA
ATOM      8  N   UNL     1     -11.396   7.229  13.340  0.00  0.00    -0.259 NA
ATOM     27  C   UNL     1     -11.399   8.620  15.275  0.00  0.00    +0.143 A 
ATOM     30  C   UNL     1     -10.736   7.927  14.286  0.00  0.00    +0.143 A 
ATOM     31  C   UNL     1     -13.404   7.943  14.408  0.00  0.00    +0.131 A 
ATOM     32  C   UNL     1     -12.741   7.249  13.419  0.00  0.00    +0.130 A 
ENDBRANCH  22  27
ENDBRANCH  16   4
ENDBRANCH  10  16
BRANCH  12  17
ATOM     17  C   UNL     1     -14.350   7.627  19.675  0.00  0.00    +0.103 C 
BRANCH  17  21
ATOM      1  O   UNL     1     -16.278   6.182  19.447  0.00  0.00    -0.276 OA
ATOM      5  N   UNL     1     -15.579   6.832  21.565  0.00  0.00    -0.314 N 
ATOM     21  C   UNL     1     -15.509   6.798  20.181  0.00  0.00    +0.214 C 
ATOM     34  H   UNL     1     -14.888   7.366  22.085  0.00  0.00    +0.149 HD
BRANCH   5  23
ATOM     23  C   UNL     1     -16.590   6.130  22.322  0.00  0.00    +0.119 C 
BRANCH  23  24
ATOM     24  C   UNL     1     -16.045   5.655  23.661  0.00  0.00    +0.103 C 
BRANCH  24   6
ATOM      2  O   UNL     1     -16.828   1.560  24.145  0.00  0.00    -0.377 OA
ATOM      6  N   UNL     1     -16.686   4.401  24.054  0.00  0.00    -0.297 NA
ATOM     25  C   UNL     1     -15.803   3.616  24.927  0.00  0.00    +0.112 C 
ATOM     26  C   UNL     1     -17.058   3.612  22.871  0.00  0.00    +0.112 C 
ATOM     28  C   UNL     1     -16.486   2.308  25.314  0.00  0.00    +0.175 C 
ATOM     29  C   UNL     1     -17.713   2.304  23.307  0.00  0.00    +0.175 C 
ENDBRANCH  24   6
ENDBRANCH  23  24
ENDBRANCH   5  23
ENDBRANCH  17  21
ENDBRANCH  12  17
TORSDOF 9
ENDMDL
MODEL 7
REMARK VINA RESULT:      -6.1      3.423      5.733
REMARK  Name = 38027067
REMARK  12 active torsions:
REMARK  status: ('A' for Active; 'I' for Inactive)
REMARK    1  A    between atoms: N_4  and  C_16
REMARK    2  A    between atoms: N_5  and  C_23
REMARK    3  A    between atoms: N_6  and  C_24
REMARK    4  A    between atoms: C_9  and  C_13
REMARK    5  A    between atoms: C_10  and  C_16
REMARK    6  A    between atoms: C_12  and  C_17
REMARK    7  A    between atoms: C_13  and  C_18
REMARK    8  A    between atoms: C_13  and  C_19
REMARK    9  A    between atoms: C_14  and  C_20
REMARK   10  A    between atoms: C_17  and  C_21
REMARK   11  A    between atoms: C_22  and  C_27
REMARK   12  A    between atoms: C_23  and  C_24
REMARK                            x       y       z     vdW  Elec       q    Type
REMARK                         _______ _______ _______ _____ _____    ______ ____
ROOT
ATOM      9  C   UNL     1      20.446   6.018  21.942  0.00  0.00    +0.000 C 
ATOM     10  C   UNL     1      20.673   7.283  22.807  0.00  0.00    +0.032 C 
ATOM     11  C   UNL     1      19.971   6.410  20.534  0.00  0.00    +0.012 C 
ATOM     12  C   UNL     1      18.662   7.222  20.565  0.00  0.00    +0.023 C 
ATOM     14  C   UNL     1      18.712   8.331  21.595  0.00  0.00    -0.073 C 
ATOM     15  C   UNL     1      19.626   8.349  22.581  0.00  0.00    -0.022 C 
ATOM     20  C   UNL     1      17.716   9.446  21.438  0.00  0.00    +0.039 C 
ENDROOT
BRANCH   9  13
ATOM     13  C   UNL     1      21.712   5.163  21.843  0.00  0.00    -0.013 C 
ATOM     18  C   UNL     1      21.381   3.786  21.275  0.00  0.00    +0.007 C 
ATOM     19  C   UNL     1      22.762   5.862  20.986  0.00  0.00    +0.007 C 
ENDBRANCH   9  13
BRANCH  10  16
ATOM     16  C   UNL     1      20.731   6.931  24.298  0.00  0.00    +0.112 C 
BRANCH  16   4
ATOM      3  O   UNL     1      22.140   8.871  25.877  0.00  0.00    -0.268 OA
ATOM      4  N   UNL     1      20.151   7.973  25.087  0.00  0.00    -0.309 N 
ATOM     22  C   UNL     1      20.913   8.876  25.827  0.00  0.00    +0.264 C 
ATOM     33  H   UNL     1      19.141   8.083  25.079  0.00  0.00    +0.149 HD
BRANCH  22  27
ATOM      7  N   UNL     1      19.437   9.420  27.656  0.00  0.00    -0.247 NA
ATOM      8  N   UNL     1      19.514  12.146  27.002  0.00  0.00    -0.259 NA
ATOM     27  C   UNL     1      20.158   9.884  26.617  0.00  0.00    +0.143 A 
ATOM     30  C   UNL     1      20.196  11.223  26.295  0.00  0.00    +0.143 A 
ATOM     31  C   UNL     1      18.755  10.343  28.364  0.00  0.00    +0.131 A 
ATOM     32  C   UNL     1      18.793  11.682  28.042  0.00  0.00    +0.130 A 
ENDBRANCH  22  27
ENDBRANCH  16   4
ENDBRANCH  10  16
BRANCH  12  17
ATOM     17  C   UNL     1      17.452   6.309  20.799  0.00  0.00    +0.103 C 
BRANCH  17  21
ATOM      1  O   UNL     1      16.651   5.718  18.594  0.00  0.00    -0.276 OA
ATOM      5  N   UNL     1      15.399   7.158  19.919  0.00  0.00    -0.314 N 
ATOM     21  C   UNL     1      16.483   6.341  19.639  0.00  0.00    +0.214 C 
ATOM     34  H   UNL     1      15.347   7.626  20.820  0.00  0.00    +0.149 HD
BRANCH   5  23
ATOM     23  C   UNL     1      14.315   7.378  18.988  0.00  0.00    +0.119 C 
BRANCH  23  24
ATOM     24  C   UNL     1      13.348   8.432  19.507  0.00  0.00    +0.103 C 
BRANCH  24   6
ATOM      2  O   UNL     1      10.240   7.115  21.999  0.00  0.00    -0.377 OA
ATOM      6  N   UNL     1      12.621   7.926  20.669  0.00  0.00    -0.297 NA
ATOM     25  C   UNL     1      11.965   6.649  20.359  0.00  0.00    +0.112 C 
ATOM     26  C   UNL     1      11.626   8.905  21.130  0.00  0.00    +0.112 C 
ATOM     28  C   UNL     1      11.203   6.146  21.581  0.00  0.00    +0.175 C 
ATOM     29  C   UNL     1      10.873   8.350  22.335  0.00  0.00    +0.175 C 
ENDBRANCH  24   6
ENDBRANCH  23  24
ENDBRANCH   5  23
ENDBRANCH  17  21
ENDBRANCH  12  17
TORSDOF 9
ENDMDL
MODEL 8
REMARK VINA RESULT:      -6.1      3.455      6.283
REMARK  Name = 38027067
REMARK  12 active torsions:
REMARK  status: ('A' for Active; 'I' for Inactive)
REMARK    1  A    between atoms: N_4  and  C_16
REMARK    2  A    between atoms: N_5  and  C_23
REMARK    3  A    between atoms: N_6  and  C_24
REMARK    4  A    between atoms: C_9  and  C_13
REMARK    5  A    between atoms: C_10  and  C_16
REMARK    6  A    between atoms: C_12  and  C_17
REMARK    7  A    between atoms: C_13  and  C_18
REMARK    8  A    between atoms: C_13  and  C_19
REMARK    9  A    between atoms: C_14  and  C_20
REMARK   10  A    between atoms: C_17  and  C_21
REMARK   11  A    between atoms: C_22  and  C_27
REMARK   12  A    between atoms: C_23  and  C_24
REMARK                            x       y       z     vdW  Elec       q    Type
REMARK                         _______ _______ _______ _____ _____    ______ ____
ROOT
ATOM      9  C   UNL     1      11.988   9.536  20.883  0.00  0.00    +0.000 C 
ATOM     10  C   UNL     1      11.828   8.564  19.688  0.00  0.00    +0.032 C 
ATOM     11  C   UNL     1      12.141  10.981  20.382  0.00  0.00    +0.012 C 
ATOM     12  C   UNL     1      13.356  11.148  19.450  0.00  0.00    +0.023 C 
ATOM     14  C   UNL     1      13.415  10.057  18.400  0.00  0.00    -0.073 C 
ATOM     15  C   UNL     1      12.715   8.916  18.517  0.00  0.00    -0.022 C 
ATOM     20  C   UNL     1      14.262  10.330  17.189  0.00  0.00    +0.039 C 
ENDROOT
BRANCH   9  13
ATOM     13  C   UNL     1      10.804   9.446  21.851  0.00  0.00    -0.013 C 
ATOM     18  C   UNL     1      10.783   8.086  22.541  0.00  0.00    +0.007 C 
ATOM     19  C   UNL     1      10.868  10.572  22.878  0.00  0.00    +0.007 C 
ENDBRANCH   9  13
BRANCH  10  16
ATOM     16  C   UNL     1      12.095   7.115  20.114  0.00  0.00    +0.112 C 
BRANCH  16   4
ATOM      3  O   UNL     1      14.286   7.404  21.946  0.00  0.00    -0.268 OA
ATOM      4  N   UNL     1      13.459   6.760  19.876  0.00  0.00    -0.309 N 
ATOM     22  C   UNL     1      14.464   6.934  20.826  0.00  0.00    +0.264 C 
ATOM     33  H   UNL     1      13.699   6.326  18.989  0.00  0.00    +0.149 HD
BRANCH  22  27
ATOM      7  N   UNL     1      15.984   6.101  19.148  0.00  0.00    -0.247 NA
ATOM      8  N   UNL     1      18.147   6.260  20.927  0.00  0.00    -0.259 NA
ATOM     27  C   UNL     1      15.837   6.539  20.414  0.00  0.00    +0.143 A 
ATOM     30  C   UNL     1      16.899   6.618  21.288  0.00  0.00    +0.143 A 
ATOM     31  C   UNL     1      17.233   5.743  18.787  0.00  0.00    +0.131 A 
ATOM     32  C   UNL     1      18.296   5.821  19.661  0.00  0.00    +0.130 A 
ENDBRANCH  22  27
ENDBRANCH  16   4
ENDBRANCH  10  16
BRANCH  12  17
ATOM     17  C   UNL     1      14.662  11.210  20.252  0.00  0.00    +0.103 C 
BRANCH  17  21
ATOM      1  O   UNL     1      15.306  13.540  20.154  0.00  0.00    -0.276 OA
ATOM      5  N   UNL     1      14.648  12.619  22.182  0.00  0.00    -0.314 N 
ATOM     21  C   UNL     1      14.915  12.587  20.822  0.00  0.00    +0.214 C 
ATOM     34  H   UNL     1      14.319  11.776  22.645  0.00  0.00    +0.149 HD
BRANCH   5  23
ATOM     23  C   UNL     1      14.804  13.807  22.990  0.00  0.00    +0.119 C 
BRANCH  23  24
ATOM     24  C   UNL     1      13.567  14.690  22.916  0.00  0.00    +0.103 C 
BRANCH  24   6
ATOM      2  O   UNL     1      10.268  13.882  25.380  0.00  0.00    -0.377 OA
ATOM      6  N   UNL     1      12.424  14.016  23.528  0.00  0.00    -0.297 NA
ATOM     25  C   UNL     1      11.193  14.792  23.330  0.00  0.00    +0.112 C 
ATOM     26  C   UNL     1      12.656  13.794  24.963  0.00  0.00    +0.112 C 
ATOM     28  C   UNL     1      10.017  14.075  23.987  0.00  0.00    +0.175 C 
ATOM     29  C   UNL     1      11.446  13.099  25.581  0.00  0.00    +0.175 C 
ENDBRANCH  24   6
ENDBRANCH  23  24
ENDBRANCH   5  23
ENDBRANCH  17  21
ENDBRANCH  12  17
TORSDOF 9
ENDMDL
MODEL 9
REMARK VINA RESULT:      -6.1     27.398     30.941
REMARK  Name = 38027067
REMARK  12 active torsions:
REMARK  status: ('A' for Active; 'I' for Inactive)
REMARK    1  A    between atoms: N_4  and  C_16
REMARK    2  A    between atoms: N_5  and  C_23
REMARK    3  A    between atoms: N_6  and  C_24
REMARK    4  A    between atoms: C_9  and  C_13
REMARK    5  A    between atoms: C_10  and  C_16
REMARK    6  A    between atoms: C_12  and  C_17
REMARK    7  A    between atoms: C_13  and  C_18
REMARK    8  A    between atoms: C_13  and  C_19
REMARK    9  A    between atoms: C_14  and  C_20
REMARK   10  A    between atoms: C_17  and  C_21
REMARK   11  A    between atoms: C_22  and  C_27
REMARK   12  A    between atoms: C_23  and  C_24
REMARK                            x       y       z     vdW  Elec       q    Type
REMARK                         _______ _______ _______ _____ _____    ______ ____
ROOT
ATOM      9  C   UNL     1      -5.089 -12.297  16.345  0.00  0.00    +0.000 C 
ATOM     10  C   UNL     1      -4.324 -11.748  17.576  0.00  0.00    +0.032 C 
ATOM     11  C   UNL     1      -4.100 -12.782  15.273  0.00  0.00    +0.012 C 
ATOM     12  C   UNL     1      -3.156 -11.660  14.801  0.00  0.00    +0.023 C 
ATOM     14  C   UNL     1      -2.567 -10.893  15.967  0.00  0.00    -0.073 C 
ATOM     15  C   UNL     1      -3.094 -10.955  17.202  0.00  0.00    -0.022 C 
ATOM     20  C   UNL     1      -1.328 -10.087  15.690  0.00  0.00    +0.039 C 
ENDROOT
BRANCH   9  13
ATOM     13  C   UNL     1      -6.039 -13.436  16.728  0.00  0.00    -0.013 C 
ATOM     18  C   UNL     1      -7.249 -13.454  15.800  0.00  0.00    +0.007 C 
ATOM     19  C   UNL     1      -5.308 -14.774  16.690  0.00  0.00    +0.007 C 
ENDBRANCH   9  13
BRANCH  10  16
ATOM     16  C   UNL     1      -5.238 -10.889  18.457  0.00  0.00    +0.112 C 
BRANCH  16   4
ATOM      3  O   UNL     1      -8.062 -10.717  18.946  0.00  0.00    -0.268 OA
ATOM      4  N   UNL     1      -6.201 -10.193  17.662  0.00  0.00    -0.309 N 
ATOM     22  C   UNL     1      -7.560 -10.160  17.973  0.00  0.00    +0.264 C 
ATOM     33  H   UNL     1      -5.876  -9.668  16.856  0.00  0.00    +0.149 HD
BRANCH  22  27
ATOM      7  N   UNL     1      -9.179  -8.422  17.556  0.00  0.00    -0.247 NA
ATOM      8  N   UNL     1      -9.272  -9.064  14.828  0.00  0.00    -0.259 NA
ATOM     27  C   UNL     1      -8.435  -9.415  17.031  0.00  0.00    +0.143 A 
ATOM     30  C   UNL     1      -8.481  -9.731  15.691  0.00  0.00    +0.143 A 
ATOM     31  C   UNL     1      -9.970  -7.754  16.692  0.00  0.00    +0.131 A 
ATOM     32  C   UNL     1     -10.016  -8.070  15.352  0.00  0.00    +0.130 A 
ENDBRANCH  22  27
ENDBRANCH  16   4
ENDBRANCH  10  16
BRANCH  12  17
ATOM     17  C   UNL     1      -3.866 -10.716  13.824  0.00  0.00    +0.103 C 
BRANCH  17  21
ATOM      1  O   UNL     1      -1.990 -10.731  12.297  0.00  0.00    -0.276 OA
ATOM      5  N   UNL     1      -4.153 -10.652  11.452  0.00  0.00    -0.314 N 
ATOM     21  C   UNL     1      -3.206 -10.702  12.464  0.00  0.00    +0.214 C 
ATOM     34  H   UNL     1      -5.140 -10.640  11.694  0.00  0.00    +0.149 HD
BRANCH   5  23
ATOM     23  C   UNL     1      -3.807 -10.627  10.049  0.00  0.00    +0.119 C 
BRANCH  23  24
ATOM     24  C   UNL     1      -3.711  -9.200   9.530  0.00  0.00    +0.103 C 
BRANCH  24   6
ATOM      2  O   UNL     1      -7.524  -9.320   7.782  0.00  0.00    -0.377 OA
ATOM      6  N   UNL     1      -4.858  -8.891   8.678  0.00  0.00    -0.297 NA
ATOM     25  C   UNL     1      -6.014  -8.485   9.487  0.00  0.00    +0.112 C 
ATOM     26  C   UNL     1      -5.210 -10.044   7.838  0.00  0.00    +0.112 C 
ATOM     28  C   UNL     1      -7.201  -8.179   8.579  0.00  0.00    +0.175 C 
ATOM     29  C   UNL     1      -6.415  -9.702   6.967  0.00  0.00    +0.175 C 
ENDBRANCH  24   6
ENDBRANCH  23  24
ENDBRANCH   5  23
ENDBRANCH  17  21
ENDBRANCH  12  17
TORSDOF 9
ENDMDL
MODEL 10
REMARK VINA RESULT:      -6.0     28.195     32.013
REMARK  Name = 38027067
REMARK  12 active torsions:
REMARK  status: ('A' for Active; 'I' for Inactive)
REMARK    1  A    between atoms: N_4  and  C_16
REMARK    2  A    between atoms: N_5  and  C_23
REMARK    3  A    between atoms: N_6  and  C_24
REMARK    4  A    between atoms: C_9  and  C_13
REMARK    5  A    between atoms: C_10  and  C_16
REMARK    6  A    between atoms: C_12  and  C_17
REMARK    7  A    between atoms: C_13  and  C_18
REMARK    8  A    between atoms: C_13  and  C_19
REMARK    9  A    between atoms: C_14  and  C_20
REMARK   10  A    between atoms: C_17  and  C_21
REMARK   11  A    between atoms: C_22  and  C_27
REMARK   12  A    between atoms: C_23  and  C_24
REMARK                            x       y       z     vdW  Elec       q    Type
REMARK                         _______ _______ _______ _____ _____    ______ ____
ROOT
ATOM      9  C   UNL     1     -15.137   7.164  22.350  0.00  0.00    +0.000 C 
ATOM     10  C   UNL     1     -14.360   5.843  22.123  0.00  0.00    +0.032 C 
ATOM     11  C   UNL     1     -14.921   8.122  21.168  0.00  0.00    +0.012 C 
ATOM     12  C   UNL     1     -13.434   8.461  20.956  0.00  0.00    +0.023 C 
ATOM     14  C   UNL     1     -12.564   7.220  20.989  0.00  0.00    -0.073 C 
ATOM     15  C   UNL     1     -12.999   6.057  21.502  0.00  0.00    -0.022 C 
ATOM     20  C   UNL     1     -11.196   7.337  20.375  0.00  0.00    +0.039 C 
ENDROOT
BRANCH   9  13
ATOM     13  C   UNL     1     -16.635   6.915  22.549  0.00  0.00    -0.013 C 
ATOM     18  C   UNL     1     -17.382   8.239  22.677  0.00  0.00    +0.007 C 
ATOM     19  C   UNL     1     -17.195   6.087  21.398  0.00  0.00    +0.007 C 
ENDBRANCH   9  13
BRANCH  10  16
ATOM     16  C   UNL     1     -14.206   5.059  23.431  0.00  0.00    +0.112 C 
BRANCH  16   4
ATOM      3  O   UNL     1     -16.132   4.361  25.444  0.00  0.00    -0.268 OA
ATOM      4  N   UNL     1     -15.057   3.910  23.436  0.00  0.00    -0.309 N 
ATOM     22  C   UNL     1     -15.968   3.646  24.458  0.00  0.00    +0.264 C 
ATOM     33  H   UNL     1     -15.023   3.278  22.642  0.00  0.00    +0.149 HD
BRANCH  22  27
ATOM      7  N   UNL     1     -16.943   1.678  25.455  0.00  0.00    -0.247 NA
ATOM      8  N   UNL     1     -17.996   0.863  22.986  0.00  0.00    -0.259 NA
ATOM     27  C   UNL     1     -16.761   2.396  24.329  0.00  0.00    +0.143 A 
ATOM     30  C   UNL     1     -17.278   1.996  23.116  0.00  0.00    +0.143 A 
ATOM     31  C   UNL     1     -17.662   0.544  25.324  0.00  0.00    +0.131 A 
ATOM     32  C   UNL     1     -18.179   0.144  24.111  0.00  0.00    +0.130 A 
ENDBRANCH  22  27
ENDBRANCH  16   4
ENDBRANCH  10  16
BRANCH  12  17
ATOM     17  C   UNL     1     -12.952   9.497  21.978  0.00  0.00    +0.103 C 
BRANCH  17  21
ATOM      1  O   UNL     1     -13.007  11.914  21.907  0.00  0.00    -0.276 OA
ATOM      5  N   UNL     1     -12.185  10.734  20.083  0.00  0.00    -0.314 N 
ATOM     21  C   UNL     1     -12.731  10.854  21.352  0.00  0.00    +0.214 C 
ATOM     34  H   UNL     1     -11.985   9.809  19.713  0.00  0.00    +0.149 HD
BRANCH   5  23
ATOM     23  C   UNL     1     -11.869  11.871  19.248  0.00  0.00    +0.119 C 
BRANCH  23  24
ATOM     24  C   UNL     1     -10.701  11.567  18.322  0.00  0.00    +0.103 C 
BRANCH  24   6
ATOM      2  O   UNL     1     -10.555   8.874  15.107  0.00  0.00    -0.377 OA
ATOM      6  N   UNL     1     -11.060  10.507  17.382  0.00  0.00    -0.297 NA
ATOM     25  C   UNL     1     -10.074   9.419  17.422  0.00  0.00    +0.112 C 
ATOM     26  C   UNL     1     -11.172  11.037  16.016  0.00  0.00    +0.112 C 
ATOM     28  C   UNL     1     -10.463   8.331  16.425  0.00  0.00    +0.175 C 
ATOM     29  C   UNL     1     -11.535   9.911  15.052  0.00  0.00    +0.175 C 
ENDBRANCH  24   6
ENDBRANCH  23  24
ENDBRANCH   5  23
ENDBRANCH  17  21
ENDBRANCH  12  17
TORSDOF 9
ENDMDL
