MODEL 1
REMARK VINA RESULT:      -7.6      0.000      0.000
REMARK  Name = 38027513
REMARK  14 active torsions:
REMARK  status: ('A' for Active; 'I' for Inactive)
REMARK    1  A    between atoms: S_1  and  N_7
REMARK    2  A    between atoms: S_1  and  C_23
REMARK    3  A    between atoms: N_7  and  C_17
REMARK    4  A    between atoms: N_8  and  C_24
REMARK    5  A    between atoms: N_9  and  C_30
REMARK    6  A    between atoms: C_10  and  C_14
REMARK    7  A    between atoms: C_11  and  C_17
REMARK    8  A    between atoms: C_13  and  C_18
REMARK    9  A    between atoms: C_14  and  C_19
REMARK   10  A    between atoms: C_14  and  C_20
REMARK   11  A    between atoms: C_15  and  C_21
REMARK   12  A    between atoms: C_18  and  C_22
REMARK   13  A    between atoms: C_24  and  C_27
REMARK   14  A    between atoms: C_36  and  C_37
REMARK                            x       y       z     vdW  Elec       q    Type
REMARK                         _______ _______ _______ _____ _____    ______ ____
ROOT
ATOM     10  C   UNL     1      -5.994 -10.533  15.159  0.00  0.00    +0.000 C 
ATOM     11  C   UNL     1      -6.887 -10.597  16.423  0.00  0.00    +0.030 C 
ATOM     12  C   UNL     1      -4.971 -11.681  15.167  0.00  0.00    +0.012 C 
ATOM     13  C   UNL     1      -4.064 -11.644  16.411  0.00  0.00    +0.023 C 
ATOM     15  C   UNL     1      -4.859 -11.438  17.683  0.00  0.00    -0.073 C 
ATOM     16  C   UNL     1      -6.124 -10.982  17.668  0.00  0.00    -0.023 C 
ATOM     21  C   UNL     1      -4.183 -11.811  18.973  0.00  0.00    +0.039 C 
ENDROOT
BRANCH  10  14
ATOM     14  C   UNL     1      -6.823 -10.586  13.873  0.00  0.00    -0.013 C 
ATOM     19  C   UNL     1      -6.270  -9.605  12.844  0.00  0.00    +0.007 C 
ATOM     20  C   UNL     1      -6.845 -12.004  13.312  0.00  0.00    +0.007 C 
ENDBRANCH  10  14
BRANCH  11  17
ATOM     17  C   UNL     1      -7.609  -9.265  16.658  0.00  0.00    +0.113 C 
BRANCH  17   7
ATOM      7  N   UNL     1      -8.492  -9.396  17.827  0.00  0.00    -0.189 NA
ATOM     38  H   UNL     1      -8.054  -9.686  18.710  0.00  0.00    +0.148 HD
BRANCH   7   1
ATOM      1  S   UNL     1     -10.148  -9.741  17.616  0.00  0.00    +0.058 S 
ATOM      4  O   UNL     1     -10.833  -9.598  18.886  0.00  0.00    -0.153 OA
ATOM      5  O   UNL     1     -10.283 -10.964  16.848  0.00  0.00    -0.153 OA
BRANCH   1  23
ATOM     23  C   UNL     1     -10.661  -8.414  16.567  0.00  0.00    +0.105 A 
ATOM     25  C   UNL     1     -10.693  -7.108  17.059  0.00  0.00    +0.030 A 
ATOM     26  C   UNL     1     -11.036  -8.672  15.249  0.00  0.00    +0.030 A 
ATOM     28  C   UNL     1     -11.099  -6.062  16.230  0.00  0.00    +0.025 A 
ATOM     29  C   UNL     1     -11.442  -7.625  14.421  0.00  0.00    +0.025 A 
ATOM     30  C   UNL     1     -11.473  -6.320  14.912  0.00  0.00    +0.033 A 
BRANCH  30   9
ATOM      6  O   UNL     1     -14.219  -5.530  13.962  0.00  0.00    -0.276 OA
ATOM      9  N   UNL     1     -11.878  -5.273  14.084  0.00  0.00    -0.286 N 
ATOM     36  C   UNL     1     -13.177  -4.950  13.671  0.00  0.00    +0.214 C 
ATOM     37  C   UNL     1     -13.194  -3.738  12.773  0.00  0.00    +0.109 C 
ATOM     40  H   UNL     1     -11.125  -4.682  13.739  0.00  0.00    +0.155 HD
ENDBRANCH  30   9
ENDBRANCH   1  23
ENDBRANCH   7   1
ENDBRANCH  17   7
ENDBRANCH  11  17
BRANCH  13  18
ATOM     18  C   UNL     1      -2.973 -10.577  16.266  0.00  0.00    +0.103 C 
BRANCH  18  22
ATOM      3  O   UNL     1      -1.054 -11.590  15.196  0.00  0.00    -0.276 OA
ATOM      8  N   UNL     1      -2.460 -10.213  13.959  0.00  0.00    -0.311 N 
ATOM     22  C   UNL     1      -2.043 -10.868  15.109  0.00  0.00    +0.214 C 
ATOM     39  H   UNL     1      -3.299  -9.643  13.983  0.00  0.00    +0.149 HD
BRANCH   8  24
ATOM     24  C   UNL     1      -1.759 -10.308  12.700  0.00  0.00    +0.139 C 
BRANCH  24  27
ATOM      2  F   UNL     1      -5.304 -10.718   8.344  0.00  0.00    -0.205 F 
ATOM     27  C   UNL     1      -2.704 -10.417  11.538  0.00  0.00    -0.030 A 
ATOM     31  C   UNL     1      -3.425 -11.594  11.334  0.00  0.00    +0.008 A 
ATOM     32  C   UNL     1      -2.861  -9.343  10.663  0.00  0.00    +0.008 A 
ATOM     33  C   UNL     1      -4.303 -11.696  10.255  0.00  0.00    +0.038 A 
ATOM     34  C   UNL     1      -3.738  -9.444   9.584  0.00  0.00    +0.038 A 
ATOM     35  C   UNL     1      -4.459 -10.621   9.380  0.00  0.00    +0.123 A 
ENDBRANCH  24  27
ENDBRANCH   8  24
ENDBRANCH  18  22
ENDBRANCH  13  18
TORSDOF 10
ENDMDL
MODEL 2
REMARK VINA RESULT:      -7.3      4.805      7.230
REMARK  Name = 38027513
REMARK  14 active torsions:
REMARK  status: ('A' for Active; 'I' for Inactive)
REMARK    1  A    between atoms: S_1  and  N_7
REMARK    2  A    between atoms: S_1  and  C_23
REMARK    3  A    between atoms: N_7  and  C_17
REMARK    4  A    between atoms: N_8  and  C_24
REMARK    5  A    between atoms: N_9  and  C_30
REMARK    6  A    between atoms: C_10  and  C_14
REMARK    7  A    between atoms: C_11  and  C_17
REMARK    8  A    between atoms: C_13  and  C_18
REMARK    9  A    between atoms: C_14  and  C_19
REMARK   10  A    between atoms: C_14  and  C_20
REMARK   11  A    between atoms: C_15  and  C_21
REMARK   12  A    between atoms: C_18  and  C_22
REMARK   13  A    between atoms: C_24  and  C_27
REMARK   14  A    between atoms: C_36  and  C_37
REMARK                            x       y       z     vdW  Elec       q    Type
REMARK                         _______ _______ _______ _____ _____    ______ ____
ROOT
ATOM     10  C   UNL     1      -5.203 -10.585  10.828  0.00  0.00    +0.000 C 
ATOM     11  C   UNL     1      -4.676  -9.657   9.704  0.00  0.00    +0.030 C 
ATOM     12  C   UNL     1      -4.633 -10.154  12.189  0.00  0.00    +0.012 C 
ATOM     13  C   UNL     1      -3.093 -10.184  12.211  0.00  0.00    +0.023 C 
ATOM     15  C   UNL     1      -2.498  -9.518  10.988  0.00  0.00    -0.073 C 
ATOM     16  C   UNL     1      -3.225  -9.278   9.881  0.00  0.00    -0.023 C 
ATOM     21  C   UNL     1      -1.060  -9.091  11.080  0.00  0.00    +0.039 C 
ENDROOT
BRANCH  10  14
ATOM     14  C   UNL     1      -6.733 -10.596  10.886  0.00  0.00    -0.013 C 
ATOM     19  C   UNL     1      -7.215 -11.449  12.055  0.00  0.00    +0.007 C 
ATOM     20  C   UNL     1      -7.271  -9.172  10.997  0.00  0.00    +0.007 C 
ENDBRANCH  10  14
BRANCH  11  17
ATOM     17  C   UNL     1      -4.873 -10.295   8.323  0.00  0.00    +0.113 C 
BRANCH  17   7
ATOM      7  N   UNL     1      -5.537  -9.327   7.437  0.00  0.00    -0.189 NA
ATOM     38  H   UNL     1      -5.306  -8.336   7.576  0.00  0.00    +0.148 HD
BRANCH   7   1
ATOM      1  S   UNL     1      -7.051  -9.696   6.746  0.00  0.00    +0.058 S 
ATOM      4  O   UNL     1      -7.602 -10.868   7.398  0.00  0.00    -0.153 OA
ATOM      5  O   UNL     1      -6.936  -9.651   5.301  0.00  0.00    -0.153 OA
BRANCH   1  23
ATOM     23  C   UNL     1      -8.018  -8.298   7.230  0.00  0.00    +0.105 A 
ATOM     25  C   UNL     1      -7.433  -7.265   7.964  0.00  0.00    +0.030 A 
ATOM     26  C   UNL     1      -9.367  -8.228   6.880  0.00  0.00    +0.030 A 
ATOM     28  C   UNL     1      -8.198  -6.163   8.346  0.00  0.00    +0.025 A 
ATOM     29  C   UNL     1     -10.130  -7.125   7.262  0.00  0.00    +0.025 A 
ATOM     30  C   UNL     1      -9.546  -6.093   7.995  0.00  0.00    +0.033 A 
BRANCH  30   9
ATOM      6  O   UNL     1     -11.546  -5.777  10.224  0.00  0.00    -0.276 OA
ATOM      9  N   UNL     1     -10.309  -4.990   8.377  0.00  0.00    -0.286 N 
ATOM     36  C   UNL     1     -11.232  -4.898   9.428  0.00  0.00    +0.214 C 
ATOM     37  C   UNL     1     -11.851  -3.525   9.511  0.00  0.00    +0.109 C 
ATOM     40  H   UNL     1     -10.174  -4.156   7.809  0.00  0.00    +0.155 HD
ENDBRANCH  30   9
ENDBRANCH   1  23
ENDBRANCH   7   1
ENDBRANCH  17   7
ENDBRANCH  11  17
BRANCH  13  18
ATOM     18  C   UNL     1      -2.572 -11.617  12.364  0.00  0.00    +0.103 C 
BRANCH  18  22
ATOM      3  O   UNL     1      -2.388 -13.196  14.188  0.00  0.00    -0.276 OA
ATOM      8  N   UNL     1      -2.430 -10.918  14.646  0.00  0.00    -0.311 N 
ATOM     22  C   UNL     1      -2.453 -12.028  13.815  0.00  0.00    +0.214 C 
ATOM     39  H   UNL     1      -2.481  -9.988  14.241  0.00  0.00    +0.149 HD
BRANCH   8  24
ATOM     24  C   UNL     1      -2.326 -11.010  16.083  0.00  0.00    +0.139 C 
BRANCH  24  27
ATOM      2  F   UNL     1      -7.325 -10.413  18.604  0.00  0.00    -0.205 F 
ATOM     27  C   UNL     1      -3.659 -10.851  16.755  0.00  0.00    -0.030 A 
ATOM     31  C   UNL     1      -3.856 -11.355  18.042  0.00  0.00    +0.008 A 
ATOM     32  C   UNL     1      -4.700 -10.199  16.094  0.00  0.00    +0.008 A 
ATOM     33  C   UNL     1      -5.095 -11.208  18.665  0.00  0.00    +0.038 A 
ATOM     34  C   UNL     1      -5.939 -10.052  16.718  0.00  0.00    +0.038 A 
ATOM     35  C   UNL     1      -6.136 -10.556  18.004  0.00  0.00    +0.123 A 
ENDBRANCH  24  27
ENDBRANCH   8  24
ENDBRANCH  18  22
ENDBRANCH  13  18
TORSDOF 10
ENDMDL
MODEL 3
REMARK VINA RESULT:      -7.2     25.484     29.241
REMARK  Name = 38027513
REMARK  14 active torsions:
REMARK  status: ('A' for Active; 'I' for Inactive)
REMARK    1  A    between atoms: S_1  and  N_7
REMARK    2  A    between atoms: S_1  and  C_23
REMARK    3  A    between atoms: N_7  and  C_17
REMARK    4  A    between atoms: N_8  and  C_24
REMARK    5  A    between atoms: N_9  and  C_30
REMARK    6  A    between atoms: C_10  and  C_14
REMARK    7  A    between atoms: C_11  and  C_17
REMARK    8  A    between atoms: C_13  and  C_18
REMARK    9  A    between atoms: C_14  and  C_19
REMARK   10  A    between atoms: C_14  and  C_20
REMARK   11  A    between atoms: C_15  and  C_21
REMARK   12  A    between atoms: C_18  and  C_22
REMARK   13  A    between atoms: C_24  and  C_27
REMARK   14  A    between atoms: C_36  and  C_37
REMARK                            x       y       z     vdW  Elec       q    Type
REMARK                         _______ _______ _______ _____ _____    ______ ____
ROOT
ATOM     10  C   UNL     1      10.906   6.900   3.589  0.00  0.00    +0.000 C 
ATOM     11  C   UNL     1      10.236   5.511   3.435  0.00  0.00    +0.030 C 
ATOM     12  C   UNL     1      11.785   7.210   2.367  0.00  0.00    +0.012 C 
ATOM     13  C   UNL     1      12.888   6.156   2.160  0.00  0.00    +0.023 C 
ATOM     15  C   UNL     1      12.346   4.745   2.263  0.00  0.00    -0.073 C 
ATOM     16  C   UNL     1      11.152   4.478   2.824  0.00  0.00    -0.023 C 
ATOM     21  C   UNL     1      13.185   3.651   1.665  0.00  0.00    +0.039 C 
ENDROOT
BRANCH  10  14
ATOM     14  C   UNL     1       9.871   8.013   3.780  0.00  0.00    -0.013 C 
ATOM     19  C   UNL     1      10.533   9.381   3.663  0.00  0.00    +0.007 C 
ATOM     20  C   UNL     1       8.742   7.869   2.764  0.00  0.00    +0.007 C 
ENDBRANCH  10  14
BRANCH  11  17
ATOM     17  C   UNL     1       9.712   4.997   4.781  0.00  0.00    +0.113 C 
BRANCH  17   7
ATOM      7  N   UNL     1      10.768   5.143   5.795  0.00  0.00    -0.189 NA
ATOM     38  H   UNL     1      11.452   4.379   5.866  0.00  0.00    +0.148 HD
BRANCH   7   1
ATOM      1  S   UNL     1      10.500   6.096   7.182  0.00  0.00    +0.058 S 
ATOM      4  O   UNL     1      10.836   5.326   8.364  0.00  0.00    -0.153 OA
ATOM      5  O   UNL     1       9.204   6.737   7.073  0.00  0.00    -0.153 OA
BRANCH   1  23
ATOM     23  C   UNL     1      11.719   7.361   6.990  0.00  0.00    +0.105 A 
ATOM     25  C   UNL     1      13.042   7.018   6.706  0.00  0.00    +0.030 A 
ATOM     26  C   UNL     1      11.360   8.702   7.126  0.00  0.00    +0.030 A 
ATOM     28  C   UNL     1      14.003   8.018   6.556  0.00  0.00    +0.025 A 
ATOM     29  C   UNL     1      12.322   9.701   6.975  0.00  0.00    +0.025 A 
ATOM     30  C   UNL     1      13.644   9.359   6.690  0.00  0.00    +0.033 A 
BRANCH  30   9
ATOM      6  O   UNL     1      14.969  10.438   4.211  0.00  0.00    -0.276 OA
ATOM      9  N   UNL     1      14.606  10.357   6.539  0.00  0.00    -0.286 N 
ATOM     36  C   UNL     1      15.193  10.821   5.355  0.00  0.00    +0.214 C 
ATOM     37  C   UNL     1      16.195  11.918   5.619  0.00  0.00    +0.109 C 
ATOM     40  H   UNL     1      14.916  10.789   7.407  0.00  0.00    +0.155 HD
ENDBRANCH  30   9
ENDBRANCH   1  23
ENDBRANCH   7   1
ENDBRANCH  17   7
ENDBRANCH  11  17
BRANCH  13  18
ATOM     18  C   UNL     1      14.047   6.371   3.140  0.00  0.00    +0.103 C 
BRANCH  18  22
ATOM      3  O   UNL     1      15.248   7.405   1.312  0.00  0.00    -0.276 OA
ATOM      8  N   UNL     1      16.160   7.445   3.449  0.00  0.00    -0.311 N 
ATOM     22  C   UNL     1      15.195   7.124   2.506  0.00  0.00    +0.214 C 
ATOM     39  H   UNL     1      16.023   7.176   4.419  0.00  0.00    +0.149 HD
BRANCH   8  24
ATOM     24  C   UNL     1      17.371   8.164   3.126  0.00  0.00    +0.139 C 
BRANCH  24  27
ATOM      2  F   UNL     1      21.024   8.166   7.411  0.00  0.00    -0.205 F 
ATOM     27  C   UNL     1      18.345   8.165   4.268  0.00  0.00    -0.030 A 
ATOM     31  C   UNL     1      17.966   8.682   5.508  0.00  0.00    +0.008 A 
ATOM     32  C   UNL     1      19.629   7.648   4.091  0.00  0.00    +0.008 A 
ATOM     33  C   UNL     1      18.871   8.683   6.569  0.00  0.00    +0.038 A 
ATOM     34  C   UNL     1      20.534   7.649   5.152  0.00  0.00    +0.038 A 
ATOM     35  C   UNL     1      20.155   8.167   6.391  0.00  0.00    +0.123 A 
ENDBRANCH  24  27
ENDBRANCH   8  24
ENDBRANCH  18  22
ENDBRANCH  13  18
TORSDOF 10
ENDMDL
MODEL 4
REMARK VINA RESULT:      -7.1     24.168     27.174
REMARK  Name = 38027513
REMARK  14 active torsions:
REMARK  status: ('A' for Active; 'I' for Inactive)
REMARK    1  A    between atoms: S_1  and  N_7
REMARK    2  A    between atoms: S_1  and  C_23
REMARK    3  A    between atoms: N_7  and  C_17
REMARK    4  A    between atoms: N_8  and  C_24
REMARK    5  A    between atoms: N_9  and  C_30
REMARK    6  A    between atoms: C_10  and  C_14
REMARK    7  A    between atoms: C_11  and  C_17
REMARK    8  A    between atoms: C_13  and  C_18
REMARK    9  A    between atoms: C_14  and  C_19
REMARK   10  A    between atoms: C_14  and  C_20
REMARK   11  A    between atoms: C_15  and  C_21
REMARK   12  A    between atoms: C_18  and  C_22
REMARK   13  A    between atoms: C_24  and  C_27
REMARK   14  A    between atoms: C_36  and  C_37
REMARK                            x       y       z     vdW  Elec       q    Type
REMARK                         _______ _______ _______ _____ _____    ______ ____
ROOT
ATOM     10  C   UNL     1      10.170   6.552   6.402  0.00  0.00    +0.000 C 
ATOM     11  C   UNL     1       9.478   7.633   7.270  0.00  0.00    +0.030 C 
ATOM     12  C   UNL     1      11.672   6.489   6.721  0.00  0.00    +0.012 C 
ATOM     13  C   UNL     1      12.376   7.837   6.477  0.00  0.00    +0.023 C 
ATOM     15  C   UNL     1      11.605   8.994   7.079  0.00  0.00    -0.073 C 
ATOM     16  C   UNL     1      10.313   8.879   7.440  0.00  0.00    -0.023 C 
ATOM     21  C   UNL     1      12.363  10.272   7.301  0.00  0.00    +0.039 C 
ENDROOT
BRANCH  10  14
ATOM     14  C   UNL     1       9.539   5.171   6.602  0.00  0.00    -0.013 C 
ATOM     19  C   UNL     1       9.925   4.239   5.458  0.00  0.00    +0.007 C 
ATOM     20  C   UNL     1       9.961   4.583   7.945  0.00  0.00    +0.007 C 
ENDBRANCH  10  14
BRANCH  11  17
ATOM     17  C   UNL     1       8.108   8.011   6.694  0.00  0.00    +0.113 C 
BRANCH  17   7
ATOM      7  N   UNL     1       8.092   7.707   5.255  0.00  0.00    -0.189 NA
ATOM     38  H   UNL     1       8.472   6.796   4.968  0.00  0.00    +0.148 HD
BRANCH   7   1
ATOM      1  S   UNL     1       8.119   8.970   4.112  0.00  0.00    +0.058 S 
ATOM      4  O   UNL     1       8.993  10.026   4.584  0.00  0.00    -0.153 OA
ATOM      5  O   UNL     1       6.759   9.275   3.710  0.00  0.00    -0.153 OA
BRANCH   1  23
ATOM     23  C   UNL     1       8.902   8.190   2.732  0.00  0.00    +0.105 A 
ATOM     25  C   UNL     1       9.622   7.009   2.915  0.00  0.00    +0.030 A 
ATOM     26  C   UNL     1       8.801   8.757   1.461  0.00  0.00    +0.030 A 
ATOM     28  C   UNL     1      10.240   6.395   1.825  0.00  0.00    +0.025 A 
ATOM     29  C   UNL     1       9.419   8.141   0.372  0.00  0.00    +0.025 A 
ATOM     30  C   UNL     1      10.139   6.961   0.555  0.00  0.00    +0.033 A 
BRANCH  30   9
ATOM      6  O   UNL     1       9.057   4.997  -1.455  0.00  0.00    -0.276 OA
ATOM      9  N   UNL     1      10.757   6.346  -0.534  0.00  0.00    -0.286 N 
ATOM     36  C   UNL     1      10.204   5.433  -1.441  0.00  0.00    +0.214 C 
ATOM     37  C   UNL     1      11.207   4.999  -2.482  0.00  0.00    +0.109 C 
ATOM     40  H   UNL     1      11.734   6.595  -0.670  0.00  0.00    +0.155 HD
ENDBRANCH  30   9
ENDBRANCH   1  23
ENDBRANCH   7   1
ENDBRANCH  17   7
ENDBRANCH  11  17
BRANCH  13  18
ATOM     18  C   UNL     1      12.629   8.065   4.983  0.00  0.00    +0.103 C 
BRANCH  18  22
ATOM      3  O   UNL     1      14.907   7.276   5.187  0.00  0.00    -0.276 OA
ATOM      8  N   UNL     1      13.734   6.889   3.219  0.00  0.00    -0.311 N 
ATOM     22  C   UNL     1      13.890   7.377   4.508  0.00  0.00    +0.214 C 
ATOM     39  H   UNL     1      12.848   7.014   2.739  0.00  0.00    +0.149 HD
BRANCH   8  24
ATOM     24  C   UNL     1      14.778   6.187   2.510  0.00  0.00    +0.139 C 
BRANCH  24  27
ATOM      2  F   UNL     1      12.699   2.343  -1.042  0.00  0.00    -0.205 F 
ATOM     27  C   UNL     1      14.223   5.162   1.563  0.00  0.00    -0.030 A 
ATOM     31  C   UNL     1      14.773   5.021   0.287  0.00  0.00    +0.008 A 
ATOM     32  C   UNL     1      13.160   4.351   1.957  0.00  0.00    +0.008 A 
ATOM     33  C   UNL     1      14.257   4.070  -0.592  0.00  0.00    +0.038 A 
ATOM     34  C   UNL     1      12.644   3.399   1.078  0.00  0.00    +0.038 A 
ATOM     35  C   UNL     1      13.193   3.259  -0.197  0.00  0.00    +0.123 A 
ENDBRANCH  24  27
ENDBRANCH   8  24
ENDBRANCH  18  22
ENDBRANCH  13  18
TORSDOF 10
ENDMDL
MODEL 5
REMARK VINA RESULT:      -7.0      3.349      8.059
REMARK  Name = 38027513
REMARK  14 active torsions:
REMARK  status: ('A' for Active; 'I' for Inactive)
REMARK    1  A    between atoms: S_1  and  N_7
REMARK    2  A    between atoms: S_1  and  C_23
REMARK    3  A    between atoms: N_7  and  C_17
REMARK    4  A    between atoms: N_8  and  C_24
REMARK    5  A    between atoms: N_9  and  C_30
REMARK    6  A    between atoms: C_10  and  C_14
REMARK    7  A    between atoms: C_11  and  C_17
REMARK    8  A    between atoms: C_13  and  C_18
REMARK    9  A    between atoms: C_14  and  C_19
REMARK   10  A    between atoms: C_14  and  C_20
REMARK   11  A    between atoms: C_15  and  C_21
REMARK   12  A    between atoms: C_18  and  C_22
REMARK   13  A    between atoms: C_24  and  C_27
REMARK   14  A    between atoms: C_36  and  C_37
REMARK                            x       y       z     vdW  Elec       q    Type
REMARK                         _______ _______ _______ _____ _____    ______ ____
ROOT
ATOM     10  C   UNL     1      -4.255 -11.719  12.227  0.00  0.00    +0.000 C 
ATOM     11  C   UNL     1      -3.063 -11.225  11.369  0.00  0.00    +0.030 C 
ATOM     12  C   UNL     1      -5.569 -11.596  11.440  0.00  0.00    +0.012 C 
ATOM     13  C   UNL     1      -5.851 -10.147  11.000  0.00  0.00    +0.023 C 
ATOM     15  C   UNL     1      -4.629  -9.498  10.382  0.00  0.00    -0.073 C 
ATOM     16  C   UNL     1      -3.393 -10.002  10.547  0.00  0.00    -0.023 C 
ATOM     21  C   UNL     1      -4.865  -8.281   9.532  0.00  0.00    +0.039 C 
ENDROOT
BRANCH  10  14
ATOM     14  C   UNL     1      -4.061 -13.166  12.690  0.00  0.00    -0.013 C 
ATOM     19  C   UNL     1      -5.096 -13.528  13.751  0.00  0.00    +0.007 C 
ATOM     20  C   UNL     1      -4.147 -14.121  11.503  0.00  0.00    +0.007 C 
ENDBRANCH  10  14
BRANCH  11  17
ATOM     17  C   UNL     1      -1.834 -10.939  12.241  0.00  0.00    +0.113 C 
BRANCH  17   7
ATOM      7  N   UNL     1      -2.271 -10.288  13.485  0.00  0.00    -0.189 NA
ATOM     38  H   UNL     1      -2.500  -9.288  13.431  0.00  0.00    +0.148 HD
BRANCH   7   1
ATOM      1  S   UNL     1      -1.774 -10.904  14.995  0.00  0.00    +0.058 S 
ATOM      4  O   UNL     1      -0.803 -10.002  15.584  0.00  0.00    -0.153 OA
ATOM      5  O   UNL     1      -1.468 -12.314  14.854  0.00  0.00    -0.153 OA
BRANCH   1  23
ATOM     23  C   UNL     1      -3.265 -10.791  15.938  0.00  0.00    +0.105 A 
ATOM     25  C   UNL     1      -3.279 -11.201  17.272  0.00  0.00    +0.030 A 
ATOM     26  C   UNL     1      -4.427 -10.295  15.348  0.00  0.00    +0.030 A 
ATOM     28  C   UNL     1      -4.456 -11.113  18.015  0.00  0.00    +0.025 A 
ATOM     29  C   UNL     1      -5.604 -10.206  16.093  0.00  0.00    +0.025 A 
ATOM     30  C   UNL     1      -5.618 -10.615  17.426  0.00  0.00    +0.033 A 
BRANCH  30   9
ATOM      6  O   UNL     1      -7.580 -12.749  18.243  0.00  0.00    -0.276 OA
ATOM      9  N   UNL     1      -6.795 -10.527  18.170  0.00  0.00    -0.286 N 
ATOM     36  C   UNL     1      -7.676 -11.558  18.521  0.00  0.00    +0.214 C 
ATOM     37  C   UNL     1      -8.839 -11.047  19.336  0.00  0.00    +0.109 C 
ATOM     40  H   UNL     1      -7.034  -9.589  18.485  0.00  0.00    +0.155 HD
ENDBRANCH  30   9
ENDBRANCH   1  23
ENDBRANCH   7   1
ENDBRANCH  17   7
ENDBRANCH  11  17
BRANCH  13  18
ATOM     18  C   UNL     1      -6.386  -9.310  12.167  0.00  0.00    +0.103 C 
BRANCH  18  22
ATOM      3  O   UNL     1      -8.720  -9.620  11.614  0.00  0.00    -0.276 OA
ATOM      8  N   UNL     1      -8.022  -9.876  13.815  0.00  0.00    -0.311 N 
ATOM     22  C   UNL     1      -7.837  -9.613  12.466  0.00  0.00    +0.214 C 
ATOM     39  H   UNL     1      -7.225  -9.856  14.445  0.00  0.00    +0.149 HD
BRANCH   8  24
ATOM     24  C   UNL     1      -9.309 -10.195  14.388  0.00  0.00    +0.139 C 
BRANCH  24  27
ATOM      2  F   UNL     1     -11.563  -5.797  17.086  0.00  0.00    -0.205 F 
ATOM     27  C   UNL     1      -9.911  -9.023  15.107  0.00  0.00    -0.030 A 
ATOM     31  C   UNL     1      -9.529  -8.739  16.420  0.00  0.00    +0.008 A 
ATOM     32  C   UNL     1     -10.850  -8.217  14.465  0.00  0.00    +0.008 A 
ATOM     33  C   UNL     1     -10.087  -7.650  17.088  0.00  0.00    +0.038 A 
ATOM     34  C   UNL     1     -11.409  -7.127  15.133  0.00  0.00    +0.038 A 
ATOM     35  C   UNL     1     -11.027  -6.844  16.445  0.00  0.00    +0.123 A 
ENDBRANCH  24  27
ENDBRANCH   8  24
ENDBRANCH  18  22
ENDBRANCH  13  18
TORSDOF 10
ENDMDL
MODEL 6
REMARK VINA RESULT:      -7.0      3.017      6.726
REMARK  Name = 38027513
REMARK  14 active torsions:
REMARK  status: ('A' for Active; 'I' for Inactive)
REMARK    1  A    between atoms: S_1  and  N_7
REMARK    2  A    between atoms: S_1  and  C_23
REMARK    3  A    between atoms: N_7  and  C_17
REMARK    4  A    between atoms: N_8  and  C_24
REMARK    5  A    between atoms: N_9  and  C_30
REMARK    6  A    between atoms: C_10  and  C_14
REMARK    7  A    between atoms: C_11  and  C_17
REMARK    8  A    between atoms: C_13  and  C_18
REMARK    9  A    between atoms: C_14  and  C_19
REMARK   10  A    between atoms: C_14  and  C_20
REMARK   11  A    between atoms: C_15  and  C_21
REMARK   12  A    between atoms: C_18  and  C_22
REMARK   13  A    between atoms: C_24  and  C_27
REMARK   14  A    between atoms: C_36  and  C_37
REMARK                            x       y       z     vdW  Elec       q    Type
REMARK                         _______ _______ _______ _____ _____    ______ ____
ROOT
ATOM     10  C   UNL     1      -9.739  -9.130  16.461  0.00  0.00    +0.000 C 
ATOM     11  C   UNL     1     -10.037 -10.415  17.274  0.00  0.00    +0.030 C 
ATOM     12  C   UNL     1      -9.830  -9.416  14.954  0.00  0.00    +0.012 C 
ATOM     13  C   UNL     1      -8.847 -10.514  14.509  0.00  0.00    +0.023 C 
ATOM     15  C   UNL     1      -8.891 -11.717  15.429  0.00  0.00    -0.073 C 
ATOM     16  C   UNL     1      -9.440 -11.657  16.656  0.00  0.00    -0.023 C 
ATOM     21  C   UNL     1      -8.333 -13.004  14.890  0.00  0.00    +0.039 C 
ENDROOT
BRANCH  10  14
ATOM     14  C   UNL     1     -10.692  -7.989  16.831  0.00  0.00    -0.013 C 
ATOM     19  C   UNL     1     -10.444  -6.778  15.937  0.00  0.00    +0.007 C 
ATOM     20  C   UNL     1     -12.141  -8.451  16.727  0.00  0.00    +0.007 C 
ENDBRANCH  10  14
BRANCH  11  17
ATOM     17  C   UNL     1      -9.550 -10.279  18.722  0.00  0.00    +0.113 C 
BRANCH  17   7
ATOM      7  N   UNL     1      -8.106 -10.004  18.718  0.00  0.00    -0.189 NA
ATOM     38  H   UNL     1      -7.737  -9.466  17.924  0.00  0.00    +0.148 HD
BRANCH   7   1
ATOM      1  S   UNL     1      -7.032 -11.048  19.532  0.00  0.00    +0.058 S 
ATOM      4  O   UNL     1      -7.769 -12.185  20.049  0.00  0.00    -0.153 OA
ATOM      5  O   UNL     1      -6.186 -10.266  20.412  0.00  0.00    -0.153 OA
BRANCH   1  23
ATOM     23  C   UNL     1      -6.010 -11.618  18.206  0.00  0.00    +0.105 A 
ATOM     25  C   UNL     1      -5.237 -10.710  17.482  0.00  0.00    +0.030 A 
ATOM     26  C   UNL     1      -5.978 -12.975  17.884  0.00  0.00    +0.030 A 
ATOM     28  C   UNL     1      -4.432 -11.161  16.436  0.00  0.00    +0.025 A 
ATOM     29  C   UNL     1      -5.172 -13.424  16.838  0.00  0.00    +0.025 A 
ATOM     30  C   UNL     1      -4.399 -12.517  16.114  0.00  0.00    +0.033 A 
BRANCH  30   9
ATOM      6  O   UNL     1      -3.834 -15.311  15.143  0.00  0.00    -0.276 OA
ATOM      9  N   UNL     1      -3.593 -12.967  15.068  0.00  0.00    -0.286 N 
ATOM     36  C   UNL     1      -3.363 -14.287  14.658  0.00  0.00    +0.214 C 
ATOM     37  C   UNL     1      -2.423 -14.352  13.481  0.00  0.00    +0.109 C 
ATOM     40  H   UNL     1      -3.113 -12.234  14.551  0.00  0.00    +0.155 HD
ENDBRANCH  30   9
ENDBRANCH   1  23
ENDBRANCH   7   1
ENDBRANCH  17   7
ENDBRANCH  11  17
BRANCH  13  18
ATOM     18  C   UNL     1      -7.421  -9.965  14.393  0.00  0.00    +0.103 C 
BRANCH  18  22
ATOM      3  O   UNL     1      -7.183  -9.171  12.120  0.00  0.00    -0.276 OA
ATOM      8  N   UNL     1      -6.097 -11.120  12.771  0.00  0.00    -0.311 N 
ATOM     22  C   UNL     1      -6.907 -10.012  12.971  0.00  0.00    +0.214 C 
ATOM     39  H   UNL     1      -5.918 -11.756  13.542  0.00  0.00    +0.149 HD
BRANCH   8  24
ATOM     24  C   UNL     1      -5.468 -11.420  11.506  0.00  0.00    +0.139 C 
BRANCH  24  27
ATOM      2  F   UNL     1      -0.542  -8.758  10.915  0.00  0.00    -0.205 F 
ATOM     27  C   UNL     1      -4.155 -10.711  11.348  0.00  0.00    -0.030 A 
ATOM     31  C   UNL     1      -3.990  -9.764  10.335  0.00  0.00    +0.008 A 
ATOM     32  C   UNL     1      -3.099 -10.997  12.213  0.00  0.00    +0.008 A 
ATOM     33  C   UNL     1      -2.770  -9.106  10.189  0.00  0.00    +0.038 A 
ATOM     34  C   UNL     1      -1.878 -10.338  12.067  0.00  0.00    +0.038 A 
ATOM     35  C   UNL     1      -1.714  -9.392  11.055  0.00  0.00    +0.123 A 
ENDBRANCH  24  27
ENDBRANCH   8  24
ENDBRANCH  18  22
ENDBRANCH  13  18
TORSDOF 10
ENDMDL
MODEL 7
REMARK VINA RESULT:      -6.9      3.429      8.593
REMARK  Name = 38027513
REMARK  14 active torsions:
REMARK  status: ('A' for Active; 'I' for Inactive)
REMARK    1  A    between atoms: S_1  and  N_7
REMARK    2  A    between atoms: S_1  and  C_23
REMARK    3  A    between atoms: N_7  and  C_17
REMARK    4  A    between atoms: N_8  and  C_24
REMARK    5  A    between atoms: N_9  and  C_30
REMARK    6  A    between atoms: C_10  and  C_14
REMARK    7  A    between atoms: C_11  and  C_17
REMARK    8  A    between atoms: C_13  and  C_18
REMARK    9  A    between atoms: C_14  and  C_19
REMARK   10  A    between atoms: C_14  and  C_20
REMARK   11  A    between atoms: C_15  and  C_21
REMARK   12  A    between atoms: C_18  and  C_22
REMARK   13  A    between atoms: C_24  and  C_27
REMARK   14  A    between atoms: C_36  and  C_37
REMARK                            x       y       z     vdW  Elec       q    Type
REMARK                         _______ _______ _______ _____ _____    ______ ____
ROOT
ATOM     10  C   UNL     1      -5.422 -11.030  16.727  0.00  0.00    +0.000 C 
ATOM     11  C   UNL     1      -4.480 -11.792  15.761  0.00  0.00    +0.030 C 
ATOM     12  C   UNL     1      -6.834 -11.635  16.686  0.00  0.00    +0.012 C 
ATOM     13  C   UNL     1      -7.445 -11.593  15.272  0.00  0.00    +0.023 C 
ATOM     15  C   UNL     1      -6.469 -12.082  14.222  0.00  0.00    -0.073 C 
ATOM     16  C   UNL     1      -5.149 -12.177  14.463  0.00  0.00    -0.023 C 
ATOM     21  C   UNL     1      -7.050 -12.503  12.901  0.00  0.00    +0.039 C 
ENDROOT
BRANCH  10  14
ATOM     14  C   UNL     1      -4.894 -11.043  18.164  0.00  0.00    -0.013 C 
ATOM     19  C   UNL     1      -5.944 -10.490  19.122  0.00  0.00    +0.007 C 
ATOM     20  C   UNL     1      -4.483 -12.455  18.568  0.00  0.00    +0.007 C 
ENDBRANCH  10  14
BRANCH  11  17
ATOM     17  C   UNL     1      -3.217 -10.975  15.461  0.00  0.00    +0.113 C 
BRANCH  17   7
ATOM      7  N   UNL     1      -3.313 -10.424  14.102  0.00  0.00    -0.189 NA
ATOM     38  H   UNL     1      -4.256 -10.224  13.747  0.00  0.00    +0.148 HD
BRANCH   7   1
ATOM      1  S   UNL     1      -2.089 -10.743  12.959  0.00  0.00    +0.058 S 
ATOM      4  O   UNL     1      -1.670 -12.126  13.079  0.00  0.00    -0.153 OA
ATOM      5  O   UNL     1      -1.107  -9.677  13.004  0.00  0.00    -0.153 OA
BRANCH   1  23
ATOM     23  C   UNL     1      -2.967 -10.570  11.434  0.00  0.00    +0.105 A 
ATOM     25  C   UNL     1      -3.683 -11.650  10.915  0.00  0.00    +0.030 A 
ATOM     26  C   UNL     1      -2.943  -9.355  10.749  0.00  0.00    +0.030 A 
ATOM     28  C   UNL     1      -4.375 -11.513   9.711  0.00  0.00    +0.025 A 
ATOM     29  C   UNL     1      -3.636  -9.219   9.546  0.00  0.00    +0.025 A 
ATOM     30  C   UNL     1      -4.351 -10.298   9.027  0.00  0.00    +0.033 A 
BRANCH  30   9
ATOM      6  O   UNL     1      -6.953  -8.910   8.415  0.00  0.00    -0.276 OA
ATOM      9  N   UNL     1      -5.044 -10.162   7.824  0.00  0.00    -0.286 N 
ATOM     36  C   UNL     1      -6.259  -9.503   7.594  0.00  0.00    +0.214 C 
ATOM     37  C   UNL     1      -6.675  -9.583   6.147  0.00  0.00    +0.109 C 
ATOM     40  H   UNL     1      -4.603 -10.608   7.022  0.00  0.00    +0.155 HD
ENDBRANCH  30   9
ENDBRANCH   1  23
ENDBRANCH   7   1
ENDBRANCH  17   7
ENDBRANCH  11  17
BRANCH  13  18
ATOM     18  C   UNL     1      -7.957 -10.189  14.934  0.00  0.00    +0.103 C 
BRANCH  18  22
ATOM      3  O   UNL     1     -10.075 -10.505  16.061  0.00  0.00    -0.276 OA
ATOM      8  N   UNL     1      -8.942  -8.490  16.298  0.00  0.00    -0.311 N 
ATOM     22  C   UNL     1      -9.116  -9.779  15.816  0.00  0.00    +0.214 C 
ATOM     39  H   UNL     1      -8.108  -7.968  16.046  0.00  0.00    +0.149 HD
BRANCH   8  24
ATOM     24  C   UNL     1      -9.895  -7.836  17.164  0.00  0.00    +0.139 C 
BRANCH  24  27
ATOM      2  F   UNL     1     -14.205  -5.640  14.283  0.00  0.00    -0.205 F 
ATOM     27  C   UNL     1     -11.044  -7.250  16.396  0.00  0.00    -0.030 A 
ATOM     31  C   UNL     1     -12.324  -7.789  16.536  0.00  0.00    +0.008 A 
ATOM     32  C   UNL     1     -10.833  -6.168  15.541  0.00  0.00    +0.008 A 
ATOM     33  C   UNL     1     -13.391  -7.246  15.822  0.00  0.00    +0.038 A 
ATOM     34  C   UNL     1     -11.901  -5.625  14.827  0.00  0.00    +0.038 A 
ATOM     35  C   UNL     1     -13.180  -6.164  14.968  0.00  0.00    +0.123 A 
ENDBRANCH  24  27
ENDBRANCH   8  24
ENDBRANCH  18  22
ENDBRANCH  13  18
TORSDOF 10
ENDMDL
MODEL 8
REMARK VINA RESULT:      -6.8     24.902     28.438
REMARK  Name = 38027513
REMARK  14 active torsions:
REMARK  status: ('A' for Active; 'I' for Inactive)
REMARK    1  A    between atoms: S_1  and  N_7
REMARK    2  A    between atoms: S_1  and  C_23
REMARK    3  A    between atoms: N_7  and  C_17
REMARK    4  A    between atoms: N_8  and  C_24
REMARK    5  A    between atoms: N_9  and  C_30
REMARK    6  A    between atoms: C_10  and  C_14
REMARK    7  A    between atoms: C_11  and  C_17
REMARK    8  A    between atoms: C_13  and  C_18
REMARK    9  A    between atoms: C_14  and  C_19
REMARK   10  A    between atoms: C_14  and  C_20
REMARK   11  A    between atoms: C_15  and  C_21
REMARK   12  A    between atoms: C_18  and  C_22
REMARK   13  A    between atoms: C_24  and  C_27
REMARK   14  A    between atoms: C_36  and  C_37
REMARK                            x       y       z     vdW  Elec       q    Type
REMARK                         _______ _______ _______ _____ _____    ______ ____
ROOT
ATOM     10  C   UNL     1      14.817   4.853  -1.223  0.00  0.00    +0.000 C 
ATOM     11  C   UNL     1      13.929   3.611  -1.484  0.00  0.00    +0.030 C 
ATOM     12  C   UNL     1      15.383   4.817   0.206  0.00  0.00    +0.012 C 
ATOM     13  C   UNL     1      14.271   4.776   1.271  0.00  0.00    +0.023 C 
ATOM     15  C   UNL     1      13.208   3.750   0.938  0.00  0.00    -0.073 C 
ATOM     16  C   UNL     1      13.080   3.230  -0.296  0.00  0.00    -0.023 C 
ATOM     21  C   UNL     1      12.324   3.299   2.067  0.00  0.00    +0.039 C 
ENDROOT
BRANCH  10  14
ATOM     14  C   UNL     1      15.964   4.956  -2.232  0.00  0.00    -0.013 C 
ATOM     19  C   UNL     1      16.190   6.410  -2.634  0.00  0.00    +0.007 C 
ATOM     20  C   UNL     1      17.239   4.351  -1.653  0.00  0.00    +0.007 C 
ENDBRANCH  10  14
BRANCH  11  17
ATOM     17  C   UNL     1      13.031   3.821  -2.709  0.00  0.00    +0.113 C 
BRANCH  17   7
ATOM      7  N   UNL     1      12.319   5.100  -2.568  0.00  0.00    -0.189 NA
ATOM     38  H   UNL     1      12.857   5.893  -2.198  0.00  0.00    +0.148 HD
BRANCH   7   1
ATOM      1  S   UNL     1      10.629   5.120  -2.347  0.00  0.00    +0.058 S 
ATOM      4  O   UNL     1      10.163   3.772  -2.086  0.00  0.00    -0.153 OA
ATOM      5  O   UNL     1      10.022   5.910  -3.401  0.00  0.00    -0.153 OA
BRANCH   1  23
ATOM     23  C   UNL     1      10.472   6.050  -0.851  0.00  0.00    +0.105 A 
ATOM     25  C   UNL     1      10.015   5.428   0.312  0.00  0.00    +0.030 A 
ATOM     26  C   UNL     1      10.804   7.404  -0.834  0.00  0.00    +0.030 A 
ATOM     28  C   UNL     1       9.892   6.163   1.491  0.00  0.00    +0.025 A 
ATOM     29  C   UNL     1      10.680   8.138   0.346  0.00  0.00    +0.025 A 
ATOM     30  C   UNL     1      10.224   7.517   1.508  0.00  0.00    +0.033 A 
BRANCH  30   9
ATOM      6  O   UNL     1       7.781   8.635   2.868  0.00  0.00    -0.276 OA
ATOM      9  N   UNL     1      10.101   8.251   2.688  0.00  0.00    -0.286 N 
ATOM     36  C   UNL     1       8.932   8.750   3.278  0.00  0.00    +0.214 C 
ATOM     37  C   UNL     1       9.225   9.494   4.558  0.00  0.00    +0.109 C 
ATOM     40  H   UNL     1      10.977   8.445   3.167  0.00  0.00    +0.155 HD
ENDBRANCH  30   9
ENDBRANCH   1  23
ENDBRANCH   7   1
ENDBRANCH  17   7
ENDBRANCH  11  17
BRANCH  13  18
ATOM     18  C   UNL     1      13.651   6.163   1.474  0.00  0.00    +0.103 C 
BRANCH  18  22
ATOM      3  O   UNL     1      15.092   7.171   3.136  0.00  0.00    -0.276 OA
ATOM      8  N   UNL     1      12.876   6.717   3.667  0.00  0.00    -0.311 N 
ATOM     22  C   UNL     1      13.983   6.742   2.832  0.00  0.00    +0.214 C 
ATOM     39  H   UNL     1      11.995   6.349   3.322  0.00  0.00    +0.149 HD
BRANCH   8  24
ATOM     24  C   UNL     1      12.902   7.205   5.027  0.00  0.00    +0.139 C 
BRANCH  24  27
ATOM      2  F   UNL     1       9.042   4.669   8.248  0.00  0.00    -0.205 F 
ATOM     27  C   UNL     1      11.873   6.529   5.886  0.00  0.00    -0.030 A 
ATOM     31  C   UNL     1      10.836   5.805   5.294  0.00  0.00    +0.008 A 
ATOM     32  C   UNL     1      11.952   6.624   7.275  0.00  0.00    +0.008 A 
ATOM     33  C   UNL     1       9.880   5.178   6.092  0.00  0.00    +0.038 A 
ATOM     34  C   UNL     1      10.996   5.996   8.073  0.00  0.00    +0.038 A 
ATOM     35  C   UNL     1       9.960   5.273   7.481  0.00  0.00    +0.123 A 
ENDBRANCH  24  27
ENDBRANCH   8  24
ENDBRANCH  18  22
ENDBRANCH  13  18
TORSDOF 10
ENDMDL
MODEL 9
REMARK VINA RESULT:      -6.8      3.722      7.785
REMARK  Name = 38027513
REMARK  14 active torsions:
REMARK  status: ('A' for Active; 'I' for Inactive)
REMARK    1  A    between atoms: S_1  and  N_7
REMARK    2  A    between atoms: S_1  and  C_23
REMARK    3  A    between atoms: N_7  and  C_17
REMARK    4  A    between atoms: N_8  and  C_24
REMARK    5  A    between atoms: N_9  and  C_30
REMARK    6  A    between atoms: C_10  and  C_14
REMARK    7  A    between atoms: C_11  and  C_17
REMARK    8  A    between atoms: C_13  and  C_18
REMARK    9  A    between atoms: C_14  and  C_19
REMARK   10  A    between atoms: C_14  and  C_20
REMARK   11  A    between atoms: C_15  and  C_21
REMARK   12  A    between atoms: C_18  and  C_22
REMARK   13  A    between atoms: C_24  and  C_27
REMARK   14  A    between atoms: C_36  and  C_37
REMARK                            x       y       z     vdW  Elec       q    Type
REMARK                         _______ _______ _______ _____ _____    ______ ____
ROOT
ATOM     10  C   UNL     1      -4.043 -11.892  11.582  0.00  0.00    +0.000 C 
ATOM     11  C   UNL     1      -2.931 -10.951  11.053  0.00  0.00    +0.030 C 
ATOM     12  C   UNL     1      -5.272 -11.840  10.661  0.00  0.00    +0.012 C 
ATOM     13  C   UNL     1      -5.851 -10.418  10.542  0.00  0.00    +0.023 C 
ATOM     15  C   UNL     1      -4.770  -9.388  10.285  0.00  0.00    -0.073 C 
ATOM     16  C   UNL     1      -3.469  -9.650  10.506  0.00  0.00    -0.023 C 
ATOM     21  C   UNL     1      -5.213  -8.066   9.724  0.00  0.00    +0.039 C 
ENDROOT
BRANCH  10  14
ATOM     14  C   UNL     1      -3.551 -13.336  11.710  0.00  0.00    -0.013 C 
ATOM     19  C   UNL     1      -4.153 -13.995  12.948  0.00  0.00    +0.007 C 
ATOM     20  C   UNL     1      -3.896 -14.130  10.454  0.00  0.00    +0.007 C 
ENDBRANCH  10  14
BRANCH  11  17
ATOM     17  C   UNL     1      -1.891 -10.657  12.141  0.00  0.00    +0.113 C 
BRANCH  17   7
ATOM      7  N   UNL     1      -2.586 -10.272  13.378  0.00  0.00    -0.189 NA
ATOM     38  H   UNL     1      -3.069  -9.366  13.377  0.00  0.00    +0.148 HD
BRANCH   7   1
ATOM      1  S   UNL     1      -2.069 -10.891  14.880  0.00  0.00    +0.058 S 
ATOM      4  O   UNL     1      -1.093  -9.989  15.459  0.00  0.00    -0.153 OA
ATOM      5  O   UNL     1      -1.762 -12.300  14.732  0.00  0.00    -0.153 OA
BRANCH   1  23
ATOM     23  C   UNL     1      -3.548 -10.784  15.842  0.00  0.00    +0.105 A 
ATOM     25  C   UNL     1      -4.740 -10.369  15.246  0.00  0.00    +0.030 A 
ATOM     26  C   UNL     1      -3.523 -11.113  17.198  0.00  0.00    +0.030 A 
ATOM     28  C   UNL     1      -5.906 -10.285  16.007  0.00  0.00    +0.025 A 
ATOM     29  C   UNL     1      -4.690 -11.028  17.957  0.00  0.00    +0.025 A 
ATOM     30  C   UNL     1      -5.882 -10.614  17.362  0.00  0.00    +0.033 A 
BRANCH  30   9
ATOM      6  O   UNL     1      -7.664 -12.781  18.454  0.00  0.00    -0.276 OA
ATOM      9  N   UNL     1      -7.048 -10.529  18.121  0.00  0.00    -0.286 N 
ATOM     36  C   UNL     1      -7.844 -11.576  18.604  0.00  0.00    +0.214 C 
ATOM     37  C   UNL     1      -9.028 -11.065  19.388  0.00  0.00    +0.109 C 
ATOM     40  H   UNL     1      -7.352  -9.583  18.338  0.00  0.00    +0.155 HD
ENDBRANCH  30   9
ENDBRANCH   1  23
ENDBRANCH   7   1
ENDBRANCH  17   7
ENDBRANCH  11  17
BRANCH  13  18
ATOM     18  C   UNL     1      -6.674 -10.052  11.782  0.00  0.00    +0.103 C 
BRANCH  18  22
ATOM      3  O   UNL     1      -8.996  -9.586  12.279  0.00  0.00    -0.276 OA
ATOM      8  N   UNL     1      -8.295  -9.676  10.065  0.00  0.00    -0.311 N 
ATOM     22  C   UNL     1      -8.115  -9.746  11.439  0.00  0.00    +0.214 C 
ATOM     39  H   UNL     1      -7.501  -9.814   9.448  0.00  0.00    +0.149 HD
BRANCH   8  24
ATOM     24  C   UNL     1      -9.572  -9.400   9.450  0.00  0.00    +0.139 C 
BRANCH  24  27
ATOM      2  F   UNL     1     -10.370  -3.886   8.634  0.00  0.00    -0.205 F 
ATOM     27  C   UNL     1      -9.785  -7.929   9.232  0.00  0.00    -0.030 A 
ATOM     31  C   UNL     1     -10.956  -7.320   9.683  0.00  0.00    +0.008 A 
ATOM     32  C   UNL     1      -8.812  -7.173   8.579  0.00  0.00    +0.008 A 
ATOM     33  C   UNL     1     -11.154  -5.954   9.481  0.00  0.00    +0.038 A 
ATOM     34  C   UNL     1      -9.010  -5.807   8.376  0.00  0.00    +0.038 A 
ATOM     35  C   UNL     1     -10.181  -5.198   8.827  0.00  0.00    +0.123 A 
ENDBRANCH  24  27
ENDBRANCH   8  24
ENDBRANCH  18  22
ENDBRANCH  13  18
TORSDOF 10
ENDMDL
MODEL 10
REMARK VINA RESULT:      -6.8     24.687     27.672
REMARK  Name = 38027513
REMARK  14 active torsions:
REMARK  status: ('A' for Active; 'I' for Inactive)
REMARK    1  A    between atoms: S_1  and  N_7
REMARK    2  A    between atoms: S_1  and  C_23
REMARK    3  A    between atoms: N_7  and  C_17
REMARK    4  A    between atoms: N_8  and  C_24
REMARK    5  A    between atoms: N_9  and  C_30
REMARK    6  A    between atoms: C_10  and  C_14
REMARK    7  A    between atoms: C_11  and  C_17
REMARK    8  A    between atoms: C_13  and  C_18
REMARK    9  A    between atoms: C_14  and  C_19
REMARK   10  A    between atoms: C_14  and  C_20
REMARK   11  A    between atoms: C_15  and  C_21
REMARK   12  A    between atoms: C_18  and  C_22
REMARK   13  A    between atoms: C_24  and  C_27
REMARK   14  A    between atoms: C_36  and  C_37
REMARK                            x       y       z     vdW  Elec       q    Type
REMARK                         _______ _______ _______ _____ _____    ______ ____
ROOT
ATOM     10  C   UNL     1       9.970   6.484   4.879  0.00  0.00    +0.000 C 
ATOM     11  C   UNL     1      10.313   5.984   3.452  0.00  0.00    +0.030 C 
ATOM     12  C   UNL     1       8.524   7.000   4.932  0.00  0.00    +0.012 C 
ATOM     13  C   UNL     1       8.279   8.152   3.939  0.00  0.00    +0.023 C 
ATOM     15  C   UNL     1       8.835   7.839   2.565  0.00  0.00    -0.073 C 
ATOM     16  C   UNL     1       9.733   6.857   2.365  0.00  0.00    -0.023 C 
ATOM     21  C   UNL     1       8.301   8.649   1.417  0.00  0.00    +0.039 C 
ENDROOT
BRANCH  10  14
ATOM     14  C   UNL     1      10.168   5.386   5.928  0.00  0.00    -0.013 C 
ATOM     19  C   UNL     1       9.427   5.740   7.213  0.00  0.00    +0.007 C 
ATOM     20  C   UNL     1       9.699   4.040   5.386  0.00  0.00    +0.007 C 
ENDBRANCH  10  14
BRANCH  11  17
ATOM     17  C   UNL     1      11.830   5.866   3.258  0.00  0.00    +0.113 C 
BRANCH  17   7
ATOM      7  N   UNL     1      12.135   4.562   2.650  0.00  0.00    -0.189 NA
ATOM     38  H   UNL     1      11.814   3.727   3.156  0.00  0.00    +0.148 HD
BRANCH   7   1
ATOM      1  S   UNL     1      13.478   4.391   1.615  0.00  0.00    +0.058 S 
ATOM      4  O   UNL     1      14.184   3.168   1.943  0.00  0.00    -0.153 OA
ATOM      5  O   UNL     1      14.193   5.652   1.555  0.00  0.00    -0.153 OA
BRANCH   1  23
ATOM     23  C   UNL     1      12.697   4.166   0.045  0.00  0.00    +0.105 A 
ATOM     25  C   UNL     1      11.419   4.678  -0.178  0.00  0.00    +0.030 A 
ATOM     26  C   UNL     1      13.359   3.474  -0.970  0.00  0.00    +0.030 A 
ATOM     28  C   UNL     1      10.803   4.499  -1.417  0.00  0.00    +0.025 A 
ATOM     29  C   UNL     1      12.742   3.295  -2.208  0.00  0.00    +0.025 A 
ATOM     30  C   UNL     1      11.465   3.808  -2.432  0.00  0.00    +0.033 A 
BRANCH  30   9
ATOM      6  O   UNL     1       9.397   1.805  -3.316  0.00  0.00    -0.276 OA
ATOM      9  N   UNL     1      10.849   3.629  -3.670  0.00  0.00    -0.286 N 
ATOM     36  C   UNL     1       9.888   2.675  -4.030  0.00  0.00    +0.214 C 
ATOM     37  C   UNL     1       9.472   2.815  -5.473  0.00  0.00    +0.109 C 
ATOM     40  H   UNL     1      11.149   4.276  -4.396  0.00  0.00    +0.155 HD
ENDBRANCH  30   9
ENDBRANCH   1  23
ENDBRANCH   7   1
ENDBRANCH  17   7
ENDBRANCH  11  17
BRANCH  13  18
ATOM     18  C   UNL     1       8.848   9.471   4.473  0.00  0.00    +0.103 C 
BRANCH  18  22
ATOM      3  O   UNL     1       8.064  11.748   4.710  0.00  0.00    -0.276 OA
ATOM      8  N   UNL     1       6.532  10.045   4.315  0.00  0.00    -0.311 N 
ATOM     22  C   UNL     1       7.803  10.564   4.518  0.00  0.00    +0.214 C 
ATOM     39  H   UNL     1       6.416   9.049   4.155  0.00  0.00    +0.149 HD
BRANCH   8  24
ATOM     24  C   UNL     1       5.339  10.860   4.309  0.00  0.00    +0.139 C 
BRANCH  24  27
ATOM      2  F   UNL     1       2.367  10.203  -0.429  0.00  0.00    -0.205 F 
ATOM     27  C   UNL     1       4.547  10.685   3.045  0.00  0.00    -0.030 A 
ATOM     31  C   UNL     1       5.011   9.831   2.044  0.00  0.00    +0.008 A 
ATOM     32  C   UNL     1       3.347  11.376   2.872  0.00  0.00    +0.008 A 
ATOM     33  C   UNL     1       4.275   9.669   0.870  0.00  0.00    +0.038 A 
ATOM     34  C   UNL     1       2.611  11.213   1.699  0.00  0.00    +0.038 A 
ATOM     35  C   UNL     1       3.075  10.360   0.698  0.00  0.00    +0.123 A 
ENDBRANCH  24  27
ENDBRANCH   8  24
ENDBRANCH  18  22
ENDBRANCH  13  18
TORSDOF 10
ENDMDL
