MODEL 1
REMARK VINA RESULT:      -5.3      0.000      0.000
REMARK  Name = 75536200
REMARK  6 active torsions:
REMARK  status: ('A' for Active; 'I' for Inactive)
REMARK    1  A    between atoms: N_2  and  C_16
REMARK    2  A    between atoms: C_5  and  C_7
REMARK    3  A    between atoms: C_6  and  C_9
REMARK    4  A    between atoms: C_6  and  C_12
REMARK    5  A    between atoms: C_6  and  C_13
REMARK    6  A    between atoms: C_6  and  C_14
REMARK                            x       y       z     vdW  Elec       q    Type
REMARK                         _______ _______ _______ _____ _____    ______ ____
ROOT
ATOM      3  N   UNL     1      15.076   7.487  18.938  0.00  0.00    -0.344 N 
ATOM      4  N   UNL     1      14.672   9.668  19.042  0.00  0.00    -0.239 NA
ATOM      7  C   UNL     1      14.310   8.528  18.496  0.00  0.00    +0.127 A 
ATOM      9  C   UNL     1      15.986   7.994  19.822  0.00  0.00    +0.041 A 
ATOM     15  C   UNL     1      15.718   9.341  19.870  0.00  0.00    +0.134 A 
ATOM     17  H   UNL     1      14.980   6.520  18.657  0.00  0.00    +0.167 HD
ENDROOT
BRANCH   7   5
ATOM      1  O   UNL     1      12.598   8.712  15.151  0.00  0.00    -0.377 OA
ATOM      2  N   UNL     1      11.887   8.891  17.918  0.00  0.00    -0.292 NA
ATOM      5  C   UNL     1      13.188   8.316  17.490  0.00  0.00    +0.149 C 
ATOM      8  C   UNL     1      13.611   8.916  16.135  0.00  0.00    +0.186 C 
ATOM     10  C   UNL     1      10.884   8.736  16.850  0.00  0.00    +0.113 C 
ATOM     11  C   UNL     1      11.384   9.345  15.547  0.00  0.00    +0.175 C 
ATOM     16  C   UNL     1      11.383   8.264  19.146  0.00  0.00    +0.105 C 
ENDBRANCH   7   5
BRANCH   9   6
ATOM      6  C   UNL     1      16.984   7.155  20.505  0.00  0.00    +0.004 C 
ATOM     12  C   UNL     1      17.695   6.168  19.517  0.00  0.00    +0.017 C 
ATOM     13  C   UNL     1      18.160   7.922  21.217  0.00  0.00    +0.017 C 
ATOM     14  C   UNL     1      16.340   6.280  21.635  0.00  0.00    +0.017 C 
ENDBRANCH   9   6
TORSDOF 2
ENDMDL
MODEL 2
REMARK VINA RESULT:      -5.1      4.075      6.050
REMARK  Name = 75536200
REMARK  6 active torsions:
REMARK  status: ('A' for Active; 'I' for Inactive)
REMARK    1  A    between atoms: N_2  and  C_16
REMARK    2  A    between atoms: C_5  and  C_7
REMARK    3  A    between atoms: C_6  and  C_9
REMARK    4  A    between atoms: C_6  and  C_12
REMARK    5  A    between atoms: C_6  and  C_13
REMARK    6  A    between atoms: C_6  and  C_14
REMARK                            x       y       z     vdW  Elec       q    Type
REMARK                         _______ _______ _______ _____ _____    ______ ____
ROOT
ATOM      3  N   UNL     1      12.943   9.533  22.196  0.00  0.00    -0.344 N 
ATOM      4  N   UNL     1      11.421   7.920  22.086  0.00  0.00    -0.239 NA
ATOM      7  C   UNL     1      12.670   8.243  21.837  0.00  0.00    +0.127 A 
ATOM      9  C   UNL     1      11.795  10.068  22.706  0.00  0.00    +0.041 A 
ATOM     15  C   UNL     1      10.869   9.054  22.628  0.00  0.00    +0.134 A 
ATOM     17  H   UNL     1      13.836   9.998  22.098  0.00  0.00    +0.167 HD
ENDROOT
BRANCH   7   5
ATOM      1  O   UNL     1      16.087   6.712  21.468  0.00  0.00    -0.377 OA
ATOM      2  N   UNL     1      13.945   7.571  19.774  0.00  0.00    -0.292 NA
ATOM      5  C   UNL     1      13.738   7.347  21.227  0.00  0.00    +0.149 C 
ATOM      8  C   UNL     1      15.062   7.558  21.989  0.00  0.00    +0.186 C 
ATOM     10  C   UNL     1      15.062   6.744  19.284  0.00  0.00    +0.113 C 
ATOM     11  C   UNL     1      16.325   7.006  20.094  0.00  0.00    +0.175 C 
ATOM     16  C   UNL     1      12.742   7.266  18.990  0.00  0.00    +0.105 C 
ENDBRANCH   7   5
BRANCH   9   6
ATOM      6  C   UNL     1      11.712  11.452  23.200  0.00  0.00    +0.004 C 
ATOM     12  C   UNL     1      11.096  12.419  22.131  0.00  0.00    +0.017 C 
ATOM     13  C   UNL     1      10.839  11.675  24.489  0.00  0.00    +0.017 C 
ATOM     14  C   UNL     1      13.122  12.026  23.571  0.00  0.00    +0.017 C 
ENDBRANCH   9   6
TORSDOF 2
ENDMDL
MODEL 3
REMARK VINA RESULT:      -5.1      2.608      5.187
REMARK  Name = 75536200
REMARK  6 active torsions:
REMARK  status: ('A' for Active; 'I' for Inactive)
REMARK    1  A    between atoms: N_2  and  C_16
REMARK    2  A    between atoms: C_5  and  C_7
REMARK    3  A    between atoms: C_6  and  C_9
REMARK    4  A    between atoms: C_6  and  C_12
REMARK    5  A    between atoms: C_6  and  C_13
REMARK    6  A    between atoms: C_6  and  C_14
REMARK                            x       y       z     vdW  Elec       q    Type
REMARK                         _______ _______ _______ _____ _____    ______ ____
ROOT
ATOM      3  N   UNL     1      13.501   9.743  17.624  0.00  0.00    -0.344 N 
ATOM      4  N   UNL     1      13.595   7.796  16.559  0.00  0.00    -0.239 NA
ATOM      7  C   UNL     1      13.234   8.402  17.668  0.00  0.00    +0.127 A 
ATOM      9  C   UNL     1      14.068  10.008  16.410  0.00  0.00    +0.041 A 
ATOM     15  C   UNL     1      14.116   8.791  15.770  0.00  0.00    +0.134 A 
ATOM     17  H   UNL     1      13.309  10.409  18.361  0.00  0.00    +0.167 HD
ENDROOT
BRANCH   7   5
ATOM      1  O   UNL     1      10.673   7.967  20.389  0.00  0.00    -0.377 OA
ATOM      2  N   UNL     1      13.502   7.675  20.062  0.00  0.00    -0.292 NA
ATOM      5  C   UNL     1      12.594   7.762  18.891  0.00  0.00    +0.149 C 
ATOM      8  C   UNL     1      11.324   8.553  19.263  0.00  0.00    +0.186 C 
ATOM     10  C   UNL     1      12.779   7.142  21.230  0.00  0.00    +0.113 C 
ATOM     11  C   UNL     1      11.537   7.973  21.523  0.00  0.00    +0.175 C 
ATOM     16  C   UNL     1      14.672   6.830  19.794  0.00  0.00    +0.105 C 
ENDBRANCH   7   5
BRANCH   9   6
ATOM      6  C   UNL     1      14.489  11.358  16.007  0.00  0.00    +0.004 C 
ATOM     12  C   UNL     1      14.186  12.423  17.117  0.00  0.00    +0.017 C 
ATOM     13  C   UNL     1      16.020  11.540  15.689  0.00  0.00    +0.017 C 
ATOM     14  C   UNL     1      13.755  11.838  14.707  0.00  0.00    +0.017 C 
ENDBRANCH   9   6
TORSDOF 2
ENDMDL
MODEL 4
REMARK VINA RESULT:      -5.0      2.836      3.827
REMARK  Name = 75536200
REMARK  6 active torsions:
REMARK  status: ('A' for Active; 'I' for Inactive)
REMARK    1  A    between atoms: N_2  and  C_16
REMARK    2  A    between atoms: C_5  and  C_7
REMARK    3  A    between atoms: C_6  and  C_9
REMARK    4  A    between atoms: C_6  and  C_12
REMARK    5  A    between atoms: C_6  and  C_13
REMARK    6  A    between atoms: C_6  and  C_14
REMARK                            x       y       z     vdW  Elec       q    Type
REMARK                         _______ _______ _______ _____ _____    ______ ____
ROOT
ATOM      3  N   UNL     1      14.459   8.063  20.763  0.00  0.00    -0.344 N 
ATOM      4  N   UNL     1      13.455   7.902  18.788  0.00  0.00    -0.239 NA
ATOM      7  C   UNL     1      13.331   8.311  20.031  0.00  0.00    +0.127 A 
ATOM      9  C   UNL     1      15.360   7.457  19.934  0.00  0.00    +0.041 A 
ATOM     15  C   UNL     1      14.719   7.368  18.721  0.00  0.00    +0.134 A 
ATOM     17  H   UNL     1      14.593   8.291  21.740  0.00  0.00    +0.167 HD
ENDROOT
BRANCH   7   5
ATOM      1  O   UNL     1      11.353  11.122  21.561  0.00  0.00    -0.377 OA
ATOM      2  N   UNL     1      11.597   8.285  21.855  0.00  0.00    -0.292 NA
ATOM      5  C   UNL     1      12.115   8.984  20.652  0.00  0.00    +0.149 C 
ATOM      8  C   UNL     1      12.476  10.441  21.002  0.00  0.00    +0.186 C 
ATOM     10  C   UNL     1      10.491   9.052  22.454  0.00  0.00    +0.113 C 
ATOM     11  C   UNL     1      10.927  10.479  22.759  0.00  0.00    +0.175 C 
ATOM     16  C   UNL     1      11.128   6.928  21.547  0.00  0.00    +0.105 C 
ENDBRANCH   7   5
BRANCH   9   6
ATOM      6  C   UNL     1      16.699   7.043  20.382  0.00  0.00    +0.004 C 
ATOM     12  C   UNL     1      16.638   6.174  21.685  0.00  0.00    +0.017 C 
ATOM     13  C   UNL     1      17.530   6.176  19.365  0.00  0.00    +0.017 C 
ATOM     14  C   UNL     1      17.618   8.272  20.699  0.00  0.00    +0.017 C 
ENDBRANCH   9   6
TORSDOF 2
ENDMDL
MODEL 5
REMARK VINA RESULT:      -4.9      4.735      6.679
REMARK  Name = 75536200
REMARK  6 active torsions:
REMARK  status: ('A' for Active; 'I' for Inactive)
REMARK    1  A    between atoms: N_2  and  C_16
REMARK    2  A    between atoms: C_5  and  C_7
REMARK    3  A    between atoms: C_6  and  C_9
REMARK    4  A    between atoms: C_6  and  C_12
REMARK    5  A    between atoms: C_6  and  C_13
REMARK    6  A    between atoms: C_6  and  C_14
REMARK                            x       y       z     vdW  Elec       q    Type
REMARK                         _______ _______ _______ _____ _____    ______ ____
ROOT
ATOM      3  N   UNL     1      11.687  11.548  21.714  0.00  0.00    -0.344 N 
ATOM      4  N   UNL     1      11.142   9.861  23.052  0.00  0.00    -0.239 NA
ATOM      7  C   UNL     1      11.689  10.194  21.904  0.00  0.00    +0.127 A 
ATOM      9  C   UNL     1      11.101  12.115  22.810  0.00  0.00    +0.041 A 
ATOM     15  C   UNL     1      10.772  11.055  23.621  0.00  0.00    +0.134 A 
ATOM     17  H   UNL     1      12.056  12.032  20.906  0.00  0.00    +0.167 HD
ENDROOT
BRANCH   7   5
ATOM      1  O   UNL     1      11.624   7.674  19.111  0.00  0.00    -0.377 OA
ATOM      2  N   UNL     1      13.199   8.236  21.435  0.00  0.00    -0.292 NA
ATOM      5  C   UNL     1      12.274   9.249  20.865  0.00  0.00    +0.149 C 
ATOM      8  C   UNL     1      11.120   8.551  20.118  0.00  0.00    +0.186 C 
ATOM     10  C   UNL     1      13.638   7.299  20.386  0.00  0.00    +0.113 C 
ATOM     11  C   UNL     1      12.440   6.662  19.694  0.00  0.00    +0.175 C 
ATOM     16  C   UNL     1      14.379   8.851  22.054  0.00  0.00    +0.105 C 
ENDBRANCH   7   5
BRANCH   9   6
ATOM      6  C   UNL     1      10.925  13.568  22.955  0.00  0.00    +0.004 C 
ATOM     12  C   UNL     1      10.189  14.196  21.722  0.00  0.00    +0.017 C 
ATOM     13  C   UNL     1      10.089  14.042  24.201  0.00  0.00    +0.017 C 
ATOM     14  C   UNL     1      12.297  14.314  23.091  0.00  0.00    +0.017 C 
ENDBRANCH   9   6
TORSDOF 2
ENDMDL
MODEL 6
REMARK VINA RESULT:      -4.8      5.138      6.757
REMARK  Name = 75536200
REMARK  6 active torsions:
REMARK  status: ('A' for Active; 'I' for Inactive)
REMARK    1  A    between atoms: N_2  and  C_16
REMARK    2  A    between atoms: C_5  and  C_7
REMARK    3  A    between atoms: C_6  and  C_9
REMARK    4  A    between atoms: C_6  and  C_12
REMARK    5  A    between atoms: C_6  and  C_13
REMARK    6  A    between atoms: C_6  and  C_14
REMARK                            x       y       z     vdW  Elec       q    Type
REMARK                         _______ _______ _______ _____ _____    ______ ____
ROOT
ATOM      3  N   UNL     1      12.312  10.095  21.137  0.00  0.00    -0.344 N 
ATOM      4  N   UNL     1      10.532   9.329  22.223  0.00  0.00    -0.239 NA
ATOM      7  C   UNL     1      11.455  10.264  22.189  0.00  0.00    +0.127 A 
ATOM      9  C   UNL     1      11.911   8.980  20.457  0.00  0.00    +0.041 A 
ATOM     15  C   UNL     1      10.811   8.524  21.145  0.00  0.00    +0.134 A 
ATOM     17  H   UNL     1      13.097  10.692  20.912  0.00  0.00    +0.167 HD
ENDROOT
BRANCH   7   5
ATOM      1  O   UNL     1      11.428  11.985  25.534  0.00  0.00    -0.377 OA
ATOM      2  N   UNL     1      10.794  12.610  22.814  0.00  0.00    -0.292 NA
ATOM      5  C   UNL     1      11.614  11.423  23.162  0.00  0.00    +0.149 C 
ATOM      8  C   UNL     1      11.263  10.935  24.582  0.00  0.00    +0.186 C 
ATOM     10  C   UNL     1      10.923  13.644  23.857  0.00  0.00    +0.113 C 
ATOM     11  C   UNL     1      10.568  13.078  25.225  0.00  0.00    +0.175 C 
ATOM     16  C   UNL     1      11.175  13.185  21.518  0.00  0.00    +0.105 C 
ENDBRANCH   7   5
BRANCH   9   6
ATOM      6  C   UNL     1      12.604   8.488  19.257  0.00  0.00    +0.004 C 
ATOM     12  C   UNL     1      13.072   7.000  19.418  0.00  0.00    +0.017 C 
ATOM     13  C   UNL     1      11.770   8.501  17.922  0.00  0.00    +0.017 C 
ATOM     14  C   UNL     1      13.884   9.332  18.932  0.00  0.00    +0.017 C 
ENDBRANCH   9   6
TORSDOF 2
ENDMDL
MODEL 7
REMARK VINA RESULT:      -4.8      1.098      2.285
REMARK  Name = 75536200
REMARK  6 active torsions:
REMARK  status: ('A' for Active; 'I' for Inactive)
REMARK    1  A    between atoms: N_2  and  C_16
REMARK    2  A    between atoms: C_5  and  C_7
REMARK    3  A    between atoms: C_6  and  C_9
REMARK    4  A    between atoms: C_6  and  C_12
REMARK    5  A    between atoms: C_6  and  C_13
REMARK    6  A    between atoms: C_6  and  C_14
REMARK                            x       y       z     vdW  Elec       q    Type
REMARK                         _______ _______ _______ _____ _____    ______ ____
ROOT
ATOM      3  N   UNL     1      14.949   9.278  19.193  0.00  0.00    -0.344 N 
ATOM      4  N   UNL     1      15.089   7.062  19.180  0.00  0.00    -0.239 NA
ATOM      7  C   UNL     1      14.497   8.108  18.649  0.00  0.00    +0.127 A 
ATOM      9  C   UNL     1      15.888   8.958  20.131  0.00  0.00    +0.041 A 
ATOM     15  C   UNL     1      15.958   7.585  20.106  0.00  0.00    +0.134 A 
ATOM     17  H   UNL     1      14.638  10.207  18.940  0.00  0.00    +0.167 HD
ENDROOT
BRANCH   7   5
ATOM      1  O   UNL     1      13.096   8.607  15.193  0.00  0.00    -0.377 OA
ATOM      2  N   UNL     1      12.222   8.886  17.905  0.00  0.00    -0.292 NA
ATOM      5  C   UNL     1      13.433   8.099  17.561  0.00  0.00    +0.149 C 
ATOM      8  C   UNL     1      14.053   8.627  16.252  0.00  0.00    +0.186 C 
ATOM     10  C   UNL     1      11.290   8.913  16.764  0.00  0.00    +0.113 C 
ATOM     11  C   UNL     1      11.982   9.436  15.513  0.00  0.00    +0.175 C 
ATOM     16  C   UNL     1      11.528   8.346  19.080  0.00  0.00    +0.105 C 
ENDBRANCH   7   5
BRANCH   9   6
ATOM      6  C   UNL     1      16.597   9.973  20.926  0.00  0.00    +0.004 C 
ATOM     12  C   UNL     1      15.779  10.402  22.193  0.00  0.00    +0.017 C 
ATOM     13  C   UNL     1      18.007   9.553  21.486  0.00  0.00    +0.017 C 
ATOM     14  C   UNL     1      16.872  11.277  20.101  0.00  0.00    +0.017 C 
ENDBRANCH   9   6
TORSDOF 2
ENDMDL
MODEL 8
REMARK VINA RESULT:      -4.7     12.843     15.628
REMARK  Name = 75536200
REMARK  6 active torsions:
REMARK  status: ('A' for Active; 'I' for Inactive)
REMARK    1  A    between atoms: N_2  and  C_16
REMARK    2  A    between atoms: C_5  and  C_7
REMARK    3  A    between atoms: C_6  and  C_9
REMARK    4  A    between atoms: C_6  and  C_12
REMARK    5  A    between atoms: C_6  and  C_13
REMARK    6  A    between atoms: C_6  and  C_14
REMARK                            x       y       z     vdW  Elec       q    Type
REMARK                         _______ _______ _______ _____ _____    ______ ____
ROOT
ATOM      3  N   UNL     1      11.158   5.420   4.828  0.00  0.00    -0.344 N 
ATOM      4  N   UNL     1       9.738   6.325   3.380  0.00  0.00    -0.239 NA
ATOM      7  C   UNL     1      10.860   5.654   3.515  0.00  0.00    +0.127 A 
ATOM      9  C   UNL     1      10.163   5.978   5.580  0.00  0.00    +0.041 A 
ATOM     15  C   UNL     1       9.299   6.531   4.665  0.00  0.00    +0.134 A 
ATOM     17  H   UNL     1      11.970   4.923   5.171  0.00  0.00    +0.167 HD
ENDROOT
BRANCH   7   5
ATOM      1  O   UNL     1      12.578   3.117   1.331  0.00  0.00    -0.377 OA
ATOM      2  N   UNL     1      13.162   5.665   2.497  0.00  0.00    -0.292 NA
ATOM      5  C   UNL     1      11.768   5.163   2.396  0.00  0.00    +0.149 C 
ATOM      8  C   UNL     1      11.761   3.622   2.387  0.00  0.00    +0.186 C 
ATOM     10  C   UNL     1      13.998   5.064   1.443  0.00  0.00    +0.113 C 
ATOM     11  C   UNL     1      13.927   3.544   1.498  0.00  0.00    +0.175 C 
ATOM     16  C   UNL     1      13.232   7.128   2.391  0.00  0.00    +0.105 C 
ENDBRANCH   7   5
BRANCH   9   6
ATOM      6  C   UNL     1      10.150   5.922   7.050  0.00  0.00    +0.004 C 
ATOM     12  C   UNL     1       9.086   6.895   7.664  0.00  0.00    +0.017 C 
ATOM     13  C   UNL     1       9.821   4.520   7.685  0.00  0.00    +0.017 C 
ATOM     14  C   UNL     1      11.536   6.320   7.665  0.00  0.00    +0.017 C 
ENDBRANCH   9   6
TORSDOF 2
ENDMDL
MODEL 9
REMARK VINA RESULT:      -4.7     30.715     32.247
REMARK  Name = 75536200
REMARK  6 active torsions:
REMARK  status: ('A' for Active; 'I' for Inactive)
REMARK    1  A    between atoms: N_2  and  C_16
REMARK    2  A    between atoms: C_5  and  C_7
REMARK    3  A    between atoms: C_6  and  C_9
REMARK    4  A    between atoms: C_6  and  C_12
REMARK    5  A    between atoms: C_6  and  C_13
REMARK    6  A    between atoms: C_6  and  C_14
REMARK                            x       y       z     vdW  Elec       q    Type
REMARK                         _______ _______ _______ _____ _____    ______ ____
ROOT
ATOM      3  N   UNL     1     -13.794   4.995  32.424  0.00  0.00    -0.344 N 
ATOM      4  N   UNL     1     -15.546   4.824  31.070  0.00  0.00    -0.239 NA
ATOM      7  C   UNL     1     -14.539   4.180  31.617  0.00  0.00    +0.127 A 
ATOM      9  C   UNL     1     -14.362   6.237  32.388  0.00  0.00    +0.041 A 
ATOM     15  C   UNL     1     -15.441   6.107  31.546  0.00  0.00    +0.134 A 
ATOM     17  H   UNL     1     -12.974   4.719  32.948  0.00  0.00    +0.167 HD
ENDROOT
BRANCH   7   5
ATOM      1  O   UNL     1     -13.895   1.012  29.694  0.00  0.00    -0.377 OA
ATOM      2  N   UNL     1     -15.045   1.785  32.199  0.00  0.00    -0.292 NA
ATOM      5  C   UNL     1     -14.182   2.713  31.426  0.00  0.00    +0.149 C 
ATOM      8  C   UNL     1     -14.253   2.374  29.924  0.00  0.00    +0.186 C 
ATOM     10  C   UNL     1     -14.705   0.387  31.880  0.00  0.00    +0.113 C 
ATOM     11  C   UNL     1     -14.790   0.140  30.380  0.00  0.00    +0.175 C 
ATOM     16  C   UNL     1     -14.921   1.991  33.647  0.00  0.00    +0.105 C 
ENDBRANCH   7   5
BRANCH   9   6
ATOM      6  C   UNL     1     -13.824   7.379  33.144  0.00  0.00    +0.004 C 
ATOM     12  C   UNL     1     -14.837   8.575  33.199  0.00  0.00    +0.017 C 
ATOM     13  C   UNL     1     -13.455   7.101  34.648  0.00  0.00    +0.017 C 
ATOM     14  C   UNL     1     -12.503   7.934  32.508  0.00  0.00    +0.017 C 
ENDBRANCH   9   6
TORSDOF 2
ENDMDL
MODEL 10
REMARK VINA RESULT:      -4.7     13.990     16.693
REMARK  Name = 75536200
REMARK  6 active torsions:
REMARK  status: ('A' for Active; 'I' for Inactive)
REMARK    1  A    between atoms: N_2  and  C_16
REMARK    2  A    between atoms: C_5  and  C_7
REMARK    3  A    between atoms: C_6  and  C_9
REMARK    4  A    between atoms: C_6  and  C_12
REMARK    5  A    between atoms: C_6  and  C_13
REMARK    6  A    between atoms: C_6  and  C_14
REMARK                            x       y       z     vdW  Elec       q    Type
REMARK                         _______ _______ _______ _____ _____    ______ ____
ROOT
ATOM      3  N   UNL     1      10.498   4.931   3.877  0.00  0.00    -0.344 N 
ATOM      4  N   UNL     1      12.197   6.189   3.197  0.00  0.00    -0.239 NA
ATOM      7  C   UNL     1      11.474   5.122   2.939  0.00  0.00    +0.127 A 
ATOM      9  C   UNL     1      10.605   5.939   4.791  0.00  0.00    +0.041 A 
ATOM     15  C   UNL     1      11.660   6.704   4.351  0.00  0.00    +0.134 A 
ATOM     17  H   UNL     1       9.823   4.176   3.883  0.00  0.00    +0.167 HD
ENDROOT
BRANCH   7   5
ATOM      1  O   UNL     1      13.263   2.666   0.720  0.00  0.00    -0.377 OA
ATOM      2  N   UNL     1      11.372   4.797   0.446  0.00  0.00    -0.292 NA
ATOM      5  C   UNL     1      11.642   4.170   1.764  0.00  0.00    +0.149 C 
ATOM      8  C   UNL     1      13.071   3.590   1.791  0.00  0.00    +0.186 C 
ATOM     10  C   UNL     1      11.657   3.844  -0.641  0.00  0.00    +0.113 C 
ATOM     11  C   UNL     1      13.080   3.313  -0.536  0.00  0.00    +0.175 C 
ATOM     16  C   UNL     1       9.984   5.259   0.327  0.00  0.00    +0.105 C 
ENDBRANCH   7   5
BRANCH   9   6
ATOM      6  C   UNL     1       9.709   6.058   5.952  0.00  0.00    +0.004 C 
ATOM     12  C   UNL     1       9.787   4.800   6.884  0.00  0.00    +0.017 C 
ATOM     13  C   UNL     1       9.976   7.279   6.909  0.00  0.00    +0.017 C 
ATOM     14  C   UNL     1       8.209   6.211   5.523  0.00  0.00    +0.017 C 
ENDBRANCH   9   6
TORSDOF 2
ENDMDL
