MODEL 1
REMARK VINA RESULT:      -6.3      0.000      0.000
REMARK  Name = 7144226
REMARK  7 active torsions:
REMARK  status: ('A' for Active; 'I' for Inactive)
REMARK    1  A    between atoms: S_1  and  C_28
REMARK    2  A    between atoms: S_1  and  C_29
REMARK    3  A    between atoms: O_4  and  C_27
REMARK    4  A    between atoms: C_15  and  C_20
REMARK    5  A    between atoms: C_17  and  C_21
REMARK    6  A    between atoms: C_21  and  C_22
REMARK    7  A    between atoms: C_22  and  C_27
REMARK                            x       y       z     vdW  Elec       q    Type
REMARK                         _______ _______ _______ _____ _____    ______ ____
ROOT
ATOM      2  O   UNL     1      10.731   5.672   8.689  0.00  0.00    -0.268 OA
ATOM      3  O   UNL     1      10.472  10.596   6.834  0.00  0.00    -0.276 OA
ATOM      6  N   UNL     1      11.798   9.300   5.435  0.00  0.00    -0.301 N 
ATOM      7  N   UNL     1      11.652   6.362   6.649  0.00  0.00    -0.311 N 
ATOM      8  C   UNL     1      13.613   8.010   6.551  0.00  0.00    +0.027 C 
ATOM      9  C   UNL     1      12.621   7.158   4.470  0.00  0.00    +0.054 C 
ATOM     10  C   UNL     1      13.934   7.325   5.232  0.00  0.00    +0.018 C 
ATOM     11  C   UNL     1      12.968   9.384   6.310  0.00  0.00    +0.113 C 
ATOM     12  C   UNL     1      12.707   7.088   7.368  0.00  0.00    +0.130 C 
ATOM     13  C   UNL     1      12.008   8.547   4.192  0.00  0.00    +0.117 C 
ATOM     14  C   UNL     1      11.627   6.286   5.242  0.00  0.00    +0.034 A 
ATOM     15  C   UNL     1      10.725   5.480   4.624  0.00  0.00    +0.002 A 
ATOM     16  C   UNL     1      10.746   5.653   7.459  0.00  0.00    +0.252 A 
ATOM     17  C   UNL     1      10.625   9.969   5.783  0.00  0.00    +0.216 C 
ATOM     18  C   UNL     1       9.773   4.737   5.427  0.00  0.00    +0.015 A 
ATOM     19  C   UNL     1       9.750   4.812   6.757  0.00  0.00    +0.071 A 
ENDROOT
BRANCH  15  20
ATOM     20  C   UNL     1      10.673   5.353   3.151  0.00  0.00    -0.016 A 
ATOM     23  C   UNL     1      10.005   6.314   2.398  0.00  0.00    +0.009 A 
ATOM     24  C   UNL     1      11.293   4.274   2.528  0.00  0.00    +0.009 A 
ATOM     25  C   UNL     1       9.955   6.194   1.009  0.00  0.00    +0.015 A 
ATOM     26  C   UNL     1      11.242   4.154   1.139  0.00  0.00    +0.015 A 
ATOM     28  C   UNL     1      10.574   5.114   0.380  0.00  0.00    +0.008 A 
BRANCH  28   1
ATOM      1  S   UNL     1      10.511   4.961  -1.394  0.00  0.00    -0.129 S 
ATOM     29  C   UNL     1      11.571   3.515  -1.677  0.00  0.00    +0.090 C 
ENDBRANCH  28   1
ENDBRANCH  15  20
BRANCH  17  21
ATOM     21  C   UNL     1       9.487   9.894   4.796  0.00  0.00    +0.107 C 
BRANCH  21  22
ATOM     22  C   UNL     1       8.179   9.694   5.535  0.00  0.00    +0.129 C 
BRANCH  22  27
ATOM      5  O   UNL     1       7.986   7.805   7.032  0.00  0.00    -0.251 OA
ATOM     27  C   UNL     1       7.971   8.241   5.888  0.00  0.00    +0.305 C 
BRANCH  27   4
ATOM      4  O   UNL     1       7.787   7.460   4.794  0.00  0.00    -0.481 OA
ATOM     30  H   UNL     1       6.846   7.208   4.678  0.00  0.00    +0.295 HD
ENDBRANCH  27   4
ENDBRANCH  22  27
ENDBRANCH  21  22
ENDBRANCH  17  21
TORSDOF 6
ENDMDL
MODEL 2
REMARK VINA RESULT:      -6.0      2.305      4.309
REMARK  Name = 7144226
REMARK  7 active torsions:
REMARK  status: ('A' for Active; 'I' for Inactive)
REMARK    1  A    between atoms: S_1  and  C_28
REMARK    2  A    between atoms: S_1  and  C_29
REMARK    3  A    between atoms: O_4  and  C_27
REMARK    4  A    between atoms: C_15  and  C_20
REMARK    5  A    between atoms: C_17  and  C_21
REMARK    6  A    between atoms: C_21  and  C_22
REMARK    7  A    between atoms: C_22  and  C_27
REMARK                            x       y       z     vdW  Elec       q    Type
REMARK                         _______ _______ _______ _____ _____    ______ ____
ROOT
ATOM      2  O   UNL     1       7.012   9.422   4.746  0.00  0.00    -0.268 OA
ATOM      3  O   UNL     1      11.523   9.540   7.464  0.00  0.00    -0.276 OA
ATOM      6  N   UNL     1      11.211   7.425   6.554  0.00  0.00    -0.301 N 
ATOM      7  N   UNL     1       8.548   7.656   4.828  0.00  0.00    -0.311 N 
ATOM      8  C   UNL     1       9.000   6.370   6.999  0.00  0.00    +0.027 C 
ATOM      9  C   UNL     1      10.231   5.792   4.952  0.00  0.00    +0.054 C 
ATOM     10  C   UNL     1       9.364   5.220   6.072  0.00  0.00    +0.018 C 
ATOM     11  C   UNL     1      10.262   7.017   7.590  0.00  0.00    +0.113 C 
ATOM     12  C   UNL     1       8.155   7.376   6.215  0.00  0.00    +0.130 C 
ATOM     13  C   UNL     1      11.518   6.395   5.554  0.00  0.00    +0.117 C 
ATOM     14  C   UNL     1       9.480   6.851   4.141  0.00  0.00    +0.034 A 
ATOM     15  C   UNL     1       9.700   7.053   2.816  0.00  0.00    +0.002 A 
ATOM     16  C   UNL     1       7.845   8.699   4.200  0.00  0.00    +0.252 A 
ATOM     17  C   UNL     1      11.797   8.690   6.614  0.00  0.00    +0.216 C 
ATOM     18  C   UNL     1       8.995   8.123   2.135  0.00  0.00    +0.015 A 
ATOM     19  C   UNL     1       8.132   8.920   2.764  0.00  0.00    +0.071 A 
ENDROOT
BRANCH  15  20
ATOM     20  C   UNL     1      10.653   6.222   2.049  0.00  0.00    -0.016 A 
ATOM     23  C   UNL     1      10.228   5.021   1.488  0.00  0.00    +0.009 A 
ATOM     24  C   UNL     1      11.970   6.646   1.893  0.00  0.00    +0.009 A 
ATOM     25  C   UNL     1      11.128   4.237   0.766  0.00  0.00    +0.015 A 
ATOM     26  C   UNL     1      12.869   5.862   1.172  0.00  0.00    +0.015 A 
ATOM     28  C   UNL     1      12.448   4.658   0.607  0.00  0.00    +0.008 A 
BRANCH  28   1
ATOM      1  S   UNL     1      13.598   3.657  -0.316  0.00  0.00    -0.129 S 
ATOM     29  C   UNL     1      15.135   3.905   0.617  0.00  0.00    +0.090 C 
ENDBRANCH  28   1
ENDBRANCH  15  20
BRANCH  17  21
ATOM     21  C   UNL     1      12.819   9.011   5.552  0.00  0.00    +0.107 C 
BRANCH  21  22
ATOM     22  C   UNL     1      14.205   9.035   6.164  0.00  0.00    +0.129 C 
BRANCH  22  27
ATOM      5  O   UNL     1      15.503   7.326   5.050  0.00  0.00    -0.251 OA
ATOM     27  C   UNL     1      14.878   7.690   6.038  0.00  0.00    +0.305 C 
BRANCH  27   4
ATOM      4  O   UNL     1      14.698   6.912   7.134  0.00  0.00    -0.481 OA
ATOM     30  H   UNL     1      15.541   6.745   7.607  0.00  0.00    +0.295 HD
ENDBRANCH  27   4
ENDBRANCH  22  27
ENDBRANCH  21  22
ENDBRANCH  17  21
TORSDOF 6
ENDMDL
MODEL 3
REMARK VINA RESULT:      -5.8     23.609     25.936
REMARK  Name = 7144226
REMARK  7 active torsions:
REMARK  status: ('A' for Active; 'I' for Inactive)
REMARK    1  A    between atoms: S_1  and  C_28
REMARK    2  A    between atoms: S_1  and  C_29
REMARK    3  A    between atoms: O_4  and  C_27
REMARK    4  A    between atoms: C_15  and  C_20
REMARK    5  A    between atoms: C_17  and  C_21
REMARK    6  A    between atoms: C_21  and  C_22
REMARK    7  A    between atoms: C_22  and  C_27
REMARK                            x       y       z     vdW  Elec       q    Type
REMARK                         _______ _______ _______ _____ _____    ______ ____
ROOT
ATOM      2  O   UNL     1      -1.797 -10.778  16.701  0.00  0.00    -0.268 OA
ATOM      3  O   UNL     1      -3.429 -15.649  15.532  0.00  0.00    -0.276 OA
ATOM      6  N   UNL     1      -4.850 -14.091  14.558  0.00  0.00    -0.301 N 
ATOM      7  N   UNL     1      -3.566 -11.261  15.244  0.00  0.00    -0.311 N 
ATOM      8  C   UNL     1      -5.739 -12.333  16.082  0.00  0.00    +0.027 C 
ATOM      9  C   UNL     1      -5.457 -11.837  13.691  0.00  0.00    +0.054 C 
ATOM     10  C   UNL     1      -6.375 -11.627  14.894  0.00  0.00    +0.018 C 
ATOM     11  C   UNL     1      -5.576 -13.835  15.802  0.00  0.00    +0.113 C 
ATOM     12  C   UNL     1      -4.400 -11.659  16.386  0.00  0.00    +0.130 C 
ATOM     13  C   UNL     1      -5.341 -13.347  13.391  0.00  0.00    +0.117 C 
ATOM     14  C   UNL     1      -4.069 -11.237  13.928  0.00  0.00    +0.034 A 
ATOM     15  C   UNL     1      -3.314 -10.718  12.925  0.00  0.00    +0.002 A 
ATOM     16  C   UNL     1      -2.280 -10.793  15.569  0.00  0.00    +0.252 A 
ATOM     17  C   UNL     1      -3.825 -15.035  14.538  0.00  0.00    +0.216 C 
ATOM     18  C   UNL     1      -1.981 -10.230  13.222  0.00  0.00    +0.015 A 
ATOM     19  C   UNL     1      -1.466 -10.267  14.450  0.00  0.00    +0.071 A 
ENDROOT
BRANCH  15  20
ATOM     20  C   UNL     1      -3.806 -10.655  11.532  0.00  0.00    -0.016 A 
ATOM     23  C   UNL     1      -3.597 -11.732  10.675  0.00  0.00    +0.009 A 
ATOM     24  C   UNL     1      -4.475  -9.518  11.085  0.00  0.00    +0.009 A 
ATOM     25  C   UNL     1      -4.061 -11.671   9.361  0.00  0.00    +0.015 A 
ATOM     26  C   UNL     1      -4.937  -9.458   9.771  0.00  0.00    +0.015 A 
ATOM     28  C   UNL     1      -4.731 -10.535   8.909  0.00  0.00    +0.008 A 
BRANCH  28   1
ATOM      1  S   UNL     1      -5.323 -10.457   7.230  0.00  0.00    -0.129 S 
ATOM     29  C   UNL     1      -4.485 -11.879   6.477  0.00  0.00    +0.090 C 
ENDBRANCH  28   1
ENDBRANCH  15  20
BRANCH  17  21
ATOM     21  C   UNL     1      -3.172 -15.296  13.203  0.00  0.00    +0.107 C 
BRANCH  21  22
ATOM     22  C   UNL     1      -1.867 -14.530  13.112  0.00  0.00    +0.129 C 
BRANCH  22  27
ATOM      5  O   UNL     1      -0.760 -16.600  13.690  0.00  0.00    -0.251 OA
ATOM     27  C   UNL     1      -0.683 -15.453  13.271  0.00  0.00    +0.305 C 
BRANCH  27   4
ATOM      4  O   UNL     1       0.487 -14.864  12.917  0.00  0.00    -0.481 OA
ATOM     30  H   UNL     1       1.091 -15.493  12.468  0.00  0.00    +0.295 HD
ENDBRANCH  27   4
ENDBRANCH  22  27
ENDBRANCH  21  22
ENDBRANCH  17  21
TORSDOF 6
ENDMDL
MODEL 4
REMARK VINA RESULT:      -5.7     25.997     28.375
REMARK  Name = 7144226
REMARK  7 active torsions:
REMARK  status: ('A' for Active; 'I' for Inactive)
REMARK    1  A    between atoms: S_1  and  C_28
REMARK    2  A    between atoms: S_1  and  C_29
REMARK    3  A    between atoms: O_4  and  C_27
REMARK    4  A    between atoms: C_15  and  C_20
REMARK    5  A    between atoms: C_17  and  C_21
REMARK    6  A    between atoms: C_21  and  C_22
REMARK    7  A    between atoms: C_22  and  C_27
REMARK                            x       y       z     vdW  Elec       q    Type
REMARK                         _______ _______ _______ _____ _____    ______ ____
ROOT
ATOM      2  O   UNL     1      -6.562 -14.903  15.382  0.00  0.00    -0.268 OA
ATOM      3  O   UNL     1      -3.636 -11.818  18.491  0.00  0.00    -0.276 OA
ATOM      6  N   UNL     1      -4.608 -10.541  16.811  0.00  0.00    -0.301 N 
ATOM      7  N   UNL     1      -6.450 -12.571  15.195  0.00  0.00    -0.311 N 
ATOM      8  C   UNL     1      -4.290 -11.384  14.489  0.00  0.00    +0.027 C 
ATOM      9  C   UNL     1      -6.291 -10.067  15.040  0.00  0.00    +0.054 C 
ATOM     10  C   UNL     1      -5.225 -10.302  13.971  0.00  0.00    +0.018 C 
ATOM     11  C   UNL     1      -3.626 -10.948  15.805  0.00  0.00    +0.113 C 
ATOM     12  C   UNL     1      -5.089 -12.678  14.653  0.00  0.00    +0.130 C 
ATOM     13  C   UNL     1      -5.615  -9.583  16.340  0.00  0.00    +0.117 C 
ATOM     14  C   UNL     1      -7.111 -11.331  15.308  0.00  0.00    +0.034 A 
ATOM     15  C   UNL     1      -8.419 -11.294  15.670  0.00  0.00    +0.002 A 
ATOM     16  C   UNL     1      -7.086 -13.793  15.477  0.00  0.00    +0.252 A 
ATOM     17  C   UNL     1      -4.492 -11.012  18.119  0.00  0.00    +0.216 C 
ATOM     18  C   UNL     1      -9.107 -12.534  15.972  0.00  0.00    +0.015 A 
ATOM     19  C   UNL     1      -8.502 -13.719  15.904  0.00  0.00    +0.071 A 
ENDROOT
BRANCH  15  20
ATOM     20  C   UNL     1      -9.160 -10.018  15.783  0.00  0.00    -0.016 A 
ATOM     23  C   UNL     1      -9.158  -9.324  16.990  0.00  0.00    +0.009 A 
ATOM     24  C   UNL     1      -9.854  -9.521  14.684  0.00  0.00    +0.009 A 
ATOM     25  C   UNL     1      -9.858  -8.121  17.097  0.00  0.00    +0.015 A 
ATOM     26  C   UNL     1     -10.554  -8.320  14.792  0.00  0.00    +0.015 A 
ATOM     28  C   UNL     1     -10.555  -7.619  15.998  0.00  0.00    +0.008 A 
BRANCH  28   1
ATOM      1  S   UNL     1     -11.448  -6.083  16.135  0.00  0.00    -0.129 S 
ATOM     29  C   UNL     1     -11.915  -5.773  14.410  0.00  0.00    +0.090 C 
ENDBRANCH  28   1
ENDBRANCH  15  20
BRANCH  17  21
ATOM     21  C   UNL     1      -5.498 -10.491  19.115  0.00  0.00    +0.107 C 
BRANCH  21  22
ATOM     22  C   UNL     1      -5.959 -11.619  20.017  0.00  0.00    +0.129 C 
BRANCH  22  27
ATOM      5  O   UNL     1      -8.353 -11.359  19.805  0.00  0.00    -0.251 OA
ATOM     27  C   UNL     1      -7.359 -12.059  19.664  0.00  0.00    +0.305 C 
BRANCH  27   4
ATOM      4  O   UNL     1      -7.402 -13.330  19.192  0.00  0.00    -0.481 OA
ATOM     30  H   UNL     1      -6.768 -13.470  18.458  0.00  0.00    +0.295 HD
ENDBRANCH  27   4
ENDBRANCH  22  27
ENDBRANCH  21  22
ENDBRANCH  17  21
TORSDOF 6
ENDMDL
MODEL 5
REMARK VINA RESULT:      -5.7      1.664      3.805
REMARK  Name = 7144226
REMARK  7 active torsions:
REMARK  status: ('A' for Active; 'I' for Inactive)
REMARK    1  A    between atoms: S_1  and  C_28
REMARK    2  A    between atoms: S_1  and  C_29
REMARK    3  A    between atoms: O_4  and  C_27
REMARK    4  A    between atoms: C_15  and  C_20
REMARK    5  A    between atoms: C_17  and  C_21
REMARK    6  A    between atoms: C_21  and  C_22
REMARK    7  A    between atoms: C_22  and  C_27
REMARK                            x       y       z     vdW  Elec       q    Type
REMARK                         _______ _______ _______ _____ _____    ______ ____
ROOT
ATOM      2  O   UNL     1      12.627   9.966   7.390  0.00  0.00    -0.268 OA
ATOM      3  O   UNL     1       7.872   7.716   7.100  0.00  0.00    -0.276 OA
ATOM      6  N   UNL     1       8.690   8.099   4.960  0.00  0.00    -0.301 N 
ATOM      7  N   UNL     1      11.614   9.278   5.393  0.00  0.00    -0.311 N 
ATOM      8  C   UNL     1       9.493  10.412   4.504  0.00  0.00    +0.027 C 
ATOM      9  C   UNL     1      10.479   8.522   3.281  0.00  0.00    +0.054 C 
ATOM     10  C   UNL     1      10.000   9.966   3.142  0.00  0.00    +0.018 C 
ATOM     11  C   UNL     1       8.335   9.518   4.977  0.00  0.00    +0.113 C 
ATOM     12  C   UNL     1      10.666  10.396   5.487  0.00  0.00    +0.130 C 
ATOM     13  C   UNL     1       9.296   7.628   3.708  0.00  0.00    +0.117 C 
ATOM     14  C   UNL     1      11.624   8.402   4.289  0.00  0.00    +0.034 A 
ATOM     15  C   UNL     1      12.613   7.478   4.169  0.00  0.00    +0.002 A 
ATOM     16  C   UNL     1      12.580   9.219   6.413  0.00  0.00    +0.252 A 
ATOM     17  C   UNL     1       8.382   7.297   6.058  0.00  0.00    +0.216 C 
ATOM     18  C   UNL     1      13.625   7.385   5.204  0.00  0.00    +0.015 A 
ATOM     19  C   UNL     1      13.625   8.178   6.275  0.00  0.00    +0.071 A 
ENDROOT
BRANCH  15  20
ATOM     20  C   UNL     1      12.676   6.549   3.020  0.00  0.00    -0.016 A 
ATOM     23  C   UNL     1      13.494   6.849   1.934  0.00  0.00    +0.009 A 
ATOM     24  C   UNL     1      11.918   5.382   3.031  0.00  0.00    +0.009 A 
ATOM     25  C   UNL     1      13.553   5.974   0.849  0.00  0.00    +0.015 A 
ATOM     26  C   UNL     1      11.977   4.508   1.946  0.00  0.00    +0.015 A 
ATOM     28  C   UNL     1      12.795   4.803   0.856  0.00  0.00    +0.008 A 
BRANCH  28   1
ATOM      1  S   UNL     1      12.871   3.685  -0.529  0.00  0.00    -0.129 S 
ATOM     29  C   UNL     1      14.461   4.132  -1.279  0.00  0.00    +0.090 C 
ENDBRANCH  28   1
ENDBRANCH  15  20
BRANCH  17  21
ATOM     21  C   UNL     1       8.713   5.830   5.937  0.00  0.00    +0.107 C 
BRANCH  21  22
ATOM     22  C   UNL     1      10.101   5.570   6.489  0.00  0.00    +0.129 C 
BRANCH  22  27
ATOM      5  O   UNL     1       9.736   5.699   8.875  0.00  0.00    -0.251 OA
ATOM     27  C   UNL     1      10.033   5.028   7.895  0.00  0.00    +0.305 C 
BRANCH  27   4
ATOM      4  O   UNL     1      10.361   3.713   7.964  0.00  0.00    -0.481 OA
ATOM     30  H   UNL     1      11.288   3.581   8.256  0.00  0.00    +0.295 HD
ENDBRANCH  27   4
ENDBRANCH  22  27
ENDBRANCH  21  22
ENDBRANCH  17  21
TORSDOF 6
ENDMDL
MODEL 6
REMARK VINA RESULT:      -5.6     24.112     26.460
REMARK  Name = 7144226
REMARK  7 active torsions:
REMARK  status: ('A' for Active; 'I' for Inactive)
REMARK    1  A    between atoms: S_1  and  C_28
REMARK    2  A    between atoms: S_1  and  C_29
REMARK    3  A    between atoms: O_4  and  C_27
REMARK    4  A    between atoms: C_15  and  C_20
REMARK    5  A    between atoms: C_17  and  C_21
REMARK    6  A    between atoms: C_21  and  C_22
REMARK    7  A    between atoms: C_22  and  C_27
REMARK                            x       y       z     vdW  Elec       q    Type
REMARK                         _______ _______ _______ _____ _____    ______ ____
ROOT
ATOM      2  O   UNL     1      -1.497 -10.733  16.310  0.00  0.00    -0.268 OA
ATOM      3  O   UNL     1      -5.068 -14.522  17.107  0.00  0.00    -0.276 OA
ATOM      6  N   UNL     1      -6.108 -12.635  16.239  0.00  0.00    -0.301 N 
ATOM      7  N   UNL     1      -3.747 -10.578  15.677  0.00  0.00    -0.311 N 
ATOM      8  C   UNL     1      -5.627 -10.494  17.418  0.00  0.00    +0.027 C 
ATOM      9  C   UNL     1      -6.171 -10.465  15.021  0.00  0.00    +0.054 C 
ATOM     10  C   UNL     1      -6.391  -9.734  16.344  0.00  0.00    +0.018 C 
ATOM     11  C   UNL     1      -6.133 -11.942  17.528  0.00  0.00    +0.113 C 
ATOM     12  C   UNL     1      -4.135 -10.434  17.086  0.00  0.00    +0.130 C 
ATOM     13  C   UNL     1      -6.727 -11.901  15.129  0.00  0.00    +0.117 C 
ATOM     14  C   UNL     1      -4.691 -10.500  14.633  0.00  0.00    +0.034 A 
ATOM     15  C   UNL     1      -4.270 -10.485  13.342  0.00  0.00    +0.002 A 
ATOM     16  C   UNL     1      -2.364 -10.676  15.438  0.00  0.00    +0.252 A 
ATOM     17  C   UNL     1      -5.584 -13.925  16.160  0.00  0.00    +0.216 C 
ATOM     18  C   UNL     1      -2.852 -10.588  13.057  0.00  0.00    +0.015 A 
ATOM     19  C   UNL     1      -1.937 -10.694  14.020  0.00  0.00    +0.071 A 
ENDROOT
BRANCH  15  20
ATOM     20  C   UNL     1      -5.222 -10.385  12.214  0.00  0.00    -0.016 A 
ATOM     23  C   UNL     1      -5.642 -11.541  11.560  0.00  0.00    +0.009 A 
ATOM     24  C   UNL     1      -5.691  -9.138  11.812  0.00  0.00    +0.009 A 
ATOM     25  C   UNL     1      -6.538 -11.447  10.496  0.00  0.00    +0.015 A 
ATOM     26  C   UNL     1      -6.586  -9.045  10.748  0.00  0.00    +0.015 A 
ATOM     28  C   UNL     1      -7.011 -10.199  10.090  0.00  0.00    +0.008 A 
BRANCH  28   1
ATOM      1  S   UNL     1      -8.156 -10.079   8.730  0.00  0.00    -0.129 S 
ATOM     29  C   UNL     1      -7.680  -8.494   7.985  0.00  0.00    +0.090 C 
ENDBRANCH  28   1
ENDBRANCH  15  20
BRANCH  17  21
ATOM     21  C   UNL     1      -5.659 -14.602  14.814  0.00  0.00    +0.107 C 
BRANCH  21  22
ATOM     22  C   UNL     1      -4.459 -14.210  13.974  0.00  0.00    +0.129 C 
BRANCH  22  27
ATOM      5  O   UNL     1      -3.211 -16.183  14.599  0.00  0.00    -0.251 OA
ATOM     27  C   UNL     1      -3.229 -14.977  14.392  0.00  0.00    +0.305 C 
BRANCH  27   4
ATOM      4  O   UNL     1      -2.141 -14.179  14.537  0.00  0.00    -0.481 OA
ATOM     30  H   UNL     1      -1.858 -13.789  13.683  0.00  0.00    +0.295 HD
ENDBRANCH  27   4
ENDBRANCH  22  27
ENDBRANCH  21  22
ENDBRANCH  17  21
TORSDOF 6
ENDMDL
MODEL 7
REMARK VINA RESULT:      -5.5     27.799     30.584
REMARK  Name = 7144226
REMARK  7 active torsions:
REMARK  status: ('A' for Active; 'I' for Inactive)
REMARK    1  A    between atoms: S_1  and  C_28
REMARK    2  A    between atoms: S_1  and  C_29
REMARK    3  A    between atoms: O_4  and  C_27
REMARK    4  A    between atoms: C_15  and  C_20
REMARK    5  A    between atoms: C_17  and  C_21
REMARK    6  A    between atoms: C_21  and  C_22
REMARK    7  A    between atoms: C_22  and  C_27
REMARK                            x       y       z     vdW  Elec       q    Type
REMARK                         _______ _______ _______ _____ _____    ______ ____
ROOT
ATOM      2  O   UNL     1     -15.780   5.145  24.117  0.00  0.00    -0.268 OA
ATOM      3  O   UNL     1     -19.144   7.266  20.663  0.00  0.00    -0.276 OA
ATOM      6  N   UNL     1     -17.308   8.664  20.929  0.00  0.00    -0.301 N 
ATOM      7  N   UNL     1     -15.358   7.098  22.896  0.00  0.00    -0.311 N 
ATOM      8  C   UNL     1     -16.715   9.239  23.279  0.00  0.00    +0.027 C 
ATOM      9  C   UNL     1     -14.958   9.191  21.560  0.00  0.00    +0.054 C 
ATOM     10  C   UNL     1     -15.463   9.949  22.787  0.00  0.00    +0.018 C 
ATOM     11  C   UNL     1     -17.799   9.225  22.189  0.00  0.00    +0.113 C 
ATOM     12  C   UNL     1     -16.330   7.827  23.722  0.00  0.00    +0.130 C 
ATOM     13  C   UNL     1     -16.036   9.225  20.456  0.00  0.00    +0.117 C 
ATOM     14  C   UNL     1     -14.596   7.743  21.901  0.00  0.00    +0.034 A 
ATOM     15  C   UNL     1     -13.602   7.067  21.267  0.00  0.00    +0.002 A 
ATOM     16  C   UNL     1     -15.154   5.752  23.248  0.00  0.00    +0.252 A 
ATOM     17  C   UNL     1     -18.078   7.723  20.246  0.00  0.00    +0.216 C 
ATOM     18  C   UNL     1     -13.366   5.676  21.601  0.00  0.00    +0.015 A 
ATOM     19  C   UNL     1     -14.089   5.030  22.515  0.00  0.00    +0.071 A 
ENDROOT
BRANCH  15  20
ATOM     20  C   UNL     1     -12.764   7.707  20.229  0.00  0.00    -0.016 A 
ATOM     23  C   UNL     1     -13.191   7.713  18.904  0.00  0.00    +0.009 A 
ATOM     24  C   UNL     1     -11.555   8.298  20.583  0.00  0.00    +0.009 A 
ATOM     25  C   UNL     1     -12.400   8.315  17.925  0.00  0.00    +0.015 A 
ATOM     26  C   UNL     1     -10.765   8.899  19.604  0.00  0.00    +0.015 A 
ATOM     28  C   UNL     1     -11.187   8.909  18.275  0.00  0.00    +0.008 A 
BRANCH  28   1
ATOM      1  S   UNL     1     -10.177   9.678  17.025  0.00  0.00    -0.129 S 
ATOM     29  C   UNL     1     -10.660   8.754  15.540  0.00  0.00    +0.090 C 
ENDBRANCH  28   1
ENDBRANCH  15  20
BRANCH  17  21
ATOM     21  C   UNL     1     -17.540   7.246  18.919  0.00  0.00    +0.107 C 
BRANCH  21  22
ATOM     22  C   UNL     1     -16.501   6.166  19.145  0.00  0.00    +0.129 C 
BRANCH  22  27
ATOM      5  O   UNL     1     -17.219   4.305  20.510  0.00  0.00    -0.251 OA
ATOM     27  C   UNL     1     -17.153   4.831  19.407  0.00  0.00    +0.305 C 
BRANCH  27   4
ATOM      4  O   UNL     1     -17.642   4.259  18.278  0.00  0.00    -0.481 OA
ATOM     30  H   UNL     1     -17.300   4.695  17.469  0.00  0.00    +0.295 HD
ENDBRANCH  27   4
ENDBRANCH  22  27
ENDBRANCH  21  22
ENDBRANCH  17  21
TORSDOF 6
ENDMDL
MODEL 8
REMARK VINA RESULT:      -5.5     24.513     26.869
REMARK  Name = 7144226
REMARK  7 active torsions:
REMARK  status: ('A' for Active; 'I' for Inactive)
REMARK    1  A    between atoms: S_1  and  C_28
REMARK    2  A    between atoms: S_1  and  C_29
REMARK    3  A    between atoms: O_4  and  C_27
REMARK    4  A    between atoms: C_15  and  C_20
REMARK    5  A    between atoms: C_17  and  C_21
REMARK    6  A    between atoms: C_21  and  C_22
REMARK    7  A    between atoms: C_22  and  C_27
REMARK                            x       y       z     vdW  Elec       q    Type
REMARK                         _______ _______ _______ _____ _____    ______ ____
ROOT
ATOM      2  O   UNL     1      -6.633 -15.104  17.067  0.00  0.00    -0.268 OA
ATOM      3  O   UNL     1      -8.352 -10.276  18.286  0.00  0.00    -0.276 OA
ATOM      6  N   UNL     1      -6.298 -10.128  17.210  0.00  0.00    -0.301 N 
ATOM      7  N   UNL     1      -5.565 -13.122  16.420  0.00  0.00    -0.311 N 
ATOM      8  C   UNL     1      -4.483 -11.558  18.139  0.00  0.00    +0.027 C 
ATOM      9  C   UNL     1      -4.460 -10.964  15.754  0.00  0.00    +0.054 C 
ATOM     10  C   UNL     1      -3.577 -11.153  16.987  0.00  0.00    +0.018 C 
ATOM     11  C   UNL     1      -5.538 -10.474  18.412  0.00  0.00    +0.113 C 
ATOM     12  C   UNL     1      -5.122 -12.907  17.804  0.00  0.00    +0.130 C 
ATOM     13  C   UNL     1      -5.483  -9.840  16.024  0.00  0.00    +0.117 C 
ATOM     14  C   UNL     1      -5.184 -12.257  15.374  0.00  0.00    +0.034 A 
ATOM     15  C   UNL     1      -5.487 -12.577  14.089  0.00  0.00    +0.002 A 
ATOM     16  C   UNL     1      -6.287 -14.307  16.194  0.00  0.00    +0.252 A 
ATOM     17  C   UNL     1      -7.688 -10.028  17.277  0.00  0.00    +0.216 C 
ATOM     18  C   UNL     1      -6.235 -13.790  13.818  0.00  0.00    +0.015 A 
ATOM     19  C   UNL     1      -6.636 -14.612  14.787  0.00  0.00    +0.071 A 
ENDROOT
BRANCH  15  20
ATOM     20  C   UNL     1      -5.093 -11.711  12.956  0.00  0.00    -0.016 A 
ATOM     23  C   UNL     1      -5.969 -10.732  12.498  0.00  0.00    +0.009 A 
ATOM     24  C   UNL     1      -3.848 -11.881  12.357  0.00  0.00    +0.009 A 
ATOM     25  C   UNL     1      -5.597  -9.916  11.429  0.00  0.00    +0.015 A 
ATOM     26  C   UNL     1      -3.477 -11.065  11.288  0.00  0.00    +0.015 A 
ATOM     28  C   UNL     1      -4.351 -10.082  10.825  0.00  0.00    +0.008 A 
BRANCH  28   1
ATOM      1  S   UNL     1      -3.876  -9.040   9.460  0.00  0.00    -0.129 S 
ATOM     29  C   UNL     1      -4.929  -9.675   8.126  0.00  0.00    +0.090 C 
ENDBRANCH  28   1
ENDBRANCH  15  20
BRANCH  17  21
ATOM     21  C   UNL     1      -8.395  -9.597  16.016  0.00  0.00    +0.107 C 
BRANCH  21  22
ATOM     22  C   UNL     1      -9.834  -9.240  16.330  0.00  0.00    +0.129 C 
BRANCH  22  27
ATOM      5  O   UNL     1     -10.268  -6.926  15.784  0.00  0.00    -0.251 OA
ATOM     27  C   UNL     1      -9.977  -7.767  16.624  0.00  0.00    +0.305 C 
BRANCH  27   4
ATOM      4  O   UNL     1      -9.726  -7.468  17.924  0.00  0.00    -0.481 OA
ATOM     30  H   UNL     1      -9.788  -8.258  18.500  0.00  0.00    +0.295 HD
ENDBRANCH  27   4
ENDBRANCH  22  27
ENDBRANCH  21  22
ENDBRANCH  17  21
TORSDOF 6
ENDMDL
MODEL 9
REMARK VINA RESULT:      -5.3     22.448     25.512
REMARK  Name = 7144226
REMARK  7 active torsions:
REMARK  status: ('A' for Active; 'I' for Inactive)
REMARK    1  A    between atoms: S_1  and  C_28
REMARK    2  A    between atoms: S_1  and  C_29
REMARK    3  A    between atoms: O_4  and  C_27
REMARK    4  A    between atoms: C_15  and  C_20
REMARK    5  A    between atoms: C_17  and  C_21
REMARK    6  A    between atoms: C_21  and  C_22
REMARK    7  A    between atoms: C_22  and  C_27
REMARK                            x       y       z     vdW  Elec       q    Type
REMARK                         _______ _______ _______ _____ _____    ______ ____
ROOT
ATOM      2  O   UNL     1      19.976  -5.067  21.779  0.00  0.00    -0.268 OA
ATOM      3  O   UNL     1      20.436  -0.814  24.853  0.00  0.00    -0.276 OA
ATOM      6  N   UNL     1      18.287  -1.679  25.028  0.00  0.00    -0.301 N 
ATOM      7  N   UNL     1      18.313  -4.316  23.247  0.00  0.00    -0.311 N 
ATOM      8  C   UNL     1      17.103  -2.086  22.875  0.00  0.00    +0.027 C 
ATOM      9  C   UNL     1      16.562  -3.463  24.837  0.00  0.00    +0.054 C 
ATOM     10  C   UNL     1      15.960  -2.745  23.630  0.00  0.00    +0.018 C 
ATOM     11  C   UNL     1      17.841  -1.078  23.771  0.00  0.00    +0.113 C 
ATOM     12  C   UNL     1      18.037  -3.181  22.356  0.00  0.00    +0.130 C 
ATOM     13  C   UNL     1      17.257  -2.434  25.753  0.00  0.00    +0.117 C 
ATOM     14  C   UNL     1      17.554  -4.548  24.412  0.00  0.00    +0.034 A 
ATOM     15  C   UNL     1      17.741  -5.691  25.123  0.00  0.00    +0.002 A 
ATOM     16  C   UNL     1      19.296  -5.214  22.795  0.00  0.00    +0.252 A 
ATOM     17  C   UNL     1      19.587  -1.452  25.480  0.00  0.00    +0.216 C 
ATOM     18  C   UNL     1      18.750  -6.638  24.689  0.00  0.00    +0.015 A 
ATOM     19  C   UNL     1      19.503  -6.433  23.610  0.00  0.00    +0.071 A 
ENDROOT
BRANCH  15  20
ATOM     20  C   UNL     1      16.956  -5.987  26.341  0.00  0.00    -0.016 A 
ATOM     23  C   UNL     1      17.399  -5.525  27.577  0.00  0.00    +0.009 A 
ATOM     24  C   UNL     1      15.781  -6.727  26.244  0.00  0.00    +0.009 A 
ATOM     25  C   UNL     1      16.659  -5.806  28.726  0.00  0.00    +0.015 A 
ATOM     26  C   UNL     1      15.043  -7.008  27.393  0.00  0.00    +0.015 A 
ATOM     28  C   UNL     1      15.481  -6.547  28.634  0.00  0.00    +0.008 A 
BRANCH  28   1
ATOM      1  S   UNL     1      14.536  -6.905  30.101  0.00  0.00    -0.129 S 
ATOM     29  C   UNL     1      14.586  -5.313  30.971  0.00  0.00    +0.090 C 
ENDBRANCH  28   1
ENDBRANCH  15  20
BRANCH  17  21
ATOM     21  C   UNL     1      19.950  -2.045  26.819  0.00  0.00    +0.107 C 
BRANCH  21  22
ATOM     22  C   UNL     1      20.403  -3.480  26.639  0.00  0.00    +0.129 C 
BRANCH  22  27
ATOM      5  O   UNL     1      21.942  -4.365  24.998  0.00  0.00    -0.251 OA
ATOM     27  C   UNL     1      21.704  -3.547  25.877  0.00  0.00    +0.305 C 
BRANCH  27   4
ATOM      4  O   UNL     1      22.598  -2.614  26.289  0.00  0.00    -0.481 OA
ATOM     30  H   UNL     1      23.117  -2.919  27.062  0.00  0.00    +0.295 HD
ENDBRANCH  27   4
ENDBRANCH  22  27
ENDBRANCH  21  22
ENDBRANCH  17  21
TORSDOF 6
ENDMDL
MODEL 10
REMARK VINA RESULT:      -5.3     23.816     25.521
REMARK  Name = 7144226
REMARK  7 active torsions:
REMARK  status: ('A' for Active; 'I' for Inactive)
REMARK    1  A    between atoms: S_1  and  C_28
REMARK    2  A    between atoms: S_1  and  C_29
REMARK    3  A    between atoms: O_4  and  C_27
REMARK    4  A    between atoms: C_15  and  C_20
REMARK    5  A    between atoms: C_17  and  C_21
REMARK    6  A    between atoms: C_21  and  C_22
REMARK    7  A    between atoms: C_22  and  C_27
REMARK                            x       y       z     vdW  Elec       q    Type
REMARK                         _______ _______ _______ _____ _____    ______ ____
ROOT
ATOM      2  O   UNL     1      -1.697 -15.164  13.127  0.00  0.00    -0.268 OA
ATOM      3  O   UNL     1      -4.788 -12.817  16.690  0.00  0.00    -0.276 OA
ATOM      6  N   UNL     1      -4.100 -11.264  15.105  0.00  0.00    -0.301 N 
ATOM      7  N   UNL     1      -2.418 -12.940  12.986  0.00  0.00    -0.311 N 
ATOM      8  C   UNL     1      -1.649 -11.170  14.673  0.00  0.00    +0.027 C 
ATOM      9  C   UNL     1      -3.221 -10.559  12.885  0.00  0.00    +0.054 C 
ATOM     10  C   UNL     1      -1.889 -10.190  13.536  0.00  0.00    +0.018 C 
ATOM     11  C   UNL     1      -2.779 -11.091  15.711  0.00  0.00    +0.113 C 
ATOM     12  C   UNL     1      -1.512 -12.574  14.082  0.00  0.00    +0.130 C 
ATOM     13  C   UNL     1      -4.354 -10.428  13.925  0.00  0.00    +0.117 C 
ATOM     14  C   UNL     1      -3.193 -11.977  12.308  0.00  0.00    +0.034 A 
ATOM     15  C   UNL     1      -3.900 -12.333  11.204  0.00  0.00    +0.002 A 
ATOM     16  C   UNL     1      -2.366 -14.286  12.582  0.00  0.00    +0.252 A 
ATOM     17  C   UNL     1      -5.024 -12.124  15.698  0.00  0.00    +0.216 C 
ATOM     18  C   UNL     1      -3.873 -13.713  10.761  0.00  0.00    +0.015 A 
ATOM     19  C   UNL     1      -3.175 -14.653  11.397  0.00  0.00    +0.071 A 
ENDROOT
BRANCH  15  20
ATOM     20  C   UNL     1      -4.712 -11.354  10.450  0.00  0.00    -0.016 A 
ATOM     23  C   UNL     1      -4.113 -10.568   9.470  0.00  0.00    +0.009 A 
ATOM     24  C   UNL     1      -6.071 -11.225  10.724  0.00  0.00    +0.009 A 
ATOM     25  C   UNL     1      -4.879  -9.643   8.759  0.00  0.00    +0.015 A 
ATOM     26  C   UNL     1      -6.836 -10.300  10.014  0.00  0.00    +0.015 A 
ATOM     28  C   UNL     1      -6.241  -9.510   9.031  0.00  0.00    +0.008 A 
BRANCH  28   1
ATOM      1  S   UNL     1      -7.220  -8.330   8.123  0.00  0.00    -0.129 S 
ATOM     29  C   UNL     1      -8.646  -8.110   9.223  0.00  0.00    +0.090 C 
ENDBRANCH  28   1
ENDBRANCH  15  20
BRANCH  17  21
ATOM     21  C   UNL     1      -6.388 -12.195  15.056  0.00  0.00    +0.107 C 
BRANCH  21  22
ATOM     22  C   UNL     1      -7.428 -11.621  15.997  0.00  0.00    +0.129 C 
BRANCH  22  27
ATOM      5  O   UNL     1      -7.026  -9.496  17.076  0.00  0.00    -0.251 OA
ATOM     27  C   UNL     1      -7.327 -10.117  16.066  0.00  0.00    +0.305 C 
BRANCH  27   4
ATOM      4  O   UNL     1      -7.629  -9.520  14.885  0.00  0.00    -0.481 OA
ATOM     30  H   UNL     1      -8.072  -8.655  15.016  0.00  0.00    +0.295 HD
ENDBRANCH  27   4
ENDBRANCH  22  27
ENDBRANCH  21  22
ENDBRANCH  17  21
TORSDOF 6
ENDMDL
