MODEL 1
REMARK VINA RESULT:      -7.2      0.000      0.000
REMARK  Name = 51137862
REMARK  4 active torsions:
REMARK  status: ('A' for Active; 'I' for Inactive)
REMARK    1  A    between atoms: N_3  and  C_12
REMARK    2  A    between atoms: C_7  and  C_11
REMARK    3  A    between atoms: C_12  and  C_13
REMARK    4  A    between atoms: C_16  and  C_24
REMARK                            x       y       z     vdW  Elec       q    Type
REMARK                         _______ _______ _______ _____ _____    ______ ____
ROOT
ATOM      4  N   UNL     1      12.080   8.221   5.841  0.00  0.00    -0.342 N 
ATOM      5  N   UNL     1      12.360   6.317   6.953  0.00  0.00    -0.231 NA
ATOM     11  C   UNL     1      12.909   7.170   6.118  0.00  0.00    +0.113 A 
ATOM     14  C   UNL     1      10.917   8.032   6.544  0.00  0.00    +0.067 A 
ATOM     15  C   UNL     1      11.117   6.837   7.229  0.00  0.00    +0.101 A 
ATOM     16  C   UNL     1      10.097   6.346   8.061  0.00  0.00    +0.064 A 
ATOM     17  C   UNL     1       9.744   8.782   6.637  0.00  0.00    +0.028 A 
ATOM     20  C   UNL     1       8.910   7.081   8.169  0.00  0.00    +0.015 A 
ATOM     21  C   UNL     1       8.739   8.278   7.468  0.00  0.00    +0.003 A 
ATOM     26  H   UNL     1      12.283   8.999   5.228  0.00  0.00    +0.167 HD
ENDROOT
BRANCH  16  24
ATOM      2  O   UNL     1      10.334   5.089  10.039  0.00  0.00    -0.270 OA
ATOM      6  N   UNL     1      10.330   3.921   8.065  0.00  0.00    -0.325 N 
ATOM     24  C   UNL     1      10.266   5.105   8.795  0.00  0.00    +0.244 C 
ATOM     27  H   UNL     1      10.442   3.032   8.544  0.00  0.00    +0.145 HD
ATOM     28  H   UNL     1      10.273   3.875   7.054  0.00  0.00    +0.145 HD
ENDBRANCH  16  24
BRANCH  11   7
ATOM      3  N   UNL     1      16.324   8.209   5.288  0.00  0.00    -0.297 NA
ATOM      7  C   UNL     1      14.285   7.071   5.498  0.00  0.00    +0.070 C 
ATOM      8  C   UNL     1      14.399   7.663   4.083  0.00  0.00    +0.028 C 
ATOM      9  C   UNL     1      15.361   7.799   6.313  0.00  0.00    +0.096 C 
ATOM     10  C   UNL     1      15.506   8.706   4.181  0.00  0.00    +0.085 C 
BRANCH   3  12
ATOM     12  C   UNL     1      17.262   9.210   5.776  0.00  0.00    +0.119 C 
BRANCH  12  13
ATOM      1 CL   UNL     1      21.204   6.932   3.240  0.00  0.00    -0.084 Cl
ATOM     13  C   UNL     1      18.675   8.692   5.791  0.00  0.00    -0.032 A 
ATOM     18  C   UNL     1      19.221   8.119   4.643  0.00  0.00    +0.025 A 
ATOM     19  C   UNL     1      19.440   8.787   6.954  0.00  0.00    +0.005 A 
ATOM     22  C   UNL     1      20.531   7.640   4.657  0.00  0.00    +0.041 A 
ATOM     23  C   UNL     1      20.751   8.308   6.968  0.00  0.00    +0.002 A 
ATOM     25  C   UNL     1      21.297   7.736   5.820  0.00  0.00    +0.020 A 
ENDBRANCH  12  13
ENDBRANCH   3  12
ENDBRANCH  11   7
TORSDOF 4
ENDMDL
MODEL 2
REMARK VINA RESULT:      -7.2     25.645     28.010
REMARK  Name = 51137862
REMARK  4 active torsions:
REMARK  status: ('A' for Active; 'I' for Inactive)
REMARK    1  A    between atoms: N_3  and  C_12
REMARK    2  A    between atoms: C_7  and  C_11
REMARK    3  A    between atoms: C_12  and  C_13
REMARK    4  A    between atoms: C_16  and  C_24
REMARK                            x       y       z     vdW  Elec       q    Type
REMARK                         _______ _______ _______ _____ _____    ______ ____
ROOT
ATOM      4  N   UNL     1      -3.376 -11.384  17.068  0.00  0.00    -0.342 N 
ATOM      5  N   UNL     1      -4.894 -10.212  15.944  0.00  0.00    -0.231 NA
ATOM     11  C   UNL     1      -3.694 -10.745  15.902  0.00  0.00    +0.113 A 
ATOM     14  C   UNL     1      -4.443 -11.254  17.920  0.00  0.00    +0.067 A 
ATOM     15  C   UNL     1      -5.376 -10.519  17.196  0.00  0.00    +0.101 A 
ATOM     16  C   UNL     1      -6.610 -10.203  17.790  0.00  0.00    +0.064 A 
ATOM     17  C   UNL     1      -4.665 -11.704  19.222  0.00  0.00    +0.028 A 
ATOM     20  C   UNL     1      -6.855 -10.644  19.097  0.00  0.00    +0.015 A 
ATOM     21  C   UNL     1      -5.897 -11.382  19.798  0.00  0.00    +0.003 A 
ATOM     26  H   UNL     1      -2.511 -11.868  17.270  0.00  0.00    +0.167 HD
ENDROOT
BRANCH  16  24
ATOM      2  O   UNL     1      -8.435  -8.720  17.664  0.00  0.00    -0.270 OA
ATOM      6  N   UNL     1      -7.617  -9.524  15.678  0.00  0.00    -0.325 N 
ATOM     24  C   UNL     1      -7.613  -9.441  17.068  0.00  0.00    +0.244 C 
ATOM     27  H   UNL     1      -8.299  -9.001  15.138  0.00  0.00    +0.145 HD
ATOM     28  H   UNL     1      -6.968 -10.089  15.142  0.00  0.00    +0.145 HD
ENDBRANCH  16  24
BRANCH  11   7
ATOM      3  N   UNL     1      -2.350 -11.550  12.589  0.00  0.00    -0.297 NA
ATOM      7  C   UNL     1      -2.725 -10.700  14.742  0.00  0.00    +0.070 C 
ATOM      8  C   UNL     1      -1.607 -11.755  14.793  0.00  0.00    +0.028 C 
ATOM      9  C   UNL     1      -3.406 -10.920  13.385  0.00  0.00    +0.096 C 
ATOM     10  C   UNL     1      -1.733 -12.528  13.486  0.00  0.00    +0.085 C 
BRANCH   3  12
ATOM     12  C   UNL     1      -2.862 -12.160  11.371  0.00  0.00    +0.119 C 
BRANCH  12  13
ATOM      1 CL   UNL     1      -6.642 -11.042   7.962  0.00  0.00    -0.084 Cl
ATOM     13  C   UNL     1      -3.535 -11.152  10.478  0.00  0.00    -0.032 A 
ATOM     18  C   UNL     1      -4.647 -11.521   9.722  0.00  0.00    +0.025 A 
ATOM     19  C   UNL     1      -3.046  -9.847  10.408  0.00  0.00    +0.005 A 
ATOM     22  C   UNL     1      -5.271 -10.586   8.895  0.00  0.00    +0.041 A 
ATOM     23  C   UNL     1      -3.670  -8.912   9.582  0.00  0.00    +0.002 A 
ATOM     25  C   UNL     1      -4.782  -9.281   8.826  0.00  0.00    +0.020 A 
ENDBRANCH  12  13
ENDBRANCH   3  12
ENDBRANCH  11   7
TORSDOF 4
ENDMDL
MODEL 3
REMARK VINA RESULT:      -7.0     13.368     14.454
REMARK  Name = 51137862
REMARK  4 active torsions:
REMARK  status: ('A' for Active; 'I' for Inactive)
REMARK    1  A    between atoms: N_3  and  C_12
REMARK    2  A    between atoms: C_7  and  C_11
REMARK    3  A    between atoms: C_12  and  C_13
REMARK    4  A    between atoms: C_16  and  C_24
REMARK                            x       y       z     vdW  Elec       q    Type
REMARK                         _______ _______ _______ _____ _____    ______ ____
ROOT
ATOM      4  N   UNL     1      14.814   7.268  18.558  0.00  0.00    -0.342 N 
ATOM      5  N   UNL     1      13.745   7.016  20.491  0.00  0.00    -0.231 NA
ATOM     11  C   UNL     1      14.869   6.806  19.844  0.00  0.00    +0.113 A 
ATOM     14  C   UNL     1      13.571   7.813  18.363  0.00  0.00    +0.067 A 
ATOM     15  C   UNL     1      12.923   7.644  19.583  0.00  0.00    +0.101 A 
ATOM     16  C   UNL     1      11.603   8.102  19.728  0.00  0.00    +0.064 A 
ATOM     17  C   UNL     1      12.976   8.423  17.258  0.00  0.00    +0.028 A 
ATOM     20  C   UNL     1      10.985   8.717  18.631  0.00  0.00    +0.015 A 
ATOM     21  C   UNL     1      11.662   8.873  17.418  0.00  0.00    +0.003 A 
ATOM     26  H   UNL     1      15.555   7.219  17.871  0.00  0.00    +0.167 HD
ENDROOT
BRANCH  16  24
ATOM      2  O   UNL     1      10.543   8.934  21.660  0.00  0.00    -0.270 OA
ATOM      6  N   UNL     1      10.593   6.655  21.407  0.00  0.00    -0.325 N 
ATOM     24  C   UNL     1      10.892   7.948  20.984  0.00  0.00    +0.244 C 
ATOM     27  H   UNL     1      10.092   6.507  22.277  0.00  0.00    +0.145 HD
ATOM     28  H   UNL     1      10.847   5.818  20.894  0.00  0.00    +0.145 HD
ENDBRANCH  16  24
BRANCH  11   7
ATOM      3  N   UNL     1      18.327   6.567  21.032  0.00  0.00    -0.297 NA
ATOM      7  C   UNL     1      16.114   6.141  20.386  0.00  0.00    +0.070 C 
ATOM      8  C   UNL     1      17.075   5.599  19.314  0.00  0.00    +0.028 C 
ATOM      9  C   UNL     1      16.972   7.084  21.238  0.00  0.00    +0.096 C 
ATOM     10  C   UNL     1      18.408   6.281  19.599  0.00  0.00    +0.085 C 
BRANCH   3  12
ATOM     12  C   UNL     1      19.351   7.504  21.468  0.00  0.00    +0.119 C 
BRANCH  12  13
ATOM      1 CL   UNL     1      22.580   3.767  23.131  0.00  0.00    -0.084 Cl
ATOM     13  C   UNL     1      20.723   6.885  21.449  0.00  0.00    -0.032 A 
ATOM     18  C   UNL     1      20.986   5.746  22.210  0.00  0.00    +0.025 A 
ATOM     19  C   UNL     1      21.733   7.449  20.668  0.00  0.00    +0.005 A 
ATOM     22  C   UNL     1      22.257   5.171  22.191  0.00  0.00    +0.041 A 
ATOM     23  C   UNL     1      23.004   6.875  20.649  0.00  0.00    +0.002 A 
ATOM     25  C   UNL     1      23.266   5.736  21.410  0.00  0.00    +0.020 A 
ENDBRANCH  12  13
ENDBRANCH   3  12
ENDBRANCH  11   7
TORSDOF 4
ENDMDL
MODEL 4
REMARK VINA RESULT:      -7.0     25.437     29.152
REMARK  Name = 51137862
REMARK  4 active torsions:
REMARK  status: ('A' for Active; 'I' for Inactive)
REMARK    1  A    between atoms: N_3  and  C_12
REMARK    2  A    between atoms: C_7  and  C_11
REMARK    3  A    between atoms: C_12  and  C_13
REMARK    4  A    between atoms: C_16  and  C_24
REMARK                            x       y       z     vdW  Elec       q    Type
REMARK                         _______ _______ _______ _____ _____    ______ ____
ROOT
ATOM      4  N   UNL     1      -7.409 -10.655  18.299  0.00  0.00    -0.342 N 
ATOM      5  N   UNL     1      -8.271  -9.091  16.977  0.00  0.00    -0.231 NA
ATOM     11  C   UNL     1      -7.190  -9.774  17.276  0.00  0.00    +0.113 A 
ATOM     14  C   UNL     1      -8.718 -10.529  18.686  0.00  0.00    +0.067 A 
ATOM     15  C   UNL     1      -9.235  -9.547  17.846  0.00  0.00    +0.101 A 
ATOM     16  C   UNL     1     -10.582  -9.171  17.979  0.00  0.00    +0.064 A 
ATOM     17  C   UNL     1      -9.473 -11.172  19.668  0.00  0.00    +0.028 A 
ATOM     20  C   UNL     1     -11.359  -9.802  18.959  0.00  0.00    +0.015 A 
ATOM     21  C   UNL     1     -10.812 -10.785  19.788  0.00  0.00    +0.003 A 
ATOM     26  H   UNL     1      -6.729 -11.286  18.702  0.00  0.00    +0.167 HD
ENDROOT
BRANCH  16  24
ATOM      2  O   UNL     1     -12.224  -8.350  16.503  0.00  0.00    -0.270 OA
ATOM      6  N   UNL     1     -10.498  -6.932  17.023  0.00  0.00    -0.325 N 
ATOM     24  C   UNL     1     -11.161  -8.153  17.121  0.00  0.00    +0.244 C 
ATOM     27  H   UNL     1     -10.875  -6.193  16.437  0.00  0.00    +0.145 HD
ATOM     28  H   UNL     1      -9.635  -6.715  17.508  0.00  0.00    +0.145 HD
ENDBRANCH  16  24
BRANCH  11   7
ATOM      3  N   UNL     1      -4.472 -10.627  14.972  0.00  0.00    -0.297 NA
ATOM      7  C   UNL     1      -5.835  -9.659  16.616  0.00  0.00    +0.070 C 
ATOM      8  C   UNL     1      -4.717 -10.474  17.289  0.00  0.00    +0.028 C 
ATOM      9  C   UNL     1      -5.839 -10.135  15.158  0.00  0.00    +0.096 C 
ATOM     10  C   UNL     1      -4.173 -11.379  16.191  0.00  0.00    +0.085 C 
BRANCH   3  12
ATOM     12  C   UNL     1      -4.332 -11.439  13.772  0.00  0.00    +0.119 C 
BRANCH  12  13
ATOM      1 CL   UNL     1      -4.636  -8.660   9.373  0.00  0.00    -0.084 Cl
ATOM     13  C   UNL     1      -3.631 -10.692  12.669  0.00  0.00    -0.032 A 
ATOM     18  C   UNL     1      -4.372 -10.092  11.651  0.00  0.00    +0.025 A 
ATOM     19  C   UNL     1      -2.239 -10.600  12.664  0.00  0.00    +0.005 A 
ATOM     22  C   UNL     1      -3.721  -9.400  10.629  0.00  0.00    +0.041 A 
ATOM     23  C   UNL     1      -1.588  -9.908  11.643  0.00  0.00    +0.002 A 
ATOM     25  C   UNL     1      -2.329  -9.307  10.626  0.00  0.00    +0.020 A 
ENDBRANCH  12  13
ENDBRANCH   3  12
ENDBRANCH  11   7
TORSDOF 4
ENDMDL
MODEL 5
REMARK VINA RESULT:      -6.9     26.061     29.784
REMARK  Name = 51137862
REMARK  4 active torsions:
REMARK  status: ('A' for Active; 'I' for Inactive)
REMARK    1  A    between atoms: N_3  and  C_12
REMARK    2  A    between atoms: C_7  and  C_11
REMARK    3  A    between atoms: C_12  and  C_13
REMARK    4  A    between atoms: C_16  and  C_24
REMARK                            x       y       z     vdW  Elec       q    Type
REMARK                         _______ _______ _______ _____ _____    ______ ____
ROOT
ATOM      4  N   UNL     1      -8.776 -10.627  19.289  0.00  0.00    -0.342 N 
ATOM      5  N   UNL     1      -8.506  -9.340  17.497  0.00  0.00    -0.231 NA
ATOM     11  C   UNL     1      -7.899 -10.094  18.386  0.00  0.00    +0.113 A 
ATOM     14  C   UNL     1     -10.033 -10.187  18.962  0.00  0.00    +0.067 A 
ATOM     15  C   UNL     1      -9.838  -9.386  17.841  0.00  0.00    +0.101 A 
ATOM     16  C   UNL     1     -10.947  -8.766  17.240  0.00  0.00    +0.064 A 
ATOM     17  C   UNL     1     -11.286 -10.415  19.533  0.00  0.00    +0.028 A 
ATOM     20  C   UNL     1     -12.214  -8.980  17.796  0.00  0.00    +0.015 A 
ATOM     21  C   UNL     1     -12.378  -9.791  18.922  0.00  0.00    +0.003 A 
ATOM     26  H   UNL     1      -8.543 -11.237  20.062  0.00  0.00    +0.167 HD
ENDROOT
BRANCH  16  24
ATOM      2  O   UNL     1     -11.621  -7.934  15.142  0.00  0.00    -0.270 OA
ATOM      6  N   UNL     1      -9.676  -7.087  16.015  0.00  0.00    -0.325 N 
ATOM     24  C   UNL     1     -10.788  -7.925  16.068  0.00  0.00    +0.244 C 
ATOM     27  H   UNL     1      -9.534  -6.480  15.214  0.00  0.00    +0.145 HD
ATOM     28  H   UNL     1      -8.971  -7.035  16.741  0.00  0.00    +0.145 HD
ENDBRANCH  16  24
BRANCH  11   7
ATOM      3  N   UNL     1      -4.693 -11.583  17.420  0.00  0.00    -0.297 NA
ATOM      7  C   UNL     1      -6.417 -10.385  18.464  0.00  0.00    +0.070 C 
ATOM      8  C   UNL     1      -6.043 -11.603  19.326  0.00  0.00    +0.028 C 
ATOM      9  C   UNL     1      -5.791 -10.671  17.093  0.00  0.00    +0.096 C 
ATOM     10  C   UNL     1      -5.257 -12.518  18.395  0.00  0.00    +0.085 C 
BRANCH   3  12
ATOM     12  C   UNL     1      -4.164 -12.260  16.245  0.00  0.00    +0.119 C 
BRANCH  12  13
ATOM      1 CL   UNL     1      -2.406 -10.248  11.770  0.00  0.00    -0.084 Cl
ATOM     13  C   UNL     1      -3.147 -11.417  15.524  0.00  0.00    -0.032 A 
ATOM     18  C   UNL     1      -3.237 -11.243  14.142  0.00  0.00    +0.025 A 
ATOM     19  C   UNL     1      -2.113 -10.808  16.236  0.00  0.00    +0.005 A 
ATOM     22  C   UNL     1      -2.295 -10.461  13.474  0.00  0.00    +0.041 A 
ATOM     23  C   UNL     1      -1.171 -10.027  15.568  0.00  0.00    +0.002 A 
ATOM     25  C   UNL     1      -1.261  -9.852  14.187  0.00  0.00    +0.020 A 
ENDBRANCH  12  13
ENDBRANCH   3  12
ENDBRANCH  11   7
TORSDOF 4
ENDMDL
MODEL 6
REMARK VINA RESULT:      -6.7      6.116      7.768
REMARK  Name = 51137862
REMARK  4 active torsions:
REMARK  status: ('A' for Active; 'I' for Inactive)
REMARK    1  A    between atoms: N_3  and  C_12
REMARK    2  A    between atoms: C_7  and  C_11
REMARK    3  A    between atoms: C_12  and  C_13
REMARK    4  A    between atoms: C_16  and  C_24
REMARK                            x       y       z     vdW  Elec       q    Type
REMARK                         _______ _______ _______ _____ _____    ______ ____
ROOT
ATOM      4  N   UNL     1      10.309   7.146   4.197  0.00  0.00    -0.342 N 
ATOM      5  N   UNL     1      10.905   5.420   5.464  0.00  0.00    -0.231 NA
ATOM     11  C   UNL     1      10.973   5.952   4.265  0.00  0.00    +0.113 A 
ATOM     14  C   UNL     1       9.777   7.399   5.435  0.00  0.00    +0.067 A 
ATOM     15  C   UNL     1      10.163   6.308   6.208  0.00  0.00    +0.101 A 
ATOM     16  C   UNL     1       9.775   6.253   7.557  0.00  0.00    +0.064 A 
ATOM     17  C   UNL     1       9.016   8.459   5.931  0.00  0.00    +0.028 A 
ATOM     20  C   UNL     1       9.010   7.304   8.077  0.00  0.00    +0.015 A 
ATOM     21  C   UNL     1       8.638   8.387   7.276  0.00  0.00    +0.003 A 
ATOM     26  H   UNL     1      10.223   7.738   3.382  0.00  0.00    +0.167 HD
ENDROOT
BRANCH  16  24
ATOM      2  O   UNL     1      10.452   5.292   9.599  0.00  0.00    -0.270 OA
ATOM      6  N   UNL     1      10.172   3.864   7.826  0.00  0.00    -0.325 N 
ATOM     24  C   UNL     1      10.159   5.134   8.399  0.00  0.00    +0.244 C 
ATOM     27  H   UNL     1      10.429   3.056   8.384  0.00  0.00    +0.145 HD
ATOM     28  H   UNL     1       9.936   3.677   6.858  0.00  0.00    +0.145 HD
ENDBRANCH  16  24
BRANCH  11   7
ATOM      3  N   UNL     1      11.492   5.111   0.737  0.00  0.00    -0.297 NA
ATOM      7  C   UNL     1      11.679   5.377   3.058  0.00  0.00    +0.070 C 
ATOM      8  C   UNL     1      11.320   3.916   2.736  0.00  0.00    +0.028 C 
ATOM      9  C   UNL     1      11.378   6.146   1.766  0.00  0.00    +0.096 C 
ATOM     10  C   UNL     1      10.813   3.943   1.299  0.00  0.00    +0.085 C 
BRANCH   3  12
ATOM     12  C   UNL     1      10.918   5.527  -0.535  0.00  0.00    +0.119 C 
BRANCH  12  13
ATOM      1 CL   UNL     1       9.475   2.477  -4.507  0.00  0.00    -0.084 Cl
ATOM     13  C   UNL     1      11.308   4.601  -1.655  0.00  0.00    -0.032 A 
ATOM     18  C   UNL     1      10.325   4.034  -2.467  0.00  0.00    +0.025 A 
ATOM     19  C   UNL     1      12.653   4.309  -1.883  0.00  0.00    +0.005 A 
ATOM     22  C   UNL     1      10.688   3.177  -3.506  0.00  0.00    +0.041 A 
ATOM     23  C   UNL     1      13.016   3.452  -2.922  0.00  0.00    +0.002 A 
ATOM     25  C   UNL     1      12.033   2.886  -3.734  0.00  0.00    +0.020 A 
ENDBRANCH  12  13
ENDBRANCH   3  12
ENDBRANCH  11   7
TORSDOF 4
ENDMDL
MODEL 7
REMARK VINA RESULT:      -6.7     28.749     31.365
REMARK  Name = 51137862
REMARK  4 active torsions:
REMARK  status: ('A' for Active; 'I' for Inactive)
REMARK    1  A    between atoms: N_3  and  C_12
REMARK    2  A    between atoms: C_7  and  C_11
REMARK    3  A    between atoms: C_12  and  C_13
REMARK    4  A    between atoms: C_16  and  C_24
REMARK                            x       y       z     vdW  Elec       q    Type
REMARK                         _______ _______ _______ _____ _____    ______ ____
ROOT
ATOM      4  N   UNL     1      -7.580  -9.309  15.767  0.00  0.00    -0.342 N 
ATOM      5  N   UNL     1      -8.272 -10.122  17.717  0.00  0.00    -0.231 NA
ATOM     11  C   UNL     1      -8.634  -9.502  16.616  0.00  0.00    +0.113 A 
ATOM     14  C   UNL     1      -6.464  -9.840  16.360  0.00  0.00    +0.067 A 
ATOM     15  C   UNL     1      -6.922 -10.341  17.575  0.00  0.00    +0.101 A 
ATOM     16  C   UNL     1      -6.012 -10.965  18.446  0.00  0.00    +0.064 A 
ATOM     17  C   UNL     1      -5.132  -9.923  15.950  0.00  0.00    +0.028 A 
ATOM     20  C   UNL     1      -4.670 -11.059  18.055  0.00  0.00    +0.015 A 
ATOM     21  C   UNL     1      -4.240 -10.547  16.828  0.00  0.00    +0.003 A 
ATOM     26  H   UNL     1      -7.614  -8.857  14.863  0.00  0.00    +0.167 HD
ENDROOT
BRANCH  16  24
ATOM      2  O   UNL     1      -5.956 -11.112  20.796  0.00  0.00    -0.270 OA
ATOM      6  N   UNL     1      -7.457 -12.464  19.710  0.00  0.00    -0.325 N 
ATOM     24  C   UNL     1      -6.449 -11.503  19.721  0.00  0.00    +0.244 C 
ATOM     27  H   UNL     1      -7.794 -12.859  20.582  0.00  0.00    +0.145 HD
ATOM     28  H   UNL     1      -7.898 -12.813  18.866  0.00  0.00    +0.145 HD
ENDBRANCH  16  24
BRANCH  11   7
ATOM      3  N   UNL     1     -11.247  -7.132  15.624  0.00  0.00    -0.297 NA
ATOM      7  C   UNL     1     -10.026  -9.030  16.261  0.00  0.00    +0.070 C 
ATOM      8  C   UNL     1     -10.864  -8.534  17.452  0.00  0.00    +0.028 C 
ATOM      9  C   UNL     1     -10.025  -7.857  15.272  0.00  0.00    +0.096 C 
ATOM     10  C   UNL     1     -11.264  -7.110  17.087  0.00  0.00    +0.085 C 
BRANCH   3  12
ATOM     12  C   UNL     1     -11.285  -5.795  15.050  0.00  0.00    +0.119 C 
BRANCH  12  13
ATOM      1 CL   UNL     1     -13.877  -3.176  11.364  0.00  0.00    -0.084 Cl
ATOM     13  C   UNL     1     -12.577  -5.535  14.322  0.00  0.00    -0.032 A 
ATOM     18  C   UNL     1     -12.623  -4.587  13.299  0.00  0.00    +0.025 A 
ATOM     19  C   UNL     1     -13.728  -6.242  14.669  0.00  0.00    +0.005 A 
ATOM     22  C   UNL     1     -13.820  -4.347  12.624  0.00  0.00    +0.041 A 
ATOM     23  C   UNL     1     -14.925  -6.001  13.994  0.00  0.00    +0.002 A 
ATOM     25  C   UNL     1     -14.971  -5.055  12.971  0.00  0.00    +0.020 A 
ENDBRANCH  12  13
ENDBRANCH   3  12
ENDBRANCH  11   7
TORSDOF 4
ENDMDL
MODEL 8
REMARK VINA RESULT:      -6.7     29.340     31.102
REMARK  Name = 51137862
REMARK  4 active torsions:
REMARK  status: ('A' for Active; 'I' for Inactive)
REMARK    1  A    between atoms: N_3  and  C_12
REMARK    2  A    between atoms: C_7  and  C_11
REMARK    3  A    between atoms: C_12  and  C_13
REMARK    4  A    between atoms: C_16  and  C_24
REMARK                            x       y       z     vdW  Elec       q    Type
REMARK                         _______ _______ _______ _____ _____    ______ ____
ROOT
ATOM      4  N   UNL     1     -11.446  -5.360  14.545  0.00  0.00    -0.342 N 
ATOM      5  N   UNL     1     -13.248  -6.539  15.094  0.00  0.00    -0.231 NA
ATOM     11  C   UNL     1     -11.968  -6.356  15.324  0.00  0.00    +0.113 A 
ATOM     14  C   UNL     1     -12.457  -4.870  13.760  0.00  0.00    +0.067 A 
ATOM     15  C   UNL     1     -13.571  -5.622  14.121  0.00  0.00    +0.101 A 
ATOM     16  C   UNL     1     -14.802  -5.368  13.493  0.00  0.00    +0.064 A 
ATOM     17  C   UNL     1     -12.493  -3.862  12.795  0.00  0.00    +0.028 A 
ATOM     20  C   UNL     1     -14.862  -4.362  12.520  0.00  0.00    +0.015 A 
ATOM     21  C   UNL     1     -13.726  -3.623  12.179  0.00  0.00    +0.003 A 
ATOM     26  H   UNL     1     -10.486  -5.040  14.545  0.00  0.00    +0.167 HD
ENDROOT
BRANCH  16  24
ATOM      2  O   UNL     1     -16.697  -6.667  12.971  0.00  0.00    -0.270 OA
ATOM      6  N   UNL     1     -16.306  -6.253  15.193  0.00  0.00    -0.325 N 
ATOM     24  C   UNL     1     -15.989  -6.128  13.842  0.00  0.00    +0.244 C 
ATOM     27  H   UNL     1     -17.125  -6.782  15.477  0.00  0.00    +0.145 HD
ATOM     28  H   UNL     1     -15.763  -5.842  15.943  0.00  0.00    +0.145 HD
ENDBRANCH  16  24
BRANCH  11   7
ATOM      3  N   UNL     1      -9.525  -8.833  16.475  0.00  0.00    -0.297 NA
ATOM      7  C   UNL     1     -11.108  -7.111  16.312  0.00  0.00    +0.070 C 
ATOM      8  C   UNL     1     -11.769  -8.362  16.918  0.00  0.00    +0.028 C 
ATOM      9  C   UNL     1      -9.799  -7.622  15.698  0.00  0.00    +0.096 C 
ATOM     10  C   UNL     1     -10.818  -9.507  16.591  0.00  0.00    +0.085 C 
BRANCH   3  12
ATOM     12  C   UNL     1      -8.515  -9.676  15.852  0.00  0.00    +0.119 C 
BRANCH  12  13
ATOM      1 CL   UNL     1      -3.440 -10.596  16.602  0.00  0.00    -0.084 Cl
ATOM     13  C   UNL     1      -7.390  -9.996  16.800  0.00  0.00    -0.032 A 
ATOM     18  C   UNL     1      -6.088 -10.132  16.318  0.00  0.00    +0.025 A 
ATOM     19  C   UNL     1      -7.649 -10.156  18.161  0.00  0.00    +0.005 A 
ATOM     22  C   UNL     1      -5.046 -10.428  17.197  0.00  0.00    +0.041 A 
ATOM     23  C   UNL     1      -6.607 -10.452  19.040  0.00  0.00    +0.002 A 
ATOM     25  C   UNL     1      -5.306 -10.587  18.559  0.00  0.00    +0.020 A 
ENDBRANCH  12  13
ENDBRANCH   3  12
ENDBRANCH  11   7
TORSDOF 4
ENDMDL
MODEL 9
REMARK VINA RESULT:      -6.6     25.348     27.790
REMARK  Name = 51137862
REMARK  4 active torsions:
REMARK  status: ('A' for Active; 'I' for Inactive)
REMARK    1  A    between atoms: N_3  and  C_12
REMARK    2  A    between atoms: C_7  and  C_11
REMARK    3  A    between atoms: C_12  and  C_13
REMARK    4  A    between atoms: C_16  and  C_24
REMARK                            x       y       z     vdW  Elec       q    Type
REMARK                         _______ _______ _______ _____ _____    ______ ____
ROOT
ATOM      4  N   UNL     1      -4.956 -10.364  14.843  0.00  0.00    -0.342 N 
ATOM      5  N   UNL     1      -3.722 -11.834  15.964  0.00  0.00    -0.231 NA
ATOM     11  C   UNL     1      -3.927 -11.264  14.799  0.00  0.00    +0.113 A 
ATOM     14  C   UNL     1      -5.448 -10.355  16.123  0.00  0.00    +0.067 A 
ATOM     15  C   UNL     1      -4.661 -11.280  16.803  0.00  0.00    +0.101 A 
ATOM     16  C   UNL     1      -4.906 -11.518  18.166  0.00  0.00    +0.064 A 
ATOM     17  C   UNL     1      -6.481  -9.637  16.727  0.00  0.00    +0.028 A 
ATOM     20  C   UNL     1      -5.939 -10.809  18.793  0.00  0.00    +0.015 A 
ATOM     21  C   UNL     1      -6.711  -9.886  18.084  0.00  0.00    +0.003 A 
ATOM     26  H   UNL     1      -5.296  -9.804  14.073  0.00  0.00    +0.167 HD
ENDROOT
BRANCH  16  24
ATOM      2  O   UNL     1      -3.426 -12.124  19.896  0.00  0.00    -0.270 OA
ATOM      6  N   UNL     1      -4.138 -13.804  18.507  0.00  0.00    -0.325 N 
ATOM     24  C   UNL     1      -4.107 -12.472  18.913  0.00  0.00    +0.244 C 
ATOM     27  H   UNL     1      -3.597 -14.502  19.007  0.00  0.00    +0.145 HD
ATOM     28  H   UNL     1      -4.678 -14.144  17.719  0.00  0.00    +0.145 HD
ENDBRANCH  16  24
BRANCH  11   7
ATOM      3  N   UNL     1      -2.739 -10.632  11.390  0.00  0.00    -0.297 NA
ATOM      7  C   UNL     1      -3.161 -11.517  13.520  0.00  0.00    +0.070 C 
ATOM      8  C   UNL     1      -3.921 -12.337  12.463  0.00  0.00    +0.028 C 
ATOM      9  C   UNL     1      -2.761 -10.225  12.797  0.00  0.00    +0.096 C 
ATOM     10  C   UNL     1      -3.935 -11.459  11.218  0.00  0.00    +0.085 C 
BRANCH   3  12
ATOM     12  C   UNL     1      -2.717  -9.495  10.482  0.00  0.00    +0.119 C 
BRANCH  12  13
ATOM      1 CL   UNL     1      -5.800 -10.410   6.381  0.00  0.00    -0.084 Cl
ATOM     13  C   UNL     1      -4.044  -9.298   9.799  0.00  0.00    -0.032 A 
ATOM     18  C   UNL     1      -4.280  -9.877   8.552  0.00  0.00    +0.025 A 
ATOM     19  C   UNL     1      -5.038  -8.535  10.412  0.00  0.00    +0.005 A 
ATOM     22  C   UNL     1      -5.510  -9.695   7.919  0.00  0.00    +0.041 A 
ATOM     23  C   UNL     1      -6.268  -8.353   9.779  0.00  0.00    +0.002 A 
ATOM     25  C   UNL     1      -6.505  -8.933   8.533  0.00  0.00    +0.020 A 
ENDBRANCH  12  13
ENDBRANCH   3  12
ENDBRANCH  11   7
TORSDOF 4
ENDMDL
MODEL 10
REMARK VINA RESULT:      -6.6     25.897     27.537
REMARK  Name = 51137862
REMARK  4 active torsions:
REMARK  status: ('A' for Active; 'I' for Inactive)
REMARK    1  A    between atoms: N_3  and  C_12
REMARK    2  A    between atoms: C_7  and  C_11
REMARK    3  A    between atoms: C_12  and  C_13
REMARK    4  A    between atoms: C_16  and  C_24
REMARK                            x       y       z     vdW  Elec       q    Type
REMARK                         _______ _______ _______ _____ _____    ______ ____
ROOT
ATOM      4  N   UNL     1      -6.170  -9.616  13.763  0.00  0.00    -0.342 N 
ATOM      5  N   UNL     1      -4.208 -10.499  13.207  0.00  0.00    -0.231 NA
ATOM     11  C   UNL     1      -5.313  -9.952  12.753  0.00  0.00    +0.113 A 
ATOM     14  C   UNL     1      -5.579  -9.971  14.948  0.00  0.00    +0.067 A 
ATOM     15  C   UNL     1      -4.357 -10.520  14.575  0.00  0.00    +0.101 A 
ATOM     16  C   UNL     1      -3.485 -10.993  15.570  0.00  0.00    +0.064 A 
ATOM     17  C   UNL     1      -5.996  -9.860  16.276  0.00  0.00    +0.028 A 
ATOM     20  C   UNL     1      -3.883 -10.893  16.909  0.00  0.00    +0.015 A 
ATOM     21  C   UNL     1      -5.117 -10.336  17.254  0.00  0.00    +0.003 A 
ATOM     26  H   UNL     1      -7.079  -9.183  13.659  0.00  0.00    +0.167 HD
ENDROOT
BRANCH  16  24
ATOM      2  O   UNL     1      -1.130 -11.038  15.576  0.00  0.00    -0.270 OA
ATOM      6  N   UNL     1      -2.194 -12.757  14.494  0.00  0.00    -0.325 N 
ATOM     24  C   UNL     1      -2.199 -11.570  15.223  0.00  0.00    +0.244 C 
ATOM     27  H   UNL     1      -1.315 -13.194  14.238  0.00  0.00    +0.145 HD
ATOM     28  H   UNL     1      -3.033 -13.236  14.187  0.00  0.00    +0.145 HD
ENDBRANCH  16  24
BRANCH  11   7
ATOM      3  N   UNL     1      -5.087 -10.279   9.110  0.00  0.00    -0.297 NA
ATOM      7  C   UNL     1      -5.665  -9.692  11.305  0.00  0.00    +0.070 C 
ATOM      8  C   UNL     1      -4.891  -8.535  10.651  0.00  0.00    +0.028 C 
ATOM      9  C   UNL     1      -5.397 -10.900  10.399  0.00  0.00    +0.096 C 
ATOM     10  C   UNL     1      -4.211  -9.153   9.435  0.00  0.00    +0.085 C 
BRANCH   3  12
ATOM     12  C   UNL     1      -4.469 -11.211   8.178  0.00  0.00    +0.119 C 
BRANCH  12  13
ATOM      1 CL   UNL     1      -4.461 -12.649   3.169  0.00  0.00    -0.084 Cl
ATOM     13  C   UNL     1      -5.128 -11.171   6.825  0.00  0.00    -0.032 A 
ATOM     18  C   UNL     1      -4.556 -11.849   5.749  0.00  0.00    +0.025 A 
ATOM     19  C   UNL     1      -6.312 -10.455   6.647  0.00  0.00    +0.005 A 
ATOM     22  C   UNL     1      -5.168 -11.813   4.496  0.00  0.00    +0.041 A 
ATOM     23  C   UNL     1      -6.924 -10.418   5.394  0.00  0.00    +0.002 A 
ATOM     25  C   UNL     1      -6.353 -11.098   4.319  0.00  0.00    +0.020 A 
ENDBRANCH  12  13
ENDBRANCH   3  12
ENDBRANCH  11   7
TORSDOF 4
ENDMDL
