MODEL 1
REMARK VINA RESULT:      -7.1      0.000      0.000
REMARK  Name = 26744016
REMARK  8 active torsions:
REMARK  status: ('A' for Active; 'I' for Inactive)
REMARK    1  A    between atoms: S_1  and  C_20
REMARK    2  A    between atoms: S_1  and  C_23
REMARK    3  A    between atoms: O_3  and  C_12
REMARK    4  A    between atoms: N_7  and  C_14
REMARK    5  A    between atoms: C_10  and  C_15
REMARK    6  A    between atoms: C_14  and  C_16
REMARK    7  A    between atoms: C_17  and  C_20
REMARK    8  A    between atoms: C_29  and  C_30
REMARK                            x       y       z     vdW  Elec       q    Type
REMARK                         _______ _______ _______ _____ _____    ______ ____
ROOT
ATOM      4  O   UNL     1      -5.253 -11.637  17.268  0.00  0.00    -0.336 OA
ATOM      8  N   UNL     1      -5.576  -9.834  15.980  0.00  0.00    -0.193 NA
ATOM      9  N   UNL     1      -6.465 -11.073  17.685  0.00  0.00    -0.060 NA
ATOM     15  C   UNL     1      -4.797 -10.847  16.262  0.00  0.00    +0.245 A 
ATOM     17  C   UNL     1      -6.586 -10.014  16.879  0.00  0.00    +0.193 A 
ENDROOT
BRANCH  15  10
ATOM      7  N   UNL     1      -3.232 -10.562  14.347  0.00  0.00    -0.285 NA
ATOM     10  C   UNL     1      -3.482 -11.251  15.630  0.00  0.00    +0.149 C 
ATOM     11  C   UNL     1      -2.266 -10.901  16.508  0.00  0.00    +0.061 C 
ATOM     12  C   UNL     1      -1.368 -10.051  15.618  0.00  0.00    +0.130 C 
ATOM     13  C   UNL     1      -1.780 -10.449  14.213  0.00  0.00    +0.116 C 
BRANCH  12   3
ATOM      3  O   UNL     1      -0.004 -10.333  15.865  0.00  0.00    -0.390 OA
ATOM     31  H   UNL     1       0.114 -11.295  15.786  0.00  0.00    +0.210 HD
ENDBRANCH  12   3
BRANCH   7  14
ATOM     14  C   UNL     1      -3.836 -11.235  13.205  0.00  0.00    +0.120 C 
BRANCH  14  16
ATOM      2  F   UNL     1      -5.667  -7.572   9.336  0.00  0.00    -0.205 F 
ATOM     16  C   UNL     1      -4.325 -10.257  12.171  0.00  0.00    -0.033 A 
ATOM     18  C   UNL     1      -3.520  -9.935  11.079  0.00  0.00    +0.008 A 
ATOM     19  C   UNL     1      -5.584  -9.672  12.306  0.00  0.00    +0.008 A 
ATOM     21  C   UNL     1      -3.973  -9.028  10.121  0.00  0.00    +0.038 A 
ATOM     22  C   UNL     1      -6.037  -8.765  11.348  0.00  0.00    +0.038 A 
ATOM     24  C   UNL     1      -5.231  -8.443  10.256  0.00  0.00    +0.123 A 
ENDBRANCH  14  16
ENDBRANCH   7  14
ENDBRANCH  15  10
BRANCH  17  20
ATOM     20  C   UNL     1      -7.737  -9.106  16.957  0.00  0.00    +0.251 C 
BRANCH  20   1
ATOM      1  S   UNL     1      -9.142  -9.907  16.234  0.00  0.00    +0.004 S 
ATOM      5  O   UNL     1      -9.865 -10.570  17.303  0.00  0.00    -0.169 OA
ATOM      6  O   UNL     1      -8.700 -10.654  15.072  0.00  0.00    -0.169 OA
BRANCH   1  23
ATOM     23  C   UNL     1     -10.135  -8.569  15.646  0.00  0.00    +0.089 A 
ATOM     25  C   UNL     1     -10.073  -7.326  16.276  0.00  0.00    +0.027 A 
ATOM     26  C   UNL     1     -10.984  -8.758  14.556  0.00  0.00    +0.027 A 
ATOM     27  C   UNL     1     -10.859  -6.270  15.814  0.00  0.00    +0.005 A 
ATOM     28  C   UNL     1     -11.771  -7.702  14.094  0.00  0.00    +0.005 A 
ATOM     29  C   UNL     1     -11.708  -6.459  14.723  0.00  0.00    -0.050 A 
ATOM     30  C   UNL     1     -12.548  -5.330  14.229  0.00  0.00    +0.044 C 
ENDBRANCH   1  23
ENDBRANCH  20   1
ENDBRANCH  17  20
TORSDOF 7
ENDMDL
MODEL 2
REMARK VINA RESULT:      -7.1     26.336     29.293
REMARK  Name = 26744016
REMARK  8 active torsions:
REMARK  status: ('A' for Active; 'I' for Inactive)
REMARK    1  A    between atoms: S_1  and  C_20
REMARK    2  A    between atoms: S_1  and  C_23
REMARK    3  A    between atoms: O_3  and  C_12
REMARK    4  A    between atoms: N_7  and  C_14
REMARK    5  A    between atoms: C_10  and  C_15
REMARK    6  A    between atoms: C_14  and  C_16
REMARK    7  A    between atoms: C_17  and  C_20
REMARK    8  A    between atoms: C_29  and  C_30
REMARK                            x       y       z     vdW  Elec       q    Type
REMARK                         _______ _______ _______ _____ _____    ______ ____
ROOT
ATOM      4  O   UNL     1      10.980   9.572  23.157  0.00  0.00    -0.336 OA
ATOM      8  N   UNL     1      11.566  11.078  21.607  0.00  0.00    -0.193 NA
ATOM      9  N   UNL     1      10.890  10.824  23.778  0.00  0.00    -0.060 NA
ATOM     15  C   UNL     1      11.385   9.812  21.883  0.00  0.00    +0.245 A 
ATOM     17  C   UNL     1      11.251  11.660  22.800  0.00  0.00    +0.193 A 
ENDROOT
BRANCH  15  10
ATOM      7  N   UNL     1      12.896   7.988  21.116  0.00  0.00    -0.285 NA
ATOM     10  C   UNL     1      11.558   8.601  20.990  0.00  0.00    +0.149 C 
ATOM     11  C   UNL     1      10.571   7.467  21.326  0.00  0.00    +0.061 C 
ATOM     12  C   UNL     1      11.446   6.247  21.583  0.00  0.00    +0.130 C 
ATOM     13  C   UNL     1      12.727   6.564  20.833  0.00  0.00    +0.116 C 
BRANCH  12   3
ATOM      3  O   UNL     1      10.827   5.073  21.092  0.00  0.00    -0.390 OA
ATOM     31  H   UNL     1      11.063   4.989  20.153  0.00  0.00    +0.210 HD
ENDBRANCH  12   3
BRANCH   7  14
ATOM     14  C   UNL     1      13.894   8.603  20.251  0.00  0.00    +0.120 C 
BRANCH  14  16
ATOM      2  F   UNL     1      18.659   5.602  20.083  0.00  0.00    -0.205 F 
ATOM     16  C   UNL     1      15.167   7.801  20.206  0.00  0.00    -0.033 A 
ATOM     18  C   UNL     1      15.455   7.012  19.094  0.00  0.00    +0.008 A 
ATOM     19  C   UNL     1      16.059   7.848  21.278  0.00  0.00    +0.008 A 
ATOM     21  C   UNL     1      16.634   6.268  19.052  0.00  0.00    +0.038 A 
ATOM     22  C   UNL     1      17.238   7.105  21.237  0.00  0.00    +0.038 A 
ATOM     24  C   UNL     1      17.526   6.315  20.123  0.00  0.00    +0.123 A 
ENDBRANCH  14  16
ENDBRANCH   7  14
ENDBRANCH  15  10
BRANCH  17  20
ATOM     20  C   UNL     1      11.302  13.113  22.999  0.00  0.00    +0.251 C 
BRANCH  20   1
ATOM      1  S   UNL     1      12.805  13.517  23.847  0.00  0.00    +0.004 S 
ATOM      5  O   UNL     1      12.814  12.780  25.096  0.00  0.00    -0.169 OA
ATOM      6  O   UNL     1      12.965  14.959  23.841  0.00  0.00    -0.169 OA
BRANCH   1  23
ATOM     23  C   UNL     1      14.069  12.850  22.807  0.00  0.00    +0.089 A 
ATOM     25  C   UNL     1      14.286  13.392  21.540  0.00  0.00    +0.027 A 
ATOM     26  C   UNL     1      14.845  11.780  23.252  0.00  0.00    +0.027 A 
ATOM     27  C   UNL     1      15.282  12.864  20.717  0.00  0.00    +0.005 A 
ATOM     28  C   UNL     1      15.841  11.252  22.429  0.00  0.00    +0.005 A 
ATOM     29  C   UNL     1      16.059  11.794  21.162  0.00  0.00    -0.050 A 
ATOM     30  C   UNL     1      17.123  11.231  20.283  0.00  0.00    +0.044 C 
ENDBRANCH   1  23
ENDBRANCH  20   1
ENDBRANCH  17  20
TORSDOF 7
ENDMDL
MODEL 3
REMARK VINA RESULT:      -6.9      2.411      2.964
REMARK  Name = 26744016
REMARK  8 active torsions:
REMARK  status: ('A' for Active; 'I' for Inactive)
REMARK    1  A    between atoms: S_1  and  C_20
REMARK    2  A    between atoms: S_1  and  C_23
REMARK    3  A    between atoms: O_3  and  C_12
REMARK    4  A    between atoms: N_7  and  C_14
REMARK    5  A    between atoms: C_10  and  C_15
REMARK    6  A    between atoms: C_14  and  C_16
REMARK    7  A    between atoms: C_17  and  C_20
REMARK    8  A    between atoms: C_29  and  C_30
REMARK                            x       y       z     vdW  Elec       q    Type
REMARK                         _______ _______ _______ _____ _____    ______ ____
ROOT
ATOM      4  O   UNL     1      -5.727 -11.737  15.013  0.00  0.00    -0.336 OA
ATOM      8  N   UNL     1      -5.166 -10.296  16.634  0.00  0.00    -0.193 NA
ATOM      9  N   UNL     1      -6.929 -11.336  15.611  0.00  0.00    -0.060 NA
ATOM     15  C   UNL     1      -4.740 -11.078  15.675  0.00  0.00    +0.245 A 
ATOM     17  C   UNL     1      -6.514 -10.488  16.557  0.00  0.00    +0.193 A 
ENDROOT
BRANCH  15  10
ATOM      7  N   UNL     1      -2.958 -10.548  14.020  0.00  0.00    -0.285 NA
ATOM     10  C   UNL     1      -3.323 -11.342  15.210  0.00  0.00    +0.149 C 
ATOM     11  C   UNL     1      -2.269 -10.971  16.271  0.00  0.00    +0.061 C 
ATOM     12  C   UNL     1      -1.330  -9.999  15.569  0.00  0.00    +0.130 C 
ATOM     13  C   UNL     1      -1.515 -10.323  14.099  0.00  0.00    +0.116 C 
BRANCH  12   3
ATOM      3  O   UNL     1       0.006 -10.201  15.988  0.00  0.00    -0.390 OA
ATOM     31  H   UNL     1       0.189 -11.154  15.931  0.00  0.00    +0.210 HD
ENDBRANCH  12   3
BRANCH   7  14
ATOM     14  C   UNL     1      -3.346 -11.178  12.766  0.00  0.00    +0.120 C 
BRANCH  14  16
ATOM      2  F   UNL     1      -5.876  -7.543   9.284  0.00  0.00    -0.205 F 
ATOM     16  C   UNL     1      -4.022 -10.207  11.835  0.00  0.00    -0.033 A 
ATOM     18  C   UNL     1      -3.374  -9.788  10.674  0.00  0.00    +0.008 A 
ATOM     19  C   UNL     1      -5.297  -9.726  12.136  0.00  0.00    +0.008 A 
ATOM     21  C   UNL     1      -4.000  -8.888   9.812  0.00  0.00    +0.038 A 
ATOM     22  C   UNL     1      -5.923  -8.826  11.274  0.00  0.00    +0.038 A 
ATOM     24  C   UNL     1      -5.275  -8.407  10.112  0.00  0.00    +0.123 A 
ENDBRANCH  14  16
ENDBRANCH   7  14
ENDBRANCH  15  10
BRANCH  17  20
ATOM     20  C   UNL     1      -7.454  -9.805  17.454  0.00  0.00    +0.251 C 
BRANCH  20   1
ATOM      1  S   UNL     1      -7.895 -10.913  18.764  0.00  0.00    +0.004 S 
ATOM      5  O   UNL     1      -7.159 -10.506  19.946  0.00  0.00    -0.169 OA
ATOM      6  O   UNL     1      -7.800 -12.273  18.269  0.00  0.00    -0.169 OA
BRANCH   1  23
ATOM     23  C   UNL     1      -9.608 -10.579  19.041  0.00  0.00    +0.089 A 
ATOM     25  C   UNL     1     -10.299 -11.270  20.036  0.00  0.00    +0.027 A 
ATOM     26  C   UNL     1     -10.268  -9.628  18.263  0.00  0.00    +0.027 A 
ATOM     27  C   UNL     1     -11.653 -11.008  20.255  0.00  0.00    +0.005 A 
ATOM     28  C   UNL     1     -11.621  -9.367  18.480  0.00  0.00    +0.005 A 
ATOM     29  C   UNL     1     -12.313 -10.057  19.476  0.00  0.00    -0.050 A 
ATOM     30  C   UNL     1     -13.759  -9.778  19.710  0.00  0.00    +0.044 C 
ENDBRANCH   1  23
ENDBRANCH  20   1
ENDBRANCH  17  20
TORSDOF 7
ENDMDL
MODEL 4
REMARK VINA RESULT:      -6.9     18.432     20.081
REMARK  Name = 26744016
REMARK  8 active torsions:
REMARK  status: ('A' for Active; 'I' for Inactive)
REMARK    1  A    between atoms: S_1  and  C_20
REMARK    2  A    between atoms: S_1  and  C_23
REMARK    3  A    between atoms: O_3  and  C_12
REMARK    4  A    between atoms: N_7  and  C_14
REMARK    5  A    between atoms: C_10  and  C_15
REMARK    6  A    between atoms: C_14  and  C_16
REMARK    7  A    between atoms: C_17  and  C_20
REMARK    8  A    between atoms: C_29  and  C_30
REMARK                            x       y       z     vdW  Elec       q    Type
REMARK                         _______ _______ _______ _____ _____    ______ ____
ROOT
ATOM      4  O   UNL     1     -17.300   2.686  22.155  0.00  0.00    -0.336 OA
ATOM      8  N   UNL     1     -16.717   4.447  23.411  0.00  0.00    -0.193 NA
ATOM      9  N   UNL     1     -16.720   2.161  23.317  0.00  0.00    -0.060 NA
ATOM     15  C   UNL     1     -17.259   4.037  22.292  0.00  0.00    +0.245 A 
ATOM     17  C   UNL     1     -16.402   3.261  24.006  0.00  0.00    +0.193 A 
ENDROOT
BRANCH  15  10
ATOM      7  N   UNL     1     -16.794   5.490  20.324  0.00  0.00    -0.285 NA
ATOM     10  C   UNL     1     -17.836   4.850  21.152  0.00  0.00    +0.149 C 
ATOM     11  C   UNL     1     -18.653   3.994  20.165  0.00  0.00    +0.061 C 
ATOM     12  C   UNL     1     -18.023   4.254  18.803  0.00  0.00    +0.130 C 
ATOM     13  C   UNL     1     -17.347   5.602  18.976  0.00  0.00    +0.116 C 
BRANCH  12   3
ATOM      3  O   UNL     1     -19.011   4.288  17.791  0.00  0.00    -0.390 OA
ATOM     31  H   UNL     1     -19.769   3.767  18.105  0.00  0.00    +0.210 HD
ENDBRANCH  12   3
BRANCH   7  14
ATOM     14  C   UNL     1     -16.357   6.778  20.845  0.00  0.00    +0.120 C 
BRANCH  14  16
ATOM      2  F   UNL     1     -10.751   7.315  20.683  0.00  0.00    -0.205 F 
ATOM     16  C   UNL     1     -14.858   6.921  20.802  0.00  0.00    -0.033 A 
ATOM     18  C   UNL     1     -14.052   6.033  21.513  0.00  0.00    +0.008 A 
ATOM     19  C   UNL     1     -14.278   7.943  20.050  0.00  0.00    +0.008 A 
ATOM     21  C   UNL     1     -12.664   6.166  21.473  0.00  0.00    +0.038 A 
ATOM     22  C   UNL     1     -12.890   8.076  20.011  0.00  0.00    +0.038 A 
ATOM     24  C   UNL     1     -12.083   7.188  20.722  0.00  0.00    +0.123 A 
ENDBRANCH  14  16
ENDBRANCH   7  14
ENDBRANCH  15  10
BRANCH  17  20
ATOM     20  C   UNL     1     -15.756   3.192  25.322  0.00  0.00    +0.251 C 
BRANCH  20   1
ATOM      1  S   UNL     1     -16.963   3.561  26.566  0.00  0.00    +0.004 S 
ATOM      5  O   UNL     1     -18.189   2.877  26.202  0.00  0.00    -0.169 OA
ATOM      6  O   UNL     1     -16.960   4.993  26.800  0.00  0.00    -0.169 OA
BRANCH   1  23
ATOM     23  C   UNL     1     -16.318   2.795  28.021  0.00  0.00    +0.089 A 
ATOM     25  C   UNL     1     -15.608   3.554  28.952  0.00  0.00    +0.027 A 
ATOM     26  C   UNL     1     -16.515   1.431  28.237  0.00  0.00    +0.027 A 
ATOM     27  C   UNL     1     -15.097   2.949  30.101  0.00  0.00    +0.005 A 
ATOM     28  C   UNL     1     -16.003   0.825  29.385  0.00  0.00    +0.005 A 
ATOM     29  C   UNL     1     -15.294   1.585  30.316  0.00  0.00    -0.050 A 
ATOM     30  C   UNL     1     -14.747   0.938  31.544  0.00  0.00    +0.044 C 
ENDBRANCH   1  23
ENDBRANCH  20   1
ENDBRANCH  17  20
TORSDOF 7
ENDMDL
MODEL 5
REMARK VINA RESULT:      -6.8     23.395     26.459
REMARK  Name = 26744016
REMARK  8 active torsions:
REMARK  status: ('A' for Active; 'I' for Inactive)
REMARK    1  A    between atoms: S_1  and  C_20
REMARK    2  A    between atoms: S_1  and  C_23
REMARK    3  A    between atoms: O_3  and  C_12
REMARK    4  A    between atoms: N_7  and  C_14
REMARK    5  A    between atoms: C_10  and  C_15
REMARK    6  A    between atoms: C_14  and  C_16
REMARK    7  A    between atoms: C_17  and  C_20
REMARK    8  A    between atoms: C_29  and  C_30
REMARK                            x       y       z     vdW  Elec       q    Type
REMARK                         _______ _______ _______ _____ _____    ______ ____
ROOT
ATOM      4  O   UNL     1      12.267   6.200   1.166  0.00  0.00    -0.336 OA
ATOM      8  N   UNL     1      11.893   4.577   2.664  0.00  0.00    -0.193 NA
ATOM      9  N   UNL     1      11.223   6.655   1.981  0.00  0.00    -0.060 NA
ATOM     15  C   UNL     1      12.602   4.969   1.636  0.00  0.00    +0.245 A 
ATOM     17  C   UNL     1      11.061   5.643   2.839  0.00  0.00    +0.193 A 
ENDROOT
BRANCH  15  10
ATOM      7  N   UNL     1      13.478   4.125  -0.535  0.00  0.00    -0.285 NA
ATOM     10  C   UNL     1      13.725   4.254   0.915  0.00  0.00    +0.149 C 
ATOM     11  C   UNL     1      15.070   4.997   1.022  0.00  0.00    +0.061 C 
ATOM     12  C   UNL     1      15.523   5.201  -0.418  0.00  0.00    +0.130 C 
ATOM     13  C   UNL     1      14.792   4.111  -1.179  0.00  0.00    +0.116 C 
BRANCH  12   3
ATOM      3  O   UNL     1      16.927   5.067  -0.527  0.00  0.00    -0.390 OA
ATOM     31  H   UNL     1      17.250   4.695   0.310  0.00  0.00    +0.210 HD
ENDBRANCH  12   3
BRANCH   7  14
ATOM     14  C   UNL     1      12.687   2.952  -0.882  0.00  0.00    +0.120 C 
BRANCH  14  16
ATOM      2  F   UNL     1       8.364   4.257  -4.252  0.00  0.00    -0.205 F 
ATOM     16  C   UNL     1      11.532   3.301  -1.782  0.00  0.00    -0.033 A 
ATOM     18  C   UNL     1      10.839   4.497  -1.597  0.00  0.00    +0.008 A 
ATOM     19  C   UNL     1      11.154   2.427  -2.802  0.00  0.00    +0.008 A 
ATOM     21  C   UNL     1       9.769   4.820  -2.431  0.00  0.00    +0.038 A 
ATOM     22  C   UNL     1      10.084   2.750  -3.636  0.00  0.00    +0.038 A 
ATOM     24  C   UNL     1       9.391   3.947  -3.451  0.00  0.00    +0.123 A 
ENDBRANCH  14  16
ENDBRANCH   7  14
ENDBRANCH  15  10
BRANCH  17  20
ATOM     20  C   UNL     1      10.050   5.681   3.902  0.00  0.00    +0.251 C 
BRANCH  20   1
ATOM      1  S   UNL     1      10.512   6.921   5.079  0.00  0.00    +0.004 S 
ATOM      5  O   UNL     1       9.702   8.096   4.818  0.00  0.00    -0.169 OA
ATOM      6  O   UNL     1      11.960   7.017   5.105  0.00  0.00    -0.169 OA
BRANCH   1  23
ATOM     23  C   UNL     1      10.009   6.240   6.630  0.00  0.00    +0.089 A 
ATOM     25  C   UNL     1       9.408   7.058   7.588  0.00  0.00    +0.027 A 
ATOM     26  C   UNL     1      10.216   4.887   6.898  0.00  0.00    +0.027 A 
ATOM     27  C   UNL     1       9.013   6.521   8.814  0.00  0.00    +0.005 A 
ATOM     28  C   UNL     1       9.821   4.350   8.124  0.00  0.00    +0.005 A 
ATOM     29  C   UNL     1       9.219   5.168   9.081  0.00  0.00    -0.050 A 
ATOM     30  C   UNL     1       8.796   4.595  10.391  0.00  0.00    +0.044 C 
ENDBRANCH   1  23
ENDBRANCH  20   1
ENDBRANCH  17  20
TORSDOF 7
ENDMDL
MODEL 6
REMARK VINA RESULT:      -6.7      2.102      2.932
REMARK  Name = 26744016
REMARK  8 active torsions:
REMARK  status: ('A' for Active; 'I' for Inactive)
REMARK    1  A    between atoms: S_1  and  C_20
REMARK    2  A    between atoms: S_1  and  C_23
REMARK    3  A    between atoms: O_3  and  C_12
REMARK    4  A    between atoms: N_7  and  C_14
REMARK    5  A    between atoms: C_10  and  C_15
REMARK    6  A    between atoms: C_14  and  C_16
REMARK    7  A    between atoms: C_17  and  C_20
REMARK    8  A    between atoms: C_29  and  C_30
REMARK                            x       y       z     vdW  Elec       q    Type
REMARK                         _______ _______ _______ _____ _____    ______ ____
ROOT
ATOM      4  O   UNL     1      -4.737 -12.306  17.088  0.00  0.00    -0.336 OA
ATOM      8  N   UNL     1      -5.761 -11.431  15.299  0.00  0.00    -0.193 NA
ATOM      9  N   UNL     1      -6.100 -12.257  17.405  0.00  0.00    -0.060 NA
ATOM     15  C   UNL     1      -4.624 -11.801  15.832  0.00  0.00    +0.245 A 
ATOM     17  C   UNL     1      -6.637 -11.729  16.301  0.00  0.00    +0.193 A 
ENDROOT
BRANCH  15  10
ATOM      7  N   UNL     1      -3.115 -10.788  14.131  0.00  0.00    -0.285 NA
ATOM     10  C   UNL     1      -3.228 -11.747  15.248  0.00  0.00    +0.149 C 
ATOM     11  C   UNL     1      -2.172 -11.288  16.271  0.00  0.00    +0.061 C 
ATOM     12  C   UNL     1      -1.488 -10.093  15.621  0.00  0.00    +0.130 C 
ATOM     13  C   UNL     1      -1.735 -10.304  14.139  0.00  0.00    +0.116 C 
BRANCH  12   3
ATOM      3  O   UNL     1      -0.106 -10.078  15.926  0.00  0.00    -0.390 OA
ATOM     31  H   UNL     1      -0.005 -10.402  16.837  0.00  0.00    +0.210 HD
ENDBRANCH  12   3
BRANCH   7  14
ATOM     14  C   UNL     1      -3.488 -11.357  12.843  0.00  0.00    +0.120 C 
BRANCH  14  16
ATOM      2  F   UNL     1      -5.597  -7.466   9.357  0.00  0.00    -0.205 F 
ATOM     16  C   UNL     1      -4.052 -10.317  11.912  0.00  0.00    -0.033 A 
ATOM     18  C   UNL     1      -5.301  -9.754  12.170  0.00  0.00    +0.008 A 
ATOM     19  C   UNL     1      -3.324  -9.919  10.790  0.00  0.00    +0.008 A 
ATOM     21  C   UNL     1      -5.823  -8.790  11.307  0.00  0.00    +0.038 A 
ATOM     22  C   UNL     1      -3.846  -8.956   9.927  0.00  0.00    +0.038 A 
ATOM     24  C   UNL     1      -5.096  -8.391  10.185  0.00  0.00    +0.123 A 
ENDBRANCH  14  16
ENDBRANCH   7  14
ENDBRANCH  15  10
BRANCH  17  20
ATOM     20  C   UNL     1      -8.080 -11.489  16.177  0.00  0.00    +0.251 C 
BRANCH  20   1
ATOM      1  S   UNL     1      -8.406  -9.790  16.559  0.00  0.00    +0.004 S 
ATOM      5  O   UNL     1      -8.949  -9.170  15.365  0.00  0.00    -0.169 OA
ATOM      6  O   UNL     1      -7.238  -9.232  17.213  0.00  0.00    -0.169 OA
BRANCH   1  23
ATOM     23  C   UNL     1      -9.692  -9.870  17.769  0.00  0.00    +0.089 A 
ATOM     25  C   UNL     1     -10.939  -9.307  17.498  0.00  0.00    +0.027 A 
ATOM     26  C   UNL     1      -9.457 -10.491  18.996  0.00  0.00    +0.027 A 
ATOM     27  C   UNL     1     -11.954  -9.368  18.454  0.00  0.00    +0.005 A 
ATOM     28  C   UNL     1     -10.472 -10.550  19.952  0.00  0.00    +0.005 A 
ATOM     29  C   UNL     1     -11.720  -9.989  19.681  0.00  0.00    -0.050 A 
ATOM     30  C   UNL     1     -12.804 -10.053  20.702  0.00  0.00    +0.044 C 
ENDBRANCH   1  23
ENDBRANCH  20   1
ENDBRANCH  17  20
TORSDOF 7
ENDMDL
MODEL 7
REMARK VINA RESULT:      -6.7     26.632     29.428
REMARK  Name = 26744016
REMARK  8 active torsions:
REMARK  status: ('A' for Active; 'I' for Inactive)
REMARK    1  A    between atoms: S_1  and  C_20
REMARK    2  A    between atoms: S_1  and  C_23
REMARK    3  A    between atoms: O_3  and  C_12
REMARK    4  A    between atoms: N_7  and  C_14
REMARK    5  A    between atoms: C_10  and  C_15
REMARK    6  A    between atoms: C_14  and  C_16
REMARK    7  A    between atoms: C_17  and  C_20
REMARK    8  A    between atoms: C_29  and  C_30
REMARK                            x       y       z     vdW  Elec       q    Type
REMARK                         _______ _______ _______ _____ _____    ______ ____
ROOT
ATOM      4  O   UNL     1      14.266   9.479  14.993  0.00  0.00    -0.336 OA
ATOM      8  N   UNL     1      13.283  10.447  16.758  0.00  0.00    -0.193 NA
ATOM      9  N   UNL     1      13.365   8.535  15.504  0.00  0.00    -0.060 NA
ATOM     15  C   UNL     1      14.154  10.574  15.789  0.00  0.00    +0.245 A 
ATOM     17  C   UNL     1      12.826   9.180  16.543  0.00  0.00    +0.193 A 
ENDROOT
BRANCH  15  10
ATOM      7  N   UNL     1      15.948  12.128  16.540  0.00  0.00    -0.285 NA
ATOM     10  C   UNL     1      15.036  11.755  15.440  0.00  0.00    +0.149 C 
ATOM     11  C   UNL     1      15.960  11.474  14.240  0.00  0.00    +0.061 C 
ATOM     12  C   UNL     1      17.366  11.761  14.750  0.00  0.00    +0.130 C 
ATOM     13  C   UNL     1      17.136  12.706  15.914  0.00  0.00    +0.116 C 
BRANCH  12   3
ATOM      3  O   UNL     1      18.155  12.356  13.738  0.00  0.00    -0.390 OA
ATOM     31  H   UNL     1      18.820  11.702  13.464  0.00  0.00    +0.210 HD
ENDBRANCH  12   3
BRANCH   7  14
ATOM     14  C   UNL     1      15.343  13.035  17.506  0.00  0.00    +0.120 C 
BRANCH  14  16
ATOM      2  F   UNL     1      15.923  11.168  22.790  0.00  0.00    -0.205 F 
ATOM     16  C   UNL     1      15.498  12.536  18.918  0.00  0.00    -0.033 A 
ATOM     18  C   UNL     1      15.950  11.238  19.154  0.00  0.00    +0.008 A 
ATOM     19  C   UNL     1      15.189  13.373  19.991  0.00  0.00    +0.008 A 
ATOM     21  C   UNL     1      16.093  10.776  20.461  0.00  0.00    +0.038 A 
ATOM     22  C   UNL     1      15.333  12.910  21.299  0.00  0.00    +0.038 A 
ATOM     24  C   UNL     1      15.785  11.612  21.535  0.00  0.00    +0.123 A 
ENDBRANCH  14  16
ENDBRANCH   7  14
ENDBRANCH  15  10
BRANCH  17  20
ATOM     20  C   UNL     1      11.803   8.562  17.395  0.00  0.00    +0.251 C 
BRANCH  20   1
ATOM      1  S   UNL     1      12.596   7.860  18.815  0.00  0.00    +0.004 S 
ATOM      5  O   UNL     1      14.026   8.044  18.652  0.00  0.00    -0.169 OA
ATOM      6  O   UNL     1      12.045   6.538  19.044  0.00  0.00    -0.169 OA
BRANCH   1  23
ATOM     23  C   UNL     1      12.059   8.886  20.149  0.00  0.00    +0.089 A 
ATOM     25  C   UNL     1      12.529  10.195  20.254  0.00  0.00    +0.027 A 
ATOM     26  C   UNL     1      11.169   8.385  21.099  0.00  0.00    +0.027 A 
ATOM     27  C   UNL     1      12.107  11.005  21.309  0.00  0.00    +0.005 A 
ATOM     28  C   UNL     1      10.748   9.194  22.155  0.00  0.00    +0.005 A 
ATOM     29  C   UNL     1      11.217  10.504  22.259  0.00  0.00    -0.050 A 
ATOM     30  C   UNL     1      10.766  11.370  23.387  0.00  0.00    +0.044 C 
ENDBRANCH   1  23
ENDBRANCH  20   1
ENDBRANCH  17  20
TORSDOF 7
ENDMDL
MODEL 8
REMARK VINA RESULT:      -6.6      2.521      4.447
REMARK  Name = 26744016
REMARK  8 active torsions:
REMARK  status: ('A' for Active; 'I' for Inactive)
REMARK    1  A    between atoms: S_1  and  C_20
REMARK    2  A    between atoms: S_1  and  C_23
REMARK    3  A    between atoms: O_3  and  C_12
REMARK    4  A    between atoms: N_7  and  C_14
REMARK    5  A    between atoms: C_10  and  C_15
REMARK    6  A    between atoms: C_14  and  C_16
REMARK    7  A    between atoms: C_17  and  C_20
REMARK    8  A    between atoms: C_29  and  C_30
REMARK                            x       y       z     vdW  Elec       q    Type
REMARK                         _______ _______ _______ _____ _____    ______ ____
ROOT
ATOM      4  O   UNL     1      -5.867 -12.451  13.887  0.00  0.00    -0.336 OA
ATOM      8  N   UNL     1      -5.841 -10.548  15.068  0.00  0.00    -0.193 NA
ATOM      9  N   UNL     1      -7.207 -12.127  14.133  0.00  0.00    -0.060 NA
ATOM     15  C   UNL     1      -5.130 -11.470  14.472  0.00  0.00    +0.245 A 
ATOM     17  C   UNL     1      -7.109 -10.993  14.835  0.00  0.00    +0.193 A 
ENDROOT
BRANCH  15  10
ATOM      7  N   UNL     1      -3.047 -10.564  13.454  0.00  0.00    -0.285 NA
ATOM     10  C   UNL     1      -3.626 -11.589  14.345  0.00  0.00    +0.149 C 
ATOM     11  C   UNL     1      -2.897 -11.400  15.689  0.00  0.00    +0.061 C 
ATOM     12  C   UNL     1      -1.899 -10.278  15.441  0.00  0.00    +0.130 C 
ATOM     13  C   UNL     1      -1.691 -10.311  13.938  0.00  0.00    +0.116 C 
BRANCH  12   3
ATOM      3  O   UNL     1      -0.693 -10.514  16.143  0.00  0.00    -0.390 OA
ATOM     31  H   UNL     1       0.035 -10.181  15.593  0.00  0.00    +0.210 HD
ENDBRANCH  12   3
BRANCH   7  14
ATOM     14  C   UNL     1      -3.064 -10.947  12.048  0.00  0.00    +0.120 C 
BRANCH  14  16
ATOM      2  F   UNL     1      -6.256  -7.479   8.962  0.00  0.00    -0.205 F 
ATOM     16  C   UNL     1      -3.917 -10.020  11.224  0.00  0.00    -0.033 A 
ATOM     18  C   UNL     1      -5.161  -9.609  11.700  0.00  0.00    +0.008 A 
ATOM     19  C   UNL     1      -3.462  -9.574   9.983  0.00  0.00    +0.008 A 
ATOM     21  C   UNL     1      -5.951  -8.751  10.936  0.00  0.00    +0.038 A 
ATOM     22  C   UNL     1      -4.252  -8.715   9.219  0.00  0.00    +0.038 A 
ATOM     24  C   UNL     1      -5.497  -8.304   9.695  0.00  0.00    +0.123 A 
ENDBRANCH  14  16
ENDBRANCH   7  14
ENDBRANCH  15  10
BRANCH  17  20
ATOM     20  C   UNL     1      -8.293 -10.274  15.319  0.00  0.00    +0.251 C 
BRANCH  20   1
ATOM      1  S   UNL     1      -8.789 -10.977  16.867  0.00  0.00    +0.004 S 
ATOM      5  O   UNL     1      -9.479 -12.221  16.583  0.00  0.00    -0.169 OA
ATOM      6  O   UNL     1      -9.431  -9.943  17.658  0.00  0.00    -0.169 OA
BRANCH   1  23
ATOM     23  C   UNL     1      -7.260 -11.366  17.664  0.00  0.00    +0.089 A 
ATOM     25  C   UNL     1      -6.770 -12.672  17.629  0.00  0.00    +0.027 A 
ATOM     26  C   UNL     1      -6.547 -10.369  18.329  0.00  0.00    +0.027 A 
ATOM     27  C   UNL     1      -5.564 -12.980  18.260  0.00  0.00    +0.005 A 
ATOM     28  C   UNL     1      -5.341 -10.677  18.960  0.00  0.00    +0.005 A 
ATOM     29  C   UNL     1      -4.850 -11.983  18.925  0.00  0.00    -0.050 A 
ATOM     30  C   UNL     1      -3.561 -12.313  19.598  0.00  0.00    +0.044 C 
ENDBRANCH   1  23
ENDBRANCH  20   1
ENDBRANCH  17  20
TORSDOF 7
ENDMDL
MODEL 9
REMARK VINA RESULT:      -6.5      4.604      8.944
REMARK  Name = 26744016
REMARK  8 active torsions:
REMARK  status: ('A' for Active; 'I' for Inactive)
REMARK    1  A    between atoms: S_1  and  C_20
REMARK    2  A    between atoms: S_1  and  C_23
REMARK    3  A    between atoms: O_3  and  C_12
REMARK    4  A    between atoms: N_7  and  C_14
REMARK    5  A    between atoms: C_10  and  C_15
REMARK    6  A    between atoms: C_14  and  C_16
REMARK    7  A    between atoms: C_17  and  C_20
REMARK    8  A    between atoms: C_29  and  C_30
REMARK                            x       y       z     vdW  Elec       q    Type
REMARK                         _______ _______ _______ _____ _____    ______ ____
ROOT
ATOM      4  O   UNL     1     -11.705  -7.820  14.326  0.00  0.00    -0.336 OA
ATOM      8  N   UNL     1     -11.041  -7.077  16.332  0.00  0.00    -0.193 NA
ATOM      9  N   UNL     1     -10.522  -8.508  14.624  0.00  0.00    -0.060 NA
ATOM     15  C   UNL     1     -11.939  -6.999  15.383  0.00  0.00    +0.245 A 
ATOM     17  C   UNL     1     -10.192  -8.015  15.822  0.00  0.00    +0.193 A 
ENDROOT
BRANCH  15  10
ATOM      7  N   UNL     1     -13.514  -5.742  13.921  0.00  0.00    -0.285 NA
ATOM     10  C   UNL     1     -13.181  -6.135  15.305  0.00  0.00    +0.149 C 
ATOM     11  C   UNL     1     -14.440  -6.855  15.825  0.00  0.00    +0.061 C 
ATOM     12  C   UNL     1     -15.440  -6.775  14.678  0.00  0.00    +0.130 C 
ATOM     13  C   UNL     1     -14.966  -5.578  13.875  0.00  0.00    +0.116 C 
BRANCH  12   3
ATOM      3  O   UNL     1     -16.754  -6.591  15.171  0.00  0.00    -0.390 OA
ATOM     31  H   UNL     1     -17.368  -6.901  14.485  0.00  0.00    +0.210 HD
ENDBRANCH  12   3
BRANCH   7  14
ATOM     14  C   UNL     1     -12.814  -4.543  13.479  0.00  0.00    +0.120 C 
BRANCH  14  16
ATOM      2  F   UNL     1     -11.096  -4.965   8.130  0.00  0.00    -0.205 F 
ATOM     16  C   UNL     1     -12.355  -4.657  12.049  0.00  0.00    -0.033 A 
ATOM     18  C   UNL     1     -12.263  -5.909  11.443  0.00  0.00    +0.008 A 
ATOM     19  C   UNL     1     -12.021  -3.507  11.332  0.00  0.00    +0.008 A 
ATOM     21  C   UNL     1     -11.838  -6.013  10.119  0.00  0.00    +0.038 A 
ATOM     22  C   UNL     1     -11.595  -3.612  10.008  0.00  0.00    +0.038 A 
ATOM     24  C   UNL     1     -11.503  -4.865   9.401  0.00  0.00    +0.123 A 
ENDBRANCH  14  16
ENDBRANCH   7  14
ENDBRANCH  15  10
BRANCH  17  20
ATOM     20  C   UNL     1      -8.993  -8.459  16.541  0.00  0.00    +0.251 C 
BRANCH  20   1
ATOM      1  S   UNL     1      -9.388  -9.928  17.449  0.00  0.00    +0.004 S 
ATOM      5  O   UNL     1      -9.922 -10.894  16.508  0.00  0.00    -0.169 OA
ATOM      6  O   UNL     1     -10.145  -9.552  18.628  0.00  0.00    -0.169 OA
BRANCH   1  23
ATOM     23  C   UNL     1      -7.817 -10.516  18.006  0.00  0.00    +0.089 A 
ATOM     25  C   UNL     1      -6.685 -10.336  17.211  0.00  0.00    +0.027 A 
ATOM     26  C   UNL     1      -7.711 -11.162  19.238  0.00  0.00    +0.027 A 
ATOM     27  C   UNL     1      -5.444 -10.802  17.650  0.00  0.00    +0.005 A 
ATOM     28  C   UNL     1      -6.471 -11.628  19.676  0.00  0.00    +0.005 A 
ATOM     29  C   UNL     1      -5.338 -11.448  18.881  0.00  0.00    -0.050 A 
ATOM     30  C   UNL     1      -4.013 -11.946  19.349  0.00  0.00    +0.044 C 
ENDBRANCH   1  23
ENDBRANCH  20   1
ENDBRANCH  17  20
TORSDOF 7
ENDMDL
MODEL 10
REMARK VINA RESULT:      -6.5      3.563      6.679
REMARK  Name = 26744016
REMARK  8 active torsions:
REMARK  status: ('A' for Active; 'I' for Inactive)
REMARK    1  A    between atoms: S_1  and  C_20
REMARK    2  A    between atoms: S_1  and  C_23
REMARK    3  A    between atoms: O_3  and  C_12
REMARK    4  A    between atoms: N_7  and  C_14
REMARK    5  A    between atoms: C_10  and  C_15
REMARK    6  A    between atoms: C_14  and  C_16
REMARK    7  A    between atoms: C_17  and  C_20
REMARK    8  A    between atoms: C_29  and  C_30
REMARK                            x       y       z     vdW  Elec       q    Type
REMARK                         _______ _______ _______ _____ _____    ______ ____
ROOT
ATOM      4  O   UNL     1      -4.967 -14.261  16.842  0.00  0.00    -0.336 OA
ATOM      8  N   UNL     1      -4.300 -12.986  15.125  0.00  0.00    -0.193 NA
ATOM      9  N   UNL     1      -4.890 -15.111  15.732  0.00  0.00    -0.060 NA
ATOM     15  C   UNL     1      -4.603 -13.029  16.398  0.00  0.00    +0.245 A 
ATOM     17  C   UNL     1      -4.491 -14.286  14.759  0.00  0.00    +0.193 A 
ENDROOT
BRANCH  15  10
ATOM      7  N   UNL     1      -5.693 -10.943  17.208  0.00  0.00    -0.285 NA
ATOM     10  C   UNL     1      -4.602 -11.915  17.423  0.00  0.00    +0.149 C 
ATOM     11  C   UNL     1      -4.808 -12.428  18.861  0.00  0.00    +0.061 C 
ATOM     12  C   UNL     1      -6.009 -11.654  19.387  0.00  0.00    +0.130 C 
ATOM     13  C   UNL     1      -6.033 -10.405  18.525  0.00  0.00    +0.116 C 
BRANCH  12   3
ATOM      3  O   UNL     1      -5.845 -11.343  20.757  0.00  0.00    -0.390 OA
ATOM     31  H   UNL     1      -6.482 -10.642  20.976  0.00  0.00    +0.210 HD
ENDBRANCH  12   3
BRANCH   7  14
ATOM     14  C   UNL     1      -5.349  -9.892  16.260  0.00  0.00    +0.120 C 
BRANCH  14  16
ATOM      2  F   UNL     1      -8.525 -10.135  11.613  0.00  0.00    -0.205 F 
ATOM     16  C   UNL     1      -6.197  -9.957  15.018  0.00  0.00    -0.033 A 
ATOM     18  C   UNL     1      -5.594  -9.990  13.762  0.00  0.00    +0.008 A 
ATOM     19  C   UNL     1      -7.588  -9.984  15.126  0.00  0.00    +0.008 A 
ATOM     21  C   UNL     1      -6.380 -10.050  12.612  0.00  0.00    +0.038 A 
ATOM     22  C   UNL     1      -8.374 -10.044  13.975  0.00  0.00    +0.038 A 
ATOM     24  C   UNL     1      -7.770 -10.077  12.718  0.00  0.00    +0.123 A 
ENDBRANCH  14  16
ENDBRANCH   7  14
ENDBRANCH  15  10
BRANCH  17  20
ATOM     20  C   UNL     1      -4.271 -14.753  13.386  0.00  0.00    +0.251 C 
BRANCH  20   1
ATOM      1  S   UNL     1      -2.618 -14.337  12.903  0.00  0.00    +0.004 S 
ATOM      5  O   UNL     1      -2.185 -15.324  11.932  0.00  0.00    -0.169 OA
ATOM      6  O   UNL     1      -1.837 -14.090  14.100  0.00  0.00    -0.169 OA
BRANCH   1  23
ATOM     23  C   UNL     1      -2.798 -12.789  12.071  0.00  0.00    +0.089 A 
ATOM     25  C   UNL     1      -2.103 -11.669  12.526  0.00  0.00    +0.027 A 
ATOM     26  C   UNL     1      -3.637 -12.687  10.961  0.00  0.00    +0.027 A 
ATOM     27  C   UNL     1      -2.246 -10.445  11.871  0.00  0.00    +0.005 A 
ATOM     28  C   UNL     1      -3.781 -11.464  10.306  0.00  0.00    +0.005 A 
ATOM     29  C   UNL     1      -3.085 -10.343  10.761  0.00  0.00    -0.050 A 
ATOM     30  C   UNL     1      -3.237  -9.036  10.060  0.00  0.00    +0.044 C 
ENDBRANCH   1  23
ENDBRANCH  20   1
ENDBRANCH  17  20
TORSDOF 7
ENDMDL
