MODEL 1
REMARK VINA RESULT:      -7.5      0.000      0.000
REMARK  Name = 45361666
REMARK  8 active torsions:
REMARK  status: ('A' for Active; 'I' for Inactive)
REMARK    1  A    between atoms: O_2  and  C_11
REMARK    2  A    between atoms: N_5  and  C_15
REMARK    3  A    between atoms: N_7  and  C_28
REMARK    4  A    between atoms: C_8  and  C_18
REMARK    5  A    between atoms: C_10  and  C_20
REMARK    6  A    between atoms: C_13  and  C_19
REMARK    7  A    between atoms: C_19  and  C_21
REMARK    8  A    between atoms: C_19  and  C_22
REMARK                            x       y       z     vdW  Elec       q    Type
REMARK                         _______ _______ _______ _____ _____    ______ ____
ROOT
ATOM      8  C   UNL     1      -3.527 -11.066  11.086  0.00  0.00    -0.027 C 
ATOM      9  C   UNL     1      -4.905 -10.632  11.690  0.00  0.00    +0.028 C 
ATOM     10  C   UNL     1      -5.564  -9.503  10.819  0.00  0.00    +0.012 C 
ATOM     11  C   UNL     1      -4.781 -10.320  13.209  0.00  0.00    +0.122 C 
ATOM     12  C   UNL     1      -2.959 -12.254  11.899  0.00  0.00    +0.007 C 
ATOM     13  C   UNL     1      -4.117 -11.470  14.001  0.00  0.00    +0.029 C 
ATOM     14  C   UNL     1      -3.743 -11.550   9.634  0.00  0.00    +0.009 C 
ATOM     15  C   UNL     1      -5.707  -9.973   9.345  0.00  0.00    +0.078 C 
ATOM     16  C   UNL     1      -2.800 -11.938  13.380  0.00  0.00    +0.007 C 
ATOM     17  C   UNL     1      -4.405 -10.504   8.748  0.00  0.00    +0.023 C 
ATOM     18  C   UNL     1      -2.487  -9.917  11.092  0.00  0.00    +0.011 C 
ATOM     20  C   UNL     1      -6.938  -9.047  11.341  0.00  0.00    +0.010 C 
ENDROOT
BRANCH  15   5
ATOM      4  O   UNL     1      -7.365 -10.279   7.029  0.00  0.00    -0.253 OA
ATOM      5  N   UNL     1      -6.205  -8.914   8.491  0.00  0.00    -0.296 N 
ATOM      7  N   UNL     1      -7.337  -7.949   6.748  0.00  0.00    -0.269 N 
ATOM     23  C   UNL     1      -7.012  -9.154   7.376  0.00  0.00    +0.304 C 
ATOM     34  H   UNL     1      -5.889  -7.966   8.665  0.00  0.00    +0.151 HD
ATOM     36  H   UNL     1      -6.962  -7.100   7.166  0.00  0.00    +0.156 HD
BRANCH   7  28
ATOM      1  F   UNL     1      -7.877  -8.108   1.980  0.00  0.00    -0.205 F 
ATOM     28  C   UNL     1      -8.130  -7.757   5.593  0.00  0.00    +0.037 A 
ATOM     29  C   UNL     1      -7.602  -8.034   4.331  0.00  0.00    +0.061 A 
ATOM     30  C   UNL     1      -9.439  -7.292   5.714  0.00  0.00    +0.023 A 
ATOM     31  C   UNL     1      -8.383  -7.844   3.192  0.00  0.00    +0.125 A 
ATOM     32  C   UNL     1     -10.221  -7.103   4.574  0.00  0.00    +0.005 A 
ATOM     33  C   UNL     1      -9.694  -7.379   3.313  0.00  0.00    +0.038 A 
ENDBRANCH   7  28
ENDBRANCH  15   5
BRANCH  11   2
ATOM      2  O   UNL     1      -6.084 -10.140  13.766  0.00  0.00    -0.391 OA
ATOM     35  H   UNL     1      -6.665  -9.791  13.070  0.00  0.00    +0.210 HD
ENDBRANCH  11   2
BRANCH  13  19
ATOM     19  C   UNL     1      -3.886 -11.092  15.469  0.00  0.00    +0.078 C 
ATOM     21  C   UNL     1      -2.405 -10.954  15.772  0.00  0.00    +0.017 C 
BRANCH  19  22
ATOM      3  O   UNL     1      -4.379 -13.348  16.049  0.00  0.00    -0.275 OA
ATOM      6  N   UNL     1      -5.179 -11.699  17.454  0.00  0.00    -0.301 N 
ATOM     22  C   UNL     1      -4.497 -12.158  16.342  0.00  0.00    +0.219 C 
ATOM     24  C   UNL     1      -5.350 -10.308  17.860  0.00  0.00    +0.108 C 
ATOM     25  C   UNL     1      -5.830 -12.601  18.394  0.00  0.00    +0.108 C 
ATOM     26  C   UNL     1      -6.394 -10.361  18.967  0.00  0.00    +0.020 C 
ATOM     27  C   UNL     1      -6.155 -11.728  19.596  0.00  0.00    +0.020 C 
ENDBRANCH  19  22
ENDBRANCH  13  19
TORSDOF 5
ENDMDL
MODEL 2
REMARK VINA RESULT:      -7.0     29.394     32.611
REMARK  Name = 45361666
REMARK  8 active torsions:
REMARK  status: ('A' for Active; 'I' for Inactive)
REMARK    1  A    between atoms: O_2  and  C_11
REMARK    2  A    between atoms: N_5  and  C_15
REMARK    3  A    between atoms: N_7  and  C_28
REMARK    4  A    between atoms: C_8  and  C_18
REMARK    5  A    between atoms: C_10  and  C_20
REMARK    6  A    between atoms: C_13  and  C_19
REMARK    7  A    between atoms: C_19  and  C_21
REMARK    8  A    between atoms: C_19  and  C_22
REMARK                            x       y       z     vdW  Elec       q    Type
REMARK                         _______ _______ _______ _____ _____    ______ ____
ROOT
ATOM      8  C   UNL     1      18.317   9.976  21.767  0.00  0.00    -0.027 C 
ATOM      9  C   UNL     1      17.598   8.613  21.488  0.00  0.00    +0.028 C 
ATOM     10  C   UNL     1      18.543   7.632  20.708  0.00  0.00    +0.012 C 
ATOM     11  C   UNL     1      16.194   8.837  20.855  0.00  0.00    +0.122 C 
ATOM     12  C   UNL     1      17.402  10.874  22.634  0.00  0.00    +0.007 C 
ATOM     13  C   UNL     1      15.322   9.818  21.671  0.00  0.00    +0.029 C 
ATOM     14  C   UNL     1      19.611   9.708  22.570  0.00  0.00    +0.009 C 
ATOM     15  C   UNL     1      19.872   7.429  21.488  0.00  0.00    +0.078 C 
ATOM     16  C   UNL     1      16.042  11.127  21.998  0.00  0.00    +0.007 C 
ATOM     17  C   UNL     1      20.557   8.740  21.873  0.00  0.00    +0.023 C 
ATOM     18  C   UNL     1      18.673  10.737  20.466  0.00  0.00    +0.011 C 
ATOM     20  C   UNL     1      17.908   6.260  20.424  0.00  0.00    +0.010 C 
ENDROOT
BRANCH  15   5
ATOM      4  O   UNL     1      21.546   5.351  22.528  0.00  0.00    -0.253 OA
ATOM      5  N   UNL     1      20.814   6.622  20.741  0.00  0.00    -0.296 N 
ATOM      7  N   UNL     1      22.406   5.016  20.369  0.00  0.00    -0.269 N 
ATOM     23  C   UNL     1      21.595   5.624  21.330  0.00  0.00    +0.304 C 
ATOM     34  H   UNL     1      20.971   6.845  19.764  0.00  0.00    +0.151 HD
ATOM     36  H   UNL     1      22.324   5.362  19.416  0.00  0.00    +0.156 HD
BRANCH   7  28
ATOM      1  F   UNL     1      26.846   3.245  19.922  0.00  0.00    -0.205 F 
ATOM     28  C   UNL     1      23.337   3.968  20.555  0.00  0.00    +0.037 A 
ATOM     29  C   UNL     1      24.659   4.127  20.139  0.00  0.00    +0.061 A 
ATOM     30  C   UNL     1      22.933   2.775  21.154  0.00  0.00    +0.023 A 
ATOM     31  C   UNL     1      25.577   3.093  20.322  0.00  0.00    +0.125 A 
ATOM     32  C   UNL     1      23.852   1.740  21.337  0.00  0.00    +0.005 A 
ATOM     33  C   UNL     1      25.173   1.899  20.921  0.00  0.00    +0.038 A 
ENDBRANCH   7  28
ENDBRANCH  15   5
BRANCH  11   2
ATOM      2  O   UNL     1      15.486   7.597  20.816  0.00  0.00    -0.391 OA
ATOM     35  H   UNL     1      15.244   7.358  21.726  0.00  0.00    +0.210 HD
ENDBRANCH  11   2
BRANCH  13  19
ATOM     19  C   UNL     1      13.996  10.125  20.964  0.00  0.00    +0.078 C 
ATOM     21  C   UNL     1      14.000  11.525  20.379  0.00  0.00    +0.017 C 
BRANCH  19  22
ATOM      3  O   UNL     1      12.689  10.848  22.819  0.00  0.00    -0.275 OA
ATOM      6  N   UNL     1      12.106   8.841  21.835  0.00  0.00    -0.301 N 
ATOM     22  C   UNL     1      12.874   9.983  21.961  0.00  0.00    +0.219 C 
ATOM     24  C   UNL     1      12.269   7.785  20.841  0.00  0.00    +0.108 C 
ATOM     25  C   UNL     1      10.989   8.553  22.724  0.00  0.00    +0.108 C 
ATOM     26  C   UNL     1      11.361   6.663  21.327  0.00  0.00    +0.020 C 
ATOM     27  C   UNL     1      10.247   7.413  22.045  0.00  0.00    +0.020 C 
ENDBRANCH  19  22
ENDBRANCH  13  19
TORSDOF 5
ENDMDL
MODEL 3
REMARK VINA RESULT:      -6.9     29.975     32.782
REMARK  Name = 45361666
REMARK  8 active torsions:
REMARK  status: ('A' for Active; 'I' for Inactive)
REMARK    1  A    between atoms: O_2  and  C_11
REMARK    2  A    between atoms: N_5  and  C_15
REMARK    3  A    between atoms: N_7  and  C_28
REMARK    4  A    between atoms: C_8  and  C_18
REMARK    5  A    between atoms: C_10  and  C_20
REMARK    6  A    between atoms: C_13  and  C_19
REMARK    7  A    between atoms: C_19  and  C_21
REMARK    8  A    between atoms: C_19  and  C_22
REMARK                            x       y       z     vdW  Elec       q    Type
REMARK                         _______ _______ _______ _____ _____    ______ ____
ROOT
ATOM      8  C   UNL     1      21.466   9.103  21.596  0.00  0.00    -0.027 C 
ATOM      9  C   UNL     1      20.859   7.673  21.403  0.00  0.00    +0.028 C 
ATOM     10  C   UNL     1      19.402   7.602  21.985  0.00  0.00    +0.012 C 
ATOM     11  C   UNL     1      21.837   6.573  21.909  0.00  0.00    +0.122 C 
ATOM     12  C   UNL     1      22.853   9.171  20.913  0.00  0.00    +0.007 C 
ATOM     13  C   UNL     1      23.252   6.709  21.301  0.00  0.00    +0.029 C 
ATOM     14  C   UNL     1      20.549  10.137  20.904  0.00  0.00    +0.009 C 
ATOM     15  C   UNL     1      18.509   8.695  21.336  0.00  0.00    +0.078 C 
ATOM     16  C   UNL     1      23.824   8.121  21.434  0.00  0.00    +0.007 C 
ATOM     17  C   UNL     1      19.114  10.097  21.410  0.00  0.00    +0.023 C 
ATOM     18  C   UNL     1      21.628   9.483  23.089  0.00  0.00    +0.011 C 
ATOM     20  C   UNL     1      18.733   6.229  21.804  0.00  0.00    +0.010 C 
ENDROOT
BRANCH  15   5
ATOM      4  O   UNL     1      16.011   8.267  20.001  0.00  0.00    -0.253 OA
ATOM      5  N   UNL     1      17.190   8.734  21.934  0.00  0.00    -0.296 N 
ATOM      7  N   UNL     1      14.904   8.613  22.042  0.00  0.00    -0.269 N 
ATOM     23  C   UNL     1      16.018   8.513  21.205  0.00  0.00    +0.304 C 
ATOM     34  H   UNL     1      17.110   9.013  22.906  0.00  0.00    +0.151 HD
ATOM     36  H   UNL     1      15.085   8.822  23.021  0.00  0.00    +0.156 HD
BRANCH   7  28
ATOM      1  F   UNL     1      11.131   5.798  21.101  0.00  0.00    -0.205 F 
ATOM     28  C   UNL     1      13.542   8.457  21.696  0.00  0.00    +0.037 A 
ATOM     29  C   UNL     1      12.997   7.179  21.567  0.00  0.00    +0.061 A 
ATOM     30  C   UNL     1      12.743   9.580  21.484  0.00  0.00    +0.023 A 
ATOM     31  C   UNL     1      11.654   7.024  21.225  0.00  0.00    +0.125 A 
ATOM     32  C   UNL     1      11.398   9.425  21.142  0.00  0.00    +0.005 A 
ATOM     33  C   UNL     1      10.854   8.148  21.013  0.00  0.00    +0.038 A 
ENDBRANCH   7  28
ENDBRANCH  15   5
BRANCH  11   2
ATOM      2  O   UNL     1      21.349   5.287  21.522  0.00  0.00    -0.391 OA
ATOM     35  H   UNL     1      20.404   5.374  21.310  0.00  0.00    +0.210 HD
ENDBRANCH  11   2
BRANCH  13  19
ATOM     19  C   UNL     1      24.232   5.699  21.909  0.00  0.00    +0.078 C 
ATOM     21  C   UNL     1      25.555   6.359  22.251  0.00  0.00    +0.017 C 
BRANCH  19  22
ATOM      3  O   UNL     1      24.676   4.835  19.735  0.00  0.00    -0.275 OA
ATOM      6  N   UNL     1      24.371   3.303  21.437  0.00  0.00    -0.301 N 
ATOM     22  C   UNL     1      24.450   4.583  20.919  0.00  0.00    +0.219 C 
ATOM     24  C   UNL     1      24.113   2.938  22.826  0.00  0.00    +0.108 C 
ATOM     25  C   UNL     1      24.552   2.118  20.610  0.00  0.00    +0.108 C 
ATOM     26  C   UNL     1      23.859   1.437  22.782  0.00  0.00    +0.020 C 
ATOM     27  C   UNL     1      24.712   0.981  21.606  0.00  0.00    +0.020 C 
ENDBRANCH  19  22
ENDBRANCH  13  19
TORSDOF 5
ENDMDL
MODEL 4
REMARK VINA RESULT:      -6.9      4.995     10.043
REMARK  Name = 45361666
REMARK  8 active torsions:
REMARK  status: ('A' for Active; 'I' for Inactive)
REMARK    1  A    between atoms: O_2  and  C_11
REMARK    2  A    between atoms: N_5  and  C_15
REMARK    3  A    between atoms: N_7  and  C_28
REMARK    4  A    between atoms: C_8  and  C_18
REMARK    5  A    between atoms: C_10  and  C_20
REMARK    6  A    between atoms: C_13  and  C_19
REMARK    7  A    between atoms: C_19  and  C_21
REMARK    8  A    between atoms: C_19  and  C_22
REMARK                            x       y       z     vdW  Elec       q    Type
REMARK                         _______ _______ _______ _____ _____    ______ ____
ROOT
ATOM      8  C   UNL     1      -4.842 -11.378  17.318  0.00  0.00    -0.027 C 
ATOM      9  C   UNL     1      -5.857 -10.942  16.209  0.00  0.00    +0.028 C 
ATOM     10  C   UNL     1      -7.330 -11.284  16.633  0.00  0.00    +0.012 C 
ATOM     11  C   UNL     1      -5.424 -11.468  14.810  0.00  0.00    +0.122 C 
ATOM     12  C   UNL     1      -3.417 -10.926  16.920  0.00  0.00    +0.007 C 
ATOM     13  C   UNL     1      -3.963 -11.102  14.462  0.00  0.00    +0.029 C 
ATOM     14  C   UNL     1      -5.208 -10.671  18.643  0.00  0.00    +0.009 C 
ATOM     15  C   UNL     1      -7.661 -10.629  18.003  0.00  0.00    +0.078 C 
ATOM     16  C   UNL     1      -2.975 -11.472  15.569  0.00  0.00    +0.007 C 
ATOM     17  C   UNL     1      -6.636 -10.945  19.092  0.00  0.00    +0.023 C 
ATOM     18  C   UNL     1      -4.832 -12.911  17.543  0.00  0.00    +0.011 C 
ATOM     20  C   UNL     1      -8.384 -10.855  15.599  0.00  0.00    +0.010 C 
ENDROOT
BRANCH  15   5
ATOM      4  O   UNL     1      -9.975  -8.953  18.213  0.00  0.00    -0.253 OA
ATOM      5  N   UNL     1      -8.972 -11.019  18.480  0.00  0.00    -0.296 N 
ATOM      7  N   UNL     1     -11.180 -10.787  19.047  0.00  0.00    -0.269 N 
ATOM     23  C   UNL     1     -10.050 -10.133  18.551  0.00  0.00    +0.304 C 
ATOM     34  H   UNL     1      -9.089 -11.955  18.854  0.00  0.00    +0.151 HD
ATOM     36  H   UNL     1     -11.073 -11.772  19.279  0.00  0.00    +0.156 HD
BRANCH   7  28
ATOM      1  F   UNL     1     -15.433  -9.312  17.380  0.00  0.00    -0.205 F 
ATOM     28  C   UNL     1     -12.469 -10.248  19.270  0.00  0.00    +0.037 A 
ATOM     29  C   UNL     1     -13.333 -10.043  18.194  0.00  0.00    +0.061 A 
ATOM     30  C   UNL     1     -12.875  -9.921  20.563  0.00  0.00    +0.023 A 
ATOM     31  C   UNL     1     -14.603  -9.510  18.412  0.00  0.00    +0.125 A 
ATOM     32  C   UNL     1     -14.146  -9.389  20.781  0.00  0.00    +0.005 A 
ATOM     33  C   UNL     1     -15.010  -9.183  19.707  0.00  0.00    +0.038 A 
ENDBRANCH   7  28
ENDBRANCH  15   5
BRANCH  11   2
ATOM      2  O   UNL     1      -6.245 -10.875  13.802  0.00  0.00    -0.391 OA
ATOM     35  H   UNL     1      -6.396 -11.537  13.107  0.00  0.00    +0.210 HD
ENDBRANCH  11   2
BRANCH  13  19
ATOM     19  C   UNL     1      -3.515 -11.739  13.141  0.00  0.00    +0.078 C 
ATOM     21  C   UNL     1      -2.558 -12.891  13.386  0.00  0.00    +0.017 C 
BRANCH  19  22
ATOM      3  O   UNL     1      -1.710 -10.297  12.565  0.00  0.00    -0.275 OA
ATOM      6  N   UNL     1      -3.601 -10.199  11.243  0.00  0.00    -0.301 N 
ATOM     22  C   UNL     1      -2.849 -10.682  12.298  0.00  0.00    +0.219 C 
ATOM     24  C   UNL     1      -4.949 -10.615  10.870  0.00  0.00    +0.108 C 
ATOM     25  C   UNL     1      -3.103  -9.172  10.339  0.00  0.00    +0.108 C 
ATOM     26  C   UNL     1      -5.392  -9.586   9.839  0.00  0.00    +0.020 C 
ATOM     27  C   UNL     1      -4.082  -9.182   9.176  0.00  0.00    +0.020 C 
ENDBRANCH  19  22
ENDBRANCH  13  19
TORSDOF 5
ENDMDL
MODEL 5
REMARK VINA RESULT:      -6.8     23.576     27.214
REMARK  Name = 45361666
REMARK  8 active torsions:
REMARK  status: ('A' for Active; 'I' for Inactive)
REMARK    1  A    between atoms: O_2  and  C_11
REMARK    2  A    between atoms: N_5  and  C_15
REMARK    3  A    between atoms: N_7  and  C_28
REMARK    4  A    between atoms: C_8  and  C_18
REMARK    5  A    between atoms: C_10  and  C_20
REMARK    6  A    between atoms: C_13  and  C_19
REMARK    7  A    between atoms: C_19  and  C_21
REMARK    8  A    between atoms: C_19  and  C_22
REMARK                            x       y       z     vdW  Elec       q    Type
REMARK                         _______ _______ _______ _____ _____    ______ ____
ROOT
ATOM      8  C   UNL     1      12.968   3.662  -0.874  0.00  0.00    -0.027 C 
ATOM      9  C   UNL     1      11.905   4.805  -0.748  0.00  0.00    +0.028 C 
ATOM     10  C   UNL     1      11.000   4.589   0.517  0.00  0.00    +0.012 C 
ATOM     11  C   UNL     1      11.142   5.015  -2.089  0.00  0.00    +0.122 C 
ATOM     12  C   UNL     1      13.912   3.966  -2.062  0.00  0.00    +0.007 C 
ATOM     13  C   UNL     1      12.094   5.214  -3.290  0.00  0.00    +0.029 C 
ATOM     14  C   UNL     1      13.825   3.628   0.411  0.00  0.00    +0.009 C 
ATOM     15  C   UNL     1      11.879   4.480   1.795  0.00  0.00    +0.078 C 
ATOM     16  C   UNL     1      13.172   4.133  -3.382  0.00  0.00    +0.007 C 
ATOM     17  C   UNL     1      12.998   3.446   1.676  0.00  0.00    +0.023 C 
ATOM     18  C   UNL     1      12.322   2.272  -1.095  0.00  0.00    +0.011 C 
ATOM     20  C   UNL     1       9.949   5.693   0.718  0.00  0.00    +0.010 C 
ENDROOT
BRANCH  15   5
ATOM      4  O   UNL     1      11.575   6.092   4.143  0.00  0.00    -0.253 OA
ATOM      5  N   UNL     1      11.085   4.164   2.965  0.00  0.00    -0.296 N 
ATOM      7  N   UNL     1      10.162   4.448   5.043  0.00  0.00    -0.269 N 
ATOM     23  C   UNL     1      10.993   5.012   4.072  0.00  0.00    +0.304 C 
ATOM     34  H   UNL     1      10.642   3.253   3.015  0.00  0.00    +0.151 HD
ATOM     36  H   UNL     1       9.754   3.542   4.825  0.00  0.00    +0.156 HD
BRANCH   7  28
ATOM      1  F   UNL     1       9.625   3.955   9.788  0.00  0.00    -0.205 F 
ATOM     28  C   UNL     1       9.811   4.985   6.303  0.00  0.00    +0.037 A 
ATOM     29  C   UNL     1       9.894   4.190   7.447  0.00  0.00    +0.061 A 
ATOM     30  C   UNL     1       9.381   6.308   6.403  0.00  0.00    +0.023 A 
ATOM     31  C   UNL     1       9.546   4.718   8.690  0.00  0.00    +0.125 A 
ATOM     32  C   UNL     1       9.034   6.836   7.648  0.00  0.00    +0.005 A 
ATOM     33  C   UNL     1       9.117   6.042   8.790  0.00  0.00    +0.038 A 
ENDBRANCH   7  28
ENDBRANCH  15   5
BRANCH  11   2
ATOM      2  O   UNL     1      10.342   6.196  -2.002  0.00  0.00    -0.391 OA
ATOM     35  H   UNL     1      10.080   6.450  -2.902  0.00  0.00    +0.210 HD
ENDBRANCH  11   2
BRANCH  13  19
ATOM     19  C   UNL     1      11.328   5.288  -4.617  0.00  0.00    +0.078 C 
ATOM     21  C   UNL     1      11.803   4.218  -5.583  0.00  0.00    +0.017 C 
BRANCH  19  22
ATOM      3  O   UNL     1      12.671   7.068  -5.453  0.00  0.00    -0.275 OA
ATOM      6  N   UNL     1      10.382   7.380  -5.460  0.00  0.00    -0.301 N 
ATOM     22  C   UNL     1      11.535   6.656  -5.216  0.00  0.00    +0.219 C 
ATOM     24  C   UNL     1       9.011   6.949  -5.209  0.00  0.00    +0.108 C 
ATOM     25  C   UNL     1      10.412   8.720  -6.031  0.00  0.00    +0.108 C 
ATOM     26  C   UNL     1       8.178   8.210  -5.391  0.00  0.00    +0.020 C 
ATOM     27  C   UNL     1       8.970   8.996  -6.426  0.00  0.00    +0.020 C 
ENDBRANCH  19  22
ENDBRANCH  13  19
TORSDOF 5
ENDMDL
MODEL 6
REMARK VINA RESULT:      -6.7     24.299     26.965
REMARK  Name = 45361666
REMARK  8 active torsions:
REMARK  status: ('A' for Active; 'I' for Inactive)
REMARK    1  A    between atoms: O_2  and  C_11
REMARK    2  A    between atoms: N_5  and  C_15
REMARK    3  A    between atoms: N_7  and  C_28
REMARK    4  A    between atoms: C_8  and  C_18
REMARK    5  A    between atoms: C_10  and  C_20
REMARK    6  A    between atoms: C_13  and  C_19
REMARK    7  A    between atoms: C_19  and  C_21
REMARK    8  A    between atoms: C_19  and  C_22
REMARK                            x       y       z     vdW  Elec       q    Type
REMARK                         _______ _______ _______ _____ _____    ______ ____
ROOT
ATOM      8  C   UNL     1       9.487   6.097   5.902  0.00  0.00    -0.027 C 
ATOM      9  C   UNL     1      10.464   7.183   5.338  0.00  0.00    +0.028 C 
ATOM     10  C   UNL     1       9.970   8.626   5.712  0.00  0.00    +0.012 C 
ATOM     11  C   UNL     1      10.760   6.946   3.829  0.00  0.00    +0.122 C 
ATOM     12  C   UNL     1      10.061   4.689   5.615  0.00  0.00    +0.007 C 
ATOM     13  C   UNL     1      11.234   5.504   3.534  0.00  0.00    +0.029 C 
ATOM     14  C   UNL     1       9.383   6.260   7.435  0.00  0.00    +0.009 C 
ATOM     15  C   UNL     1       9.797   8.755   7.251  0.00  0.00    +0.078 C 
ATOM     16  C   UNL     1      10.315   4.440   4.135  0.00  0.00    +0.007 C 
ATOM     17  C   UNL     1       8.933   7.651   7.859  0.00  0.00    +0.023 C 
ATOM     18  C   UNL     1       8.071   6.192   5.281  0.00  0.00    +0.011 C 
ATOM     20  C   UNL     1      10.901   9.744   5.212  0.00  0.00    +0.010 C 
ENDROOT
BRANCH  15   5
ATOM      4  O   UNL     1      10.807  10.564   9.228  0.00  0.00    -0.253 OA
ATOM      5  N   UNL     1       9.232  10.036   7.621  0.00  0.00    -0.296 N 
ATOM      7  N   UNL     1       9.034  12.024   8.743  0.00  0.00    -0.269 N 
ATOM     23  C   UNL     1       9.791  10.859   8.602  0.00  0.00    +0.304 C 
ATOM     34  H   UNL     1       8.347  10.310   7.207  0.00  0.00    +0.151 HD
ATOM     36  H   UNL     1       8.217  12.114   8.143  0.00  0.00    +0.156 HD
BRANCH   7  28
ATOM      1  F   UNL     1       8.451  14.119  13.023  0.00  0.00    -0.205 F 
ATOM     28  C   UNL     1       9.262  13.107   9.624  0.00  0.00    +0.037 A 
ATOM     29  C   UNL     1       8.734  13.078  10.915  0.00  0.00    +0.061 A 
ATOM     30  C   UNL     1      10.014  14.203   9.202  0.00  0.00    +0.023 A 
ATOM     31  C   UNL     1       8.958  14.146  11.784  0.00  0.00    +0.125 A 
ATOM     32  C   UNL     1      10.238  15.271  10.072  0.00  0.00    +0.005 A 
ATOM     33  C   UNL     1       9.711  15.243  11.362  0.00  0.00    +0.038 A 
ENDBRANCH   7  28
ENDBRANCH  15   5
BRANCH  11   2
ATOM      2  O   UNL     1      11.812   7.816   3.407  0.00  0.00    -0.391 OA
ATOM     35  H   UNL     1      11.443   8.448   2.768  0.00  0.00    +0.210 HD
ENDBRANCH  11   2
BRANCH  13  19
ATOM     19  C   UNL     1      11.394   5.254   2.029  0.00  0.00    +0.078 C 
ATOM     21  C   UNL     1      10.110   4.716   1.425  0.00  0.00    +0.017 C 
BRANCH  19  22
ATOM      3  O   UNL     1      12.356   3.076   2.083  0.00  0.00    -0.275 OA
ATOM      6  N   UNL     1      13.696   4.804   1.338  0.00  0.00    -0.301 N 
ATOM     22  C   UNL     1      12.517   4.270   1.822  0.00  0.00    +0.219 C 
ATOM     24  C   UNL     1      13.949   6.202   1.006  0.00  0.00    +0.108 C 
ATOM     25  C   UNL     1      14.876   3.987   1.090  0.00  0.00    +0.108 C 
ATOM     26  C   UNL     1      15.455   6.276   0.796  0.00  0.00    +0.020 C 
ATOM     27  C   UNL     1      15.796   4.886   0.279  0.00  0.00    +0.020 C 
ENDBRANCH  19  22
ENDBRANCH  13  19
TORSDOF 5
ENDMDL
MODEL 7
REMARK VINA RESULT:      -6.7     32.457     34.166
REMARK  Name = 45361666
REMARK  8 active torsions:
REMARK  status: ('A' for Active; 'I' for Inactive)
REMARK    1  A    between atoms: O_2  and  C_11
REMARK    2  A    between atoms: N_5  and  C_15
REMARK    3  A    between atoms: N_7  and  C_28
REMARK    4  A    between atoms: C_8  and  C_18
REMARK    5  A    between atoms: C_10  and  C_20
REMARK    6  A    between atoms: C_13  and  C_19
REMARK    7  A    between atoms: C_19  and  C_21
REMARK    8  A    between atoms: C_19  and  C_22
REMARK                            x       y       z     vdW  Elec       q    Type
REMARK                         _______ _______ _______ _____ _____    ______ ____
ROOT
ATOM      8  C   UNL     1      -1.177   6.730  39.272  0.00  0.00    -0.027 C 
ATOM      9  C   UNL     1      -2.096   7.993  39.375  0.00  0.00    +0.028 C 
ATOM     10  C   UNL     1      -1.323   9.284  38.923  0.00  0.00    +0.012 C 
ATOM     11  C   UNL     1      -2.785   8.078  40.768  0.00  0.00    +0.122 C 
ATOM     12  C   UNL     1      -2.001   5.465  39.614  0.00  0.00    +0.007 C 
ATOM     13  C   UNL     1      -3.519   6.772  41.149  0.00  0.00    +0.029 C 
ATOM     14  C   UNL     1      -0.677   6.587  37.817  0.00  0.00    +0.009 C 
ATOM     15  C   UNL     1      -0.760   9.100  37.487  0.00  0.00    +0.078 C 
ATOM     16  C   UNL     1      -2.644   5.528  40.993  0.00  0.00    +0.007 C 
ATOM     17  C   UNL     1       0.059   7.821  37.314  0.00  0.00    +0.023 C 
ATOM     18  C   UNL     1       0.041   6.803  40.226  0.00  0.00    +0.011 C 
ATOM     20  C   UNL     1      -2.177  10.562  38.973  0.00  0.00    +0.010 C 
ENDROOT
BRANCH  15   5
ATOM      4  O   UNL     1      -1.259  10.881  35.300  0.00  0.00    -0.253 OA
ATOM      5  N   UNL     1       0.058  10.226  37.084  0.00  0.00    -0.296 N 
ATOM      7  N   UNL     1       0.705  12.044  35.849  0.00  0.00    -0.269 N 
ATOM     23  C   UNL     1      -0.261  11.046  35.999  0.00  0.00    +0.304 C 
ATOM     34  H   UNL     1       0.941  10.375  37.561  0.00  0.00    +0.151 HD
ATOM     36  H   UNL     1       1.472  12.042  36.517  0.00  0.00    +0.156 HD
BRANCH   7  28
ATOM      1  F   UNL     1       0.873  13.443  31.260  0.00  0.00    -0.205 F 
ATOM     28  C   UNL     1       0.750  13.070  34.876  0.00  0.00    +0.037 A 
ATOM     29  C   UNL     1       0.789  12.744  33.520  0.00  0.00    +0.061 A 
ATOM     30  C   UNL     1       0.756  14.407  35.273  0.00  0.00    +0.023 A 
ATOM     31  C   UNL     1       0.835  13.756  32.561  0.00  0.00    +0.125 A 
ATOM     32  C   UNL     1       0.802  15.419  34.313  0.00  0.00    +0.005 A 
ATOM     33  C   UNL     1       0.841  15.094  32.958  0.00  0.00    +0.038 A 
ENDBRANCH   7  28
ENDBRANCH  15   5
BRANCH  11   2
ATOM      2  O   UNL     1      -3.772   9.111  40.749  0.00  0.00    -0.391 OA
ATOM     35  H   UNL     1      -3.835   9.452  39.842  0.00  0.00    +0.210 HD
ENDBRANCH  11   2
BRANCH  13  19
ATOM     19  C   UNL     1      -4.079   6.829  42.576  0.00  0.00    +0.078 C 
ATOM     21  C   UNL     1      -3.056   6.338  43.584  0.00  0.00    +0.017 C 
BRANCH  19  22
ATOM      3  O   UNL     1      -5.233   4.755  42.767  0.00  0.00    -0.275 OA
ATOM      6  N   UNL     1      -6.519   6.661  42.542  0.00  0.00    -0.301 N 
ATOM     22  C   UNL     1      -5.321   5.977  42.640  0.00  0.00    +0.219 C 
ATOM     24  C   UNL     1      -6.691   8.103  42.395  0.00  0.00    +0.108 C 
ATOM     25  C   UNL     1      -7.807   5.983  42.581  0.00  0.00    +0.108 C 
ATOM     26  C   UNL     1      -8.165   8.277  42.059  0.00  0.00    +0.020 C 
ATOM     27  C   UNL     1      -8.819   7.101  42.773  0.00  0.00    +0.020 C 
ENDBRANCH  19  22
ENDBRANCH  13  19
TORSDOF 5
ENDMDL
MODEL 8
REMARK VINA RESULT:      -6.7      5.520     11.425
REMARK  Name = 45361666
REMARK  8 active torsions:
REMARK  status: ('A' for Active; 'I' for Inactive)
REMARK    1  A    between atoms: O_2  and  C_11
REMARK    2  A    between atoms: N_5  and  C_15
REMARK    3  A    between atoms: N_7  and  C_28
REMARK    4  A    between atoms: C_8  and  C_18
REMARK    5  A    between atoms: C_10  and  C_20
REMARK    6  A    between atoms: C_13  and  C_19
REMARK    7  A    between atoms: C_19  and  C_21
REMARK    8  A    between atoms: C_19  and  C_22
REMARK                            x       y       z     vdW  Elec       q    Type
REMARK                         _______ _______ _______ _____ _____    ______ ____
ROOT
ATOM      8  C   UNL     1      -5.116 -11.377  17.825  0.00  0.00    -0.027 C 
ATOM      9  C   UNL     1      -6.165 -11.560  16.676  0.00  0.00    +0.028 C 
ATOM     10  C   UNL     1      -7.416 -12.361  17.185  0.00  0.00    +0.012 C 
ATOM     11  C   UNL     1      -5.495 -12.112  15.384  0.00  0.00    +0.122 C 
ATOM     12  C   UNL     1      -3.953 -10.489  17.323  0.00  0.00    +0.007 C 
ATOM     13  C   UNL     1      -4.268 -11.279  14.947  0.00  0.00    +0.029 C 
ATOM     14  C   UNL     1      -5.789 -10.648  19.010  0.00  0.00    +0.009 C 
ATOM     15  C   UNL     1      -8.039 -11.659  18.423  0.00  0.00    +0.078 C 
ATOM     16  C   UNL     1      -3.270 -11.047  16.082  0.00  0.00    +0.007 C 
ATOM     17  C   UNL     1      -7.026 -11.366  19.529  0.00  0.00    +0.023 C 
ATOM     18  C   UNL     1      -4.535 -12.726  18.318  0.00  0.00    +0.011 C 
ATOM     20  C   UNL     1      -8.502 -12.554  16.112  0.00  0.00    +0.010 C 
ENDROOT
BRANCH  15   5
ATOM      4  O   UNL     1      -9.958 -10.762  20.352  0.00  0.00    -0.253 OA
ATOM      5  N   UNL     1      -9.124 -12.433  18.989  0.00  0.00    -0.296 N 
ATOM      7  N   UNL     1     -10.954 -12.887  20.292  0.00  0.00    -0.269 N 
ATOM     23  C   UNL     1     -10.018 -11.915  19.929  0.00  0.00    +0.304 C 
ATOM     34  H   UNL     1      -9.189 -13.418  18.751  0.00  0.00    +0.151 HD
ATOM     36  H   UNL     1     -10.865 -13.796  19.845  0.00  0.00    +0.156 HD
BRANCH   7  28
ATOM      1  F   UNL     1     -14.959 -10.692  21.770  0.00  0.00    -0.205 F 
ATOM     28  C   UNL     1     -12.022 -12.765  21.211  0.00  0.00    +0.037 A 
ATOM     29  C   UNL     1     -12.984 -11.770  21.033  0.00  0.00    +0.061 A 
ATOM     30  C   UNL     1     -12.114 -13.638  22.294  0.00  0.00    +0.023 A 
ATOM     31  C   UNL     1     -14.037 -11.647  21.939  0.00  0.00    +0.125 A 
ATOM     32  C   UNL     1     -13.168 -13.516  23.201  0.00  0.00    +0.005 A 
ATOM     33  C   UNL     1     -14.129 -12.521  23.023  0.00  0.00    +0.038 A 
ENDBRANCH   7  28
ENDBRANCH  15   5
BRANCH  11   2
ATOM      2  O   UNL     1      -6.429 -12.061  14.304  0.00  0.00    -0.391 OA
ATOM     35  H   UNL     1      -7.243 -11.638  14.628  0.00  0.00    +0.210 HD
ENDBRANCH  11   2
BRANCH  13  19
ATOM     19  C   UNL     1      -3.547 -11.913  13.751  0.00  0.00    +0.078 C 
ATOM     21  C   UNL     1      -2.446 -12.850  14.211  0.00  0.00    +0.017 C 
BRANCH  19  22
ATOM      3  O   UNL     1      -1.981 -10.182  13.281  0.00  0.00    -0.275 OA
ATOM      6  N   UNL     1      -3.621 -10.579  11.703  0.00  0.00    -0.301 N 
ATOM     22  C   UNL     1      -2.968 -10.812  12.899  0.00  0.00    +0.219 C 
ATOM     24  C   UNL     1      -4.788 -11.291  11.192  0.00  0.00    +0.108 C 
ATOM     25  C   UNL     1      -3.190  -9.546  10.770  0.00  0.00    +0.108 C 
ATOM     26  C   UNL     1      -5.248 -10.460  10.003  0.00  0.00    +0.020 C 
ATOM     27  C   UNL     1      -3.951  -9.849   9.490  0.00  0.00    +0.020 C 
ENDBRANCH  19  22
ENDBRANCH  13  19
TORSDOF 5
ENDMDL
MODEL 9
REMARK VINA RESULT:      -6.5     25.773     28.712
REMARK  Name = 45361666
REMARK  8 active torsions:
REMARK  status: ('A' for Active; 'I' for Inactive)
REMARK    1  A    between atoms: O_2  and  C_11
REMARK    2  A    between atoms: N_5  and  C_15
REMARK    3  A    between atoms: N_7  and  C_28
REMARK    4  A    between atoms: C_8  and  C_18
REMARK    5  A    between atoms: C_10  and  C_20
REMARK    6  A    between atoms: C_13  and  C_19
REMARK    7  A    between atoms: C_19  and  C_21
REMARK    8  A    between atoms: C_19  and  C_22
REMARK                            x       y       z     vdW  Elec       q    Type
REMARK                         _______ _______ _______ _____ _____    ______ ____
ROOT
ATOM      8  C   UNL     1      13.306   4.728  -1.633  0.00  0.00    -0.027 C 
ATOM      9  C   UNL     1      14.392   4.084  -0.707  0.00  0.00    +0.028 C 
ATOM     10  C   UNL     1      13.939   4.122   0.796  0.00  0.00    +0.012 C 
ATOM     11  C   UNL     1      15.802   4.676  -0.997  0.00  0.00    +0.122 C 
ATOM     12  C   UNL     1      13.731   4.572  -3.112  0.00  0.00    +0.007 C 
ATOM     13  C   UNL     1      16.178   4.612  -2.495  0.00  0.00    +0.029 C 
ATOM     14  C   UNL     1      11.971   3.971  -1.444  0.00  0.00    +0.009 C 
ATOM     15  C   UNL     1      12.560   3.424   0.961  0.00  0.00    +0.078 C 
ATOM     16  C   UNL     1      15.093   5.186  -3.407  0.00  0.00    +0.007 C 
ATOM     17  C   UNL     1      11.494   3.952   0.001  0.00  0.00    +0.023 C 
ATOM     18  C   UNL     1      13.087   6.232  -1.333  0.00  0.00    +0.011 C 
ATOM     20  C   UNL     1      14.950   3.478   1.760  0.00  0.00    +0.010 C 
ENDROOT
BRANCH  15   5
ATOM      4  O   UNL     1      11.414   5.758   2.163  0.00  0.00    -0.253 OA
ATOM      5  N   UNL     1      12.058   3.543   2.314  0.00  0.00    -0.296 N 
ATOM      7  N   UNL     1      11.115   4.542   4.148  0.00  0.00    -0.269 N 
ATOM     23  C   UNL     1      11.513   4.725   2.822  0.00  0.00    +0.304 C 
ATOM     34  H   UNL     1      12.181   2.757   2.944  0.00  0.00    +0.151 HD
ATOM     36  H   UNL     1      11.267   3.619   4.548  0.00  0.00    +0.156 HD
BRANCH   7  28
ATOM      1  F   UNL     1      11.505   8.148   7.293  0.00  0.00    -0.205 F 
ATOM     28  C   UNL     1      10.520   5.488   5.015  0.00  0.00    +0.037 A 
ATOM     29  C   UNL     1      11.322   6.370   5.740  0.00  0.00    +0.061 A 
ATOM     30  C   UNL     1       9.133   5.539   5.146  0.00  0.00    +0.023 A 
ATOM     31  C   UNL     1      10.736   7.302   6.596  0.00  0.00    +0.125 A 
ATOM     32  C   UNL     1       8.547   6.472   6.002  0.00  0.00    +0.005 A 
ATOM     33  C   UNL     1       9.348   7.353   6.727  0.00  0.00    +0.038 A 
ENDBRANCH   7  28
ENDBRANCH  15   5
BRANCH  11   2
ATOM      2  O   UNL     1      16.790   3.919  -0.296  0.00  0.00    -0.391 OA
ATOM     35  H   UNL     1      16.355   3.470   0.448  0.00  0.00    +0.210 HD
ENDBRANCH  11   2
BRANCH  13  19
ATOM     19  C   UNL     1      17.510   5.317  -2.778  0.00  0.00    +0.078 C 
ATOM     21  C   UNL     1      17.287   6.751  -3.222  0.00  0.00    +0.017 C 
BRANCH  19  22
ATOM      3  O   UNL     1      17.877   4.618  -5.025  0.00  0.00    -0.275 OA
ATOM      6  N   UNL     1      19.313   3.791  -3.415  0.00  0.00    -0.301 N 
ATOM     22  C   UNL     1      18.242   4.550  -3.850  0.00  0.00    +0.219 C 
ATOM     24  C   UNL     1      19.798   3.672  -2.044  0.00  0.00    +0.108 C 
ATOM     25  C   UNL     1      20.118   2.988  -4.325  0.00  0.00    +0.108 C 
ATOM     26  C   UNL     1      20.791   2.520  -2.092  0.00  0.00    +0.020 C 
ATOM     27  C   UNL     1      21.341   2.602  -3.509  0.00  0.00    +0.020 C 
ENDBRANCH  19  22
ENDBRANCH  13  19
TORSDOF 5
ENDMDL
MODEL 10
REMARK VINA RESULT:      -6.5     28.727     31.992
REMARK  Name = 45361666
REMARK  8 active torsions:
REMARK  status: ('A' for Active; 'I' for Inactive)
REMARK    1  A    between atoms: O_2  and  C_11
REMARK    2  A    between atoms: N_5  and  C_15
REMARK    3  A    between atoms: N_7  and  C_28
REMARK    4  A    between atoms: C_8  and  C_18
REMARK    5  A    between atoms: C_10  and  C_20
REMARK    6  A    between atoms: C_13  and  C_19
REMARK    7  A    between atoms: C_19  and  C_21
REMARK    8  A    between atoms: C_19  and  C_22
REMARK                            x       y       z     vdW  Elec       q    Type
REMARK                         _______ _______ _______ _____ _____    ______ ____
ROOT
ATOM      8  C   UNL     1      15.472   7.220  19.349  0.00  0.00    -0.027 C 
ATOM      9  C   UNL     1      16.185   8.515  19.863  0.00  0.00    +0.028 C 
ATOM     10  C   UNL     1      17.156   8.184  21.052  0.00  0.00    +0.012 C 
ATOM     11  C   UNL     1      15.160   9.654  20.134  0.00  0.00    +0.122 C 
ATOM     12  C   UNL     1      14.613   7.562  18.109  0.00  0.00    +0.007 C 
ATOM     13  C   UNL     1      14.234   9.921  18.925  0.00  0.00    +0.029 C 
ATOM     14  C   UNL     1      16.543   6.195  18.912  0.00  0.00    +0.009 C 
ATOM     15  C   UNL     1      18.181   7.097  20.624  0.00  0.00    +0.078 C 
ATOM     16  C   UNL     1      13.581   8.649  18.381  0.00  0.00    +0.007 C 
ATOM     17  C   UNL     1      17.531   5.854  20.019  0.00  0.00    +0.023 C 
ATOM     18  C   UNL     1      14.560   6.578  20.425  0.00  0.00    +0.011 C 
ATOM     20  C   UNL     1      17.914   9.410  21.589  0.00  0.00    +0.010 C 
ENDROOT
BRANCH  15   5
ATOM      4  O   UNL     1      20.854   6.078  20.463  0.00  0.00    -0.253 OA
ATOM      5  N   UNL     1      19.018   6.684  21.732  0.00  0.00    -0.296 N 
ATOM      7  N   UNL     1      20.877   5.878  22.802  0.00  0.00    -0.269 N 
ATOM     23  C   UNL     1      20.316   6.196  21.563  0.00  0.00    +0.304 C 
ATOM     34  H   UNL     1      18.614   6.673  22.662  0.00  0.00    +0.151 HD
ATOM     36  H   UNL     1      20.295   6.037  23.621  0.00  0.00    +0.156 HD
BRANCH   7  28
ATOM      1  F   UNL     1      23.944   2.187  22.936  0.00  0.00    -0.205 F 
ATOM     28  C   UNL     1      22.166   5.359  23.065  0.00  0.00    +0.037 A 
ATOM     29  C   UNL     1      22.425   4.002  22.866  0.00  0.00    +0.061 A 
ATOM     30  C   UNL     1      23.178   6.202  23.523  0.00  0.00    +0.023 A 
ATOM     31  C   UNL     1      23.696   3.489  23.126  0.00  0.00    +0.125 A 
ATOM     32  C   UNL     1      24.450   5.689  23.782  0.00  0.00    +0.005 A 
ATOM     33  C   UNL     1      24.708   4.333  23.584  0.00  0.00    +0.038 A 
ENDBRANCH   7  28
ENDBRANCH  15   5
BRANCH  11   2
ATOM      2  O   UNL     1      15.858  10.874  20.389  0.00  0.00    -0.391 OA
ATOM     35  H   UNL     1      16.705  10.843  19.913  0.00  0.00    +0.210 HD
ENDBRANCH  11   2
BRANCH  13  19
ATOM     19  C   UNL     1      13.148  10.952  19.255  0.00  0.00    +0.078 C 
ATOM     21  C   UNL     1      13.543  12.335  18.771  0.00  0.00    +0.017 C 
BRANCH  19  22
ATOM      3  O   UNL     1      13.525  11.786  21.454  0.00  0.00    -0.275 OA
ATOM      6  N   UNL     1      12.062  10.013  21.235  0.00  0.00    -0.301 N 
ATOM     22  C   UNL     1      12.936  10.967  20.748  0.00  0.00    +0.219 C 
ATOM     24  C   UNL     1      11.330   9.020  20.455  0.00  0.00    +0.108 C 
ATOM     25  C   UNL     1      11.754   9.892  22.653  0.00  0.00    +0.108 C 
ATOM     26  C   UNL     1      10.752   8.071  21.495  0.00  0.00    +0.020 C 
ATOM     27  C   UNL     1      10.542   8.975  22.702  0.00  0.00    +0.020 C 
ENDBRANCH  19  22
ENDBRANCH  13  19
TORSDOF 5
ENDMDL
