MODEL 1
REMARK VINA RESULT:      -7.1      0.000      0.000
REMARK  Name = 75536995
REMARK  5 active torsions:
REMARK  status: ('A' for Active; 'I' for Inactive)
REMARK    1  A    between atoms: S_1  and  N_7
REMARK    2  A    between atoms: S_1  and  C_16
REMARK    3  A    between atoms: N_8  and  C_15
REMARK    4  A    between atoms: C_15  and  C_17
REMARK    5  A    between atoms: C_16  and  C_18
REMARK                            x       y       z     vdW  Elec       q    Type
REMARK                         _______ _______ _______ _____ _____    ______ ____
ROOT
ATOM      3  O   UNL     1      16.356   9.645  20.635  0.00  0.00    -0.252 OA
ATOM      6  N   UNL     1      17.754   7.807  21.069  0.00  0.00    -0.278 N 
ATOM      7  N   UNL     1      20.137   6.391  21.440  0.00  0.00    -0.178 NA
ATOM      8  N   UNL     1      16.035   7.526  19.650  0.00  0.00    -0.279 N 
ATOM      9  C   UNL     1      17.775   6.393  20.747  0.00  0.00    +0.111 C 
ATOM     10  C   UNL     1      19.185   5.955  20.364  0.00  0.00    +0.133 C 
ATOM     11  C   UNL     1      16.742   6.259  19.630  0.00  0.00    +0.133 C 
ATOM     12  C   UNL     1      18.724   8.344  22.003  0.00  0.00    +0.127 C 
ATOM     13  C   UNL     1      20.127   7.881  21.623  0.00  0.00    +0.128 C 
ATOM     14  C   UNL     1      16.674   8.474  20.475  0.00  0.00    +0.305 C 
ENDROOT
BRANCH   7   1
ATOM      1  S   UNL     1      21.692   5.675  21.372  0.00  0.00    +0.036 S 
ATOM      4  O   UNL     1      22.330   5.830  22.660  0.00  0.00    -0.158 OA
ATOM      5  O   UNL     1      22.339   6.085  20.147  0.00  0.00    -0.158 OA
BRANCH   1  16
ATOM     16  C   UNL     1      21.212   3.975  21.198  0.00  0.00    +0.220 C 
BRANCH  16  18
ATOM     18  C   UNL     1      22.357   3.128  21.659  0.00  0.00    -0.025 A 
ATOM     21  C   UNL     1      23.328   2.712  20.748  0.00  0.00    +0.005 A 
ATOM     22  C   UNL     1      22.453   2.755  22.999  0.00  0.00    +0.005 A 
ATOM     25  C   UNL     1      24.396   1.922  21.178  0.00  0.00    +0.000 A 
ATOM     26  C   UNL     1      23.520   1.967  23.430  0.00  0.00    +0.000 A 
ATOM     28  C   UNL     1      24.491   1.550  22.518  0.00  0.00    +0.000 A 
ENDBRANCH  16  18
ENDBRANCH   1  16
ENDBRANCH   7   1
BRANCH   8  15
ATOM     15  C   UNL     1      14.890   7.779  18.803  0.00  0.00    +0.144 C 
BRANCH  15  17
ATOM      2  F   UNL     1      10.047   7.481  21.657  0.00  0.00    -0.205 F 
ATOM     17  C   UNL     1      13.599   7.700  19.564  0.00  0.00    -0.030 A 
ATOM     19  C   UNL     1      12.530   8.521  19.209  0.00  0.00    +0.008 A 
ATOM     20  C   UNL     1      13.469   6.804  20.625  0.00  0.00    +0.008 A 
ATOM     23  C   UNL     1      11.330   8.448  19.917  0.00  0.00    +0.038 A 
ATOM     24  C   UNL     1      12.269   6.730  21.332  0.00  0.00    +0.038 A 
ATOM     27  C   UNL     1      11.199   7.552  20.978  0.00  0.00    +0.123 A 
ENDBRANCH  15  17
ENDBRANCH   8  15
TORSDOF 5
ENDMDL
MODEL 2
REMARK VINA RESULT:      -7.0     28.213     30.998
REMARK  Name = 75536995
REMARK  5 active torsions:
REMARK  status: ('A' for Active; 'I' for Inactive)
REMARK    1  A    between atoms: S_1  and  N_7
REMARK    2  A    between atoms: S_1  and  C_16
REMARK    3  A    between atoms: N_8  and  C_15
REMARK    4  A    between atoms: C_15  and  C_17
REMARK    5  A    between atoms: C_16  and  C_18
REMARK                            x       y       z     vdW  Elec       q    Type
REMARK                         _______ _______ _______ _____ _____    ______ ____
ROOT
ATOM      3  O   UNL     1      -3.390 -14.223  14.264  0.00  0.00    -0.252 OA
ATOM      6  N   UNL     1      -4.078 -12.717  15.931  0.00  0.00    -0.278 N 
ATOM      7  N   UNL     1      -5.832 -11.347  17.624  0.00  0.00    -0.178 NA
ATOM      8  N   UNL     1      -2.589 -12.010  14.405  0.00  0.00    -0.279 N 
ATOM      9  C   UNL     1      -3.715 -11.383  16.368  0.00  0.00    +0.111 C 
ATOM     10  C   UNL     1      -4.965 -10.566  16.679  0.00  0.00    +0.133 C 
ATOM     11  C   UNL     1      -2.871 -10.840  15.218  0.00  0.00    +0.133 C 
ATOM     12  C   UNL     1      -5.014 -13.500  16.714  0.00  0.00    +0.127 C 
ATOM     13  C   UNL     1      -6.249 -12.664  17.038  0.00  0.00    +0.128 C 
ATOM     14  C   UNL     1      -3.355 -13.124  14.801  0.00  0.00    +0.305 C 
ENDROOT
BRANCH   7   1
ATOM      1  S   UNL     1      -7.086 -10.450  18.373  0.00  0.00    +0.036 S 
ATOM      4  O   UNL     1      -7.397  -9.307  17.544  0.00  0.00    -0.158 OA
ATOM      5  O   UNL     1      -6.782 -10.312  19.779  0.00  0.00    -0.158 OA
BRANCH   1  16
ATOM     16  C   UNL     1      -8.407 -11.624  18.209  0.00  0.00    +0.220 C 
BRANCH  16  18
ATOM     18  C   UNL     1      -9.689 -10.914  18.519  0.00  0.00    -0.025 A 
ATOM     21  C   UNL     1     -10.470 -10.400  17.484  0.00  0.00    +0.005 A 
ATOM     22  C   UNL     1     -10.101 -10.767  19.843  0.00  0.00    +0.005 A 
ATOM     25  C   UNL     1     -11.664  -9.738  17.774  0.00  0.00    +0.000 A 
ATOM     26  C   UNL     1     -11.294 -10.107  20.133  0.00  0.00    +0.000 A 
ATOM     28  C   UNL     1     -12.075  -9.592  19.098  0.00  0.00    +0.000 A 
ENDBRANCH  16  18
ENDBRANCH   1  16
ENDBRANCH   7   1
BRANCH   8  15
ATOM     15  C   UNL     1      -1.717 -11.950  13.252  0.00  0.00    +0.144 C 
BRANCH  15  17
ATOM      2  F   UNL     1      -3.894  -8.803   9.123  0.00  0.00    -0.205 F 
ATOM     17  C   UNL     1      -2.297 -11.111  12.151  0.00  0.00    -0.030 A 
ATOM     19  C   UNL     1      -3.490 -11.494  11.538  0.00  0.00    +0.008 A 
ATOM     20  C   UNL     1      -1.644  -9.949  11.742  0.00  0.00    +0.008 A 
ATOM     23  C   UNL     1      -4.029 -10.715  10.514  0.00  0.00    +0.038 A 
ATOM     24  C   UNL     1      -2.183  -9.170  10.719  0.00  0.00    +0.038 A 
ATOM     27  C   UNL     1      -3.375  -9.553  10.105  0.00  0.00    +0.123 A 
ENDBRANCH  15  17
ENDBRANCH   8  15
TORSDOF 5
ENDMDL
MODEL 3
REMARK VINA RESULT:      -6.8     28.258     30.915
REMARK  Name = 75536995
REMARK  5 active torsions:
REMARK  status: ('A' for Active; 'I' for Inactive)
REMARK    1  A    between atoms: S_1  and  N_7
REMARK    2  A    between atoms: S_1  and  C_16
REMARK    3  A    between atoms: N_8  and  C_15
REMARK    4  A    between atoms: C_15  and  C_17
REMARK    5  A    between atoms: C_16  and  C_18
REMARK                            x       y       z     vdW  Elec       q    Type
REMARK                         _______ _______ _______ _____ _____    ______ ____
ROOT
ATOM      3  O   UNL     1      -3.476 -14.382  14.063  0.00  0.00    -0.252 OA
ATOM      6  N   UNL     1      -4.307 -12.941  15.723  0.00  0.00    -0.278 N 
ATOM      7  N   UNL     1      -6.200 -11.642  17.319  0.00  0.00    -0.178 NA
ATOM      8  N   UNL     1      -2.707 -12.171  14.346  0.00  0.00    -0.279 N 
ATOM      9  C   UNL     1      -3.990 -11.622  16.235  0.00  0.00    +0.111 C 
ATOM     10  C   UNL     1      -5.267 -10.823  16.474  0.00  0.00    +0.133 C 
ATOM     11  C   UNL     1      -3.062 -11.033  15.176  0.00  0.00    +0.133 C 
ATOM     12  C   UNL     1      -5.296 -13.756  16.401  0.00  0.00    +0.127 C 
ATOM     13  C   UNL     1      -6.559 -12.939  16.655  0.00  0.00    +0.128 C 
ATOM     14  C   UNL     1      -3.493 -13.303  14.641  0.00  0.00    +0.305 C 
ENDROOT
BRANCH   7   1
ATOM      1  S   UNL     1      -7.517 -10.780  17.997  0.00  0.00    +0.036 S 
ATOM      4  O   UNL     1      -7.204 -10.464  19.373  0.00  0.00    -0.158 OA
ATOM      5  O   UNL     1      -8.746 -11.445  17.629  0.00  0.00    -0.158 OA
BRANCH   1  16
ATOM     16  C   UNL     1      -7.393  -9.285  17.049  0.00  0.00    +0.220 C 
BRANCH  16  18
ATOM     18  C   UNL     1      -8.776  -8.903  16.619  0.00  0.00    -0.025 A 
ATOM     21  C   UNL     1      -9.231  -9.246  15.346  0.00  0.00    +0.005 A 
ATOM     22  C   UNL     1      -9.608  -8.203  17.492  0.00  0.00    +0.005 A 
ATOM     25  C   UNL     1     -10.519  -8.888  14.946  0.00  0.00    +0.000 A 
ATOM     26  C   UNL     1     -10.896  -7.846  17.093  0.00  0.00    +0.000 A 
ATOM     28  C   UNL     1     -11.351  -8.190  15.819  0.00  0.00    +0.000 A 
ENDBRANCH  16  18
ENDBRANCH   1  16
ENDBRANCH   7   1
BRANCH   8  15
ATOM     15  C   UNL     1      -1.747 -12.065  13.270  0.00  0.00    +0.144 C 
BRANCH  15  17
ATOM      2  F   UNL     1      -3.605  -8.763   9.105  0.00  0.00    -0.205 F 
ATOM     17  C   UNL     1      -2.242 -11.185  12.159  0.00  0.00    -0.030 A 
ATOM     19  C   UNL     1      -3.378 -11.548  11.437  0.00  0.00    +0.008 A 
ATOM     20  C   UNL     1      -1.567 -10.004  11.851  0.00  0.00    +0.008 A 
ATOM     23  C   UNL     1      -3.838 -10.731  10.404  0.00  0.00    +0.038 A 
ATOM     24  C   UNL     1      -2.027  -9.187  10.820  0.00  0.00    +0.038 A 
ATOM     27  C   UNL     1      -3.163  -9.550  10.096  0.00  0.00    +0.123 A 
ENDBRANCH  15  17
ENDBRANCH   8  15
TORSDOF 5
ENDMDL
MODEL 4
REMARK VINA RESULT:      -6.8     32.127     34.706
REMARK  Name = 75536995
REMARK  5 active torsions:
REMARK  status: ('A' for Active; 'I' for Inactive)
REMARK    1  A    between atoms: S_1  and  N_7
REMARK    2  A    between atoms: S_1  and  C_16
REMARK    3  A    between atoms: N_8  and  C_15
REMARK    4  A    between atoms: C_15  and  C_17
REMARK    5  A    between atoms: C_16  and  C_18
REMARK                            x       y       z     vdW  Elec       q    Type
REMARK                         _______ _______ _______ _____ _____    ______ ____
ROOT
ATOM      3  O   UNL     1     -16.852   7.074  23.872  0.00  0.00    -0.252 OA
ATOM      6  N   UNL     1     -17.306   5.040  24.957  0.00  0.00    -0.278 N 
ATOM      7  N   UNL     1     -17.181   3.077  26.944  0.00  0.00    -0.178 NA
ATOM      8  N   UNL     1     -16.848   4.996  22.758  0.00  0.00    -0.279 N 
ATOM      9  C   UNL     1     -17.500   3.655  24.573  0.00  0.00    +0.111 C 
ATOM     10  C   UNL     1     -16.774   2.727  25.541  0.00  0.00    +0.133 C 
ATOM     11  C   UNL     1     -16.987   3.601  23.136  0.00  0.00    +0.133 C 
ATOM     12  C   UNL     1     -17.550   5.446  26.327  0.00  0.00    +0.127 C 
ATOM     13  C   UNL     1     -16.838   4.497  27.287  0.00  0.00    +0.128 C 
ATOM     14  C   UNL     1     -16.989   5.858  23.864  0.00  0.00    +0.305 C 
ENDROOT
BRANCH   7   1
ATOM      1  S   UNL     1     -16.764   1.917  28.135  0.00  0.00    +0.036 S 
ATOM      4  O   UNL     1     -16.386   0.688  27.473  0.00  0.00    -0.158 OA
ATOM      5  O   UNL     1     -17.763   1.944  29.179  0.00  0.00    -0.158 OA
BRANCH   1  16
ATOM     16  C   UNL     1     -15.290   2.678  28.765  0.00  0.00    +0.220 C 
BRANCH  16  18
ATOM     18  C   UNL     1     -15.133   2.256  30.192  0.00  0.00    -0.025 A 
ATOM     21  C   UNL     1     -15.212   3.202  31.213  0.00  0.00    +0.005 A 
ATOM     22  C   UNL     1     -14.907   0.915  30.501  0.00  0.00    +0.005 A 
ATOM     25  C   UNL     1     -15.066   2.808  32.544  0.00  0.00    +0.000 A 
ATOM     26  C   UNL     1     -14.761   0.520  31.831  0.00  0.00    +0.000 A 
ATOM     28  C   UNL     1     -14.841   1.467  32.852  0.00  0.00    +0.000 A 
ENDBRANCH  16  18
ENDBRANCH   1  16
ENDBRANCH   7   1
BRANCH   8  15
ATOM     15  C   UNL     1     -16.478   5.394  21.417  0.00  0.00    +0.144 C 
BRANCH  15  17
ATOM      2  F   UNL     1     -11.082   6.969  21.101  0.00  0.00    -0.205 F 
ATOM     17  C   UNL     1     -15.039   5.814  21.333  0.00  0.00    -0.030 A 
ATOM     19  C   UNL     1     -14.685   6.938  20.587  0.00  0.00    +0.008 A 
ATOM     20  C   UNL     1     -14.058   5.080  22.000  0.00  0.00    +0.008 A 
ATOM     23  C   UNL     1     -13.348   7.328  20.508  0.00  0.00    +0.038 A 
ATOM     24  C   UNL     1     -12.722   5.470  21.921  0.00  0.00    +0.038 A 
ATOM     27  C   UNL     1     -12.366   6.594  21.175  0.00  0.00    +0.123 A 
ENDBRANCH  15  17
ENDBRANCH   8  15
TORSDOF 5
ENDMDL
MODEL 5
REMARK VINA RESULT:      -6.7     29.286     32.039
REMARK  Name = 75536995
REMARK  5 active torsions:
REMARK  status: ('A' for Active; 'I' for Inactive)
REMARK    1  A    between atoms: S_1  and  N_7
REMARK    2  A    between atoms: S_1  and  C_16
REMARK    3  A    between atoms: N_8  and  C_15
REMARK    4  A    between atoms: C_15  and  C_17
REMARK    5  A    between atoms: C_16  and  C_18
REMARK                            x       y       z     vdW  Elec       q    Type
REMARK                         _______ _______ _______ _____ _____    ______ ____
ROOT
ATOM      3  O   UNL     1     -11.959  -7.027   6.711  0.00  0.00    -0.252 OA
ATOM      6  N   UNL     1      -9.674  -7.315   7.179  0.00  0.00    -0.278 N 
ATOM      7  N   UNL     1      -7.317  -8.650   7.871  0.00  0.00    -0.178 NA
ATOM      8  N   UNL     1     -10.732  -5.550   8.081  0.00  0.00    -0.279 N 
ATOM      9  C   UNL     1      -8.628  -6.567   7.849  0.00  0.00    +0.111 C 
ATOM     10  C   UNL     1      -7.780  -7.495   8.712  0.00  0.00    +0.133 C 
ATOM     11  C   UNL     1      -9.388  -5.495   8.626  0.00  0.00    +0.133 C 
ATOM     12  C   UNL     1      -9.338  -8.521   6.447  0.00  0.00    +0.127 C 
ATOM     13  C   UNL     1      -8.471  -9.430   7.312  0.00  0.00    +0.128 C 
ATOM     14  C   UNL     1     -10.919  -6.674   7.251  0.00  0.00    +0.305 C 
ENDROOT
BRANCH   7   1
ATOM      1  S   UNL     1      -6.061  -9.594   8.555  0.00  0.00    +0.036 S 
ATOM      4  O   UNL     1      -5.022  -9.771   7.565  0.00  0.00    -0.158 OA
ATOM      5  O   UNL     1      -6.649 -10.715   9.251  0.00  0.00    -0.158 OA
BRANCH   1  16
ATOM     16  C   UNL     1      -5.472  -8.441   9.769  0.00  0.00    +0.220 C 
BRANCH  16  18
ATOM     18  C   UNL     1      -4.478  -9.155  10.632  0.00  0.00    -0.025 A 
ATOM     21  C   UNL     1      -3.135  -9.201  10.260  0.00  0.00    +0.005 A 
ATOM     22  C   UNL     1      -4.897  -9.774  11.810  0.00  0.00    +0.005 A 
ATOM     25  C   UNL     1      -2.210  -9.867  11.064  0.00  0.00    +0.000 A 
ATOM     26  C   UNL     1      -3.973 -10.439  12.615  0.00  0.00    +0.000 A 
ATOM     28  C   UNL     1      -2.629 -10.485  12.241  0.00  0.00    +0.000 A 
ENDBRANCH  16  18
ENDBRANCH   1  16
ENDBRANCH   7   1
BRANCH   8  15
ATOM     15  C   UNL     1     -11.760  -4.613   8.478  0.00  0.00    +0.144 C 
BRANCH  15  17
ATOM      2  F   UNL     1     -12.630  -4.672  14.040  0.00  0.00    -0.205 F 
ATOM     17  C   UNL     1     -11.992  -4.629   9.961  0.00  0.00    -0.030 A 
ATOM     19  C   UNL     1     -12.302  -5.827  10.605  0.00  0.00    +0.008 A 
ATOM     20  C   UNL     1     -11.898  -3.446  10.694  0.00  0.00    +0.008 A 
ATOM     23  C   UNL     1     -12.518  -5.841  11.983  0.00  0.00    +0.038 A 
ATOM     24  C   UNL     1     -12.114  -3.461  12.072  0.00  0.00    +0.038 A 
ATOM     27  C   UNL     1     -12.424  -4.658  12.716  0.00  0.00    +0.123 A 
ENDBRANCH  15  17
ENDBRANCH   8  15
TORSDOF 5
ENDMDL
MODEL 6
REMARK VINA RESULT:      -6.4     30.177     32.414
REMARK  Name = 75536995
REMARK  5 active torsions:
REMARK  status: ('A' for Active; 'I' for Inactive)
REMARK    1  A    between atoms: S_1  and  N_7
REMARK    2  A    between atoms: S_1  and  C_16
REMARK    3  A    between atoms: N_8  and  C_15
REMARK    4  A    between atoms: C_15  and  C_17
REMARK    5  A    between atoms: C_16  and  C_18
REMARK                            x       y       z     vdW  Elec       q    Type
REMARK                         _______ _______ _______ _____ _____    ______ ____
ROOT
ATOM      3  O   UNL     1     -13.381  -7.919  12.934  0.00  0.00    -0.252 OA
ATOM      6  N   UNL     1     -11.474  -8.207  14.276  0.00  0.00    -0.278 N 
ATOM      7  N   UNL     1      -9.735  -9.451  16.078  0.00  0.00    -0.178 NA
ATOM      8  N   UNL     1     -12.504  -6.211  14.302  0.00  0.00    -0.279 N 
ATOM      9  C   UNL     1     -10.629  -7.373  15.108  0.00  0.00    +0.111 C 
ATOM     10  C   UNL     1     -10.284  -8.093  16.407  0.00  0.00    +0.133 C 
ATOM     11  C   UNL     1     -11.443  -6.094  15.286  0.00  0.00    +0.133 C 
ATOM     12  C   UNL     1     -11.088  -9.579  14.009  0.00  0.00    +0.127 C 
ATOM     13  C   UNL     1     -10.724 -10.282  15.313  0.00  0.00    +0.128 C 
ATOM     14  C   UNL     1     -12.555  -7.499  13.733  0.00  0.00    +0.305 C 
ENDROOT
BRANCH   7   1
ATOM      1  S   UNL     1      -8.953 -10.256  17.374  0.00  0.00    +0.036 S 
ATOM      4  O   UNL     1      -8.612 -11.595  16.949  0.00  0.00    -0.158 OA
ATOM      5  O   UNL     1      -9.695 -10.007  18.589  0.00  0.00    -0.158 OA
BRANCH   1  16
ATOM     16  C   UNL     1      -7.458  -9.302  17.437  0.00  0.00    +0.220 C 
BRANCH  16  18
ATOM     18  C   UNL     1      -6.378 -10.182  17.985  0.00  0.00    -0.025 A 
ATOM     21  C   UNL     1      -5.324 -10.586  17.166  0.00  0.00    +0.005 A 
ATOM     22  C   UNL     1      -6.426 -10.597  19.315  0.00  0.00    +0.005 A 
ATOM     25  C   UNL     1      -4.318 -11.407  17.678  0.00  0.00    +0.000 A 
ATOM     26  C   UNL     1      -5.421 -11.416  19.828  0.00  0.00    +0.000 A 
ATOM     28  C   UNL     1      -4.367 -11.821  19.008  0.00  0.00    +0.000 A 
ENDBRANCH  16  18
ENDBRANCH   1  16
ENDBRANCH   7   1
BRANCH   8  15
ATOM     15  C   UNL     1     -13.453  -5.145  14.068  0.00  0.00    +0.144 C 
BRANCH  15  17
ATOM      2  F   UNL     1     -13.013  -3.038   8.866  0.00  0.00    -0.205 F 
ATOM     17  C   UNL     1     -13.336  -4.583  12.681  0.00  0.00    -0.030 A 
ATOM     19  C   UNL     1     -14.448  -4.567  11.840  0.00  0.00    +0.008 A 
ATOM     20  C   UNL     1     -12.115  -4.077  12.234  0.00  0.00    +0.008 A 
ATOM     23  C   UNL     1     -14.339  -4.046  10.550  0.00  0.00    +0.038 A 
ATOM     24  C   UNL     1     -12.006  -3.555  10.946  0.00  0.00    +0.038 A 
ATOM     27  C   UNL     1     -13.118  -3.540  10.103  0.00  0.00    +0.123 A 
ENDBRANCH  15  17
ENDBRANCH   8  15
TORSDOF 5
ENDMDL
MODEL 7
REMARK VINA RESULT:      -6.4     28.684     30.918
REMARK  Name = 75536995
REMARK  5 active torsions:
REMARK  status: ('A' for Active; 'I' for Inactive)
REMARK    1  A    between atoms: S_1  and  N_7
REMARK    2  A    between atoms: S_1  and  C_16
REMARK    3  A    between atoms: N_8  and  C_15
REMARK    4  A    between atoms: C_15  and  C_17
REMARK    5  A    between atoms: C_16  and  C_18
REMARK                            x       y       z     vdW  Elec       q    Type
REMARK                         _______ _______ _______ _____ _____    ______ ____
ROOT
ATOM      3  O   UNL     1      -6.518 -11.402  20.187  0.00  0.00    -0.252 OA
ATOM      6  N   UNL     1      -5.416 -12.177  18.262  0.00  0.00    -0.278 N 
ATOM      7  N   UNL     1      -3.904 -12.057  15.914  0.00  0.00    -0.178 NA
ATOM      8  N   UNL     1      -7.482 -12.950  18.692  0.00  0.00    -0.279 N 
ATOM      9  C   UNL     1      -5.652 -13.175  17.237  0.00  0.00    +0.111 C 
ATOM     10  C   UNL     1      -5.295 -12.620  15.862  0.00  0.00    +0.133 C 
ATOM     11  C   UNL     1      -7.125 -13.536  17.413  0.00  0.00    +0.133 C 
ATOM     12  C   UNL     1      -4.144 -11.484  18.310  0.00  0.00    +0.127 C 
ATOM     13  C   UNL     1      -3.786 -10.954  16.925  0.00  0.00    +0.128 C 
ATOM     14  C   UNL     1      -6.475 -12.091  19.177  0.00  0.00    +0.305 C 
ENDROOT
BRANCH   7   1
ATOM      1  S   UNL     1      -3.194 -11.727  14.389  0.00  0.00    +0.036 S 
ATOM      4  O   UNL     1      -2.323 -12.826  14.037  0.00  0.00    -0.158 OA
ATOM      5  O   UNL     1      -2.734 -10.357  14.378  0.00  0.00    -0.158 OA
BRANCH   1  16
ATOM     16  C   UNL     1      -4.646 -11.829  13.374  0.00  0.00    +0.220 C 
BRANCH  16  18
ATOM     18  C   UNL     1      -4.519 -10.802  12.292  0.00  0.00    -0.025 A 
ATOM     21  C   UNL     1      -3.482 -10.889  11.364  0.00  0.00    +0.005 A 
ATOM     22  C   UNL     1      -5.439  -9.756  12.213  0.00  0.00    +0.005 A 
ATOM     25  C   UNL     1      -3.364  -9.931  10.356  0.00  0.00    +0.000 A 
ATOM     26  C   UNL     1      -5.322  -8.799  11.206  0.00  0.00    +0.000 A 
ATOM     28  C   UNL     1      -4.284  -8.887  10.278  0.00  0.00    +0.000 A 
ENDBRANCH  16  18
ENDBRANCH   1  16
ENDBRANCH   7   1
BRANCH   8  15
ATOM     15  C   UNL     1      -8.783 -13.149  19.291  0.00  0.00    +0.144 C 
BRANCH  15  17
ATOM      2  F   UNL     1     -12.288  -8.883  18.188  0.00  0.00    -0.205 F 
ATOM     17  C   UNL     1      -9.718 -12.012  18.997  0.00  0.00    -0.030 A 
ATOM     19  C   UNL     1     -10.255 -11.865  17.719  0.00  0.00    +0.008 A 
ATOM     20  C   UNL     1     -10.048 -11.102  20.002  0.00  0.00    +0.008 A 
ATOM     23  C   UNL     1     -11.123 -10.808  17.445  0.00  0.00    +0.038 A 
ATOM     24  C   UNL     1     -10.916 -10.046  19.728  0.00  0.00    +0.038 A 
ATOM     27  C   UNL     1     -11.453  -9.898  18.450  0.00  0.00    +0.123 A 
ENDBRANCH  15  17
ENDBRANCH   8  15
TORSDOF 5
ENDMDL
MODEL 8
REMARK VINA RESULT:      -6.3     30.273     33.564
REMARK  Name = 75536995
REMARK  5 active torsions:
REMARK  status: ('A' for Active; 'I' for Inactive)
REMARK    1  A    between atoms: S_1  and  N_7
REMARK    2  A    between atoms: S_1  and  C_16
REMARK    3  A    between atoms: N_8  and  C_15
REMARK    4  A    between atoms: C_15  and  C_17
REMARK    5  A    between atoms: C_16  and  C_18
REMARK                            x       y       z     vdW  Elec       q    Type
REMARK                         _______ _______ _______ _____ _____    ______ ____
ROOT
ATOM      3  O   UNL     1     -18.346   5.179  24.514  0.00  0.00    -0.252 OA
ATOM      6  N   UNL     1     -16.397   6.182  23.666  0.00  0.00    -0.278 N 
ATOM      7  N   UNL     1     -14.815   7.778  22.003  0.00  0.00    -0.178 NA
ATOM      8  N   UNL     1     -16.340   3.991  24.158  0.00  0.00    -0.279 N 
ATOM      9  C   UNL     1     -15.017   5.796  23.448  0.00  0.00    +0.111 C 
ATOM     10  C   UNL     1     -14.529   6.307  22.097  0.00  0.00    +0.133 C 
ATOM     11  C   UNL     1     -15.039   4.275  23.582  0.00  0.00    +0.133 C 
ATOM     12  C   UNL     1     -16.796   7.563  23.473  0.00  0.00    +0.127 C 
ATOM     13  C   UNL     1     -16.282   8.070  22.128  0.00  0.00    +0.128 C 
ATOM     14  C   UNL     1     -17.175   5.126  24.161  0.00  0.00    +0.305 C 
ENDROOT
BRANCH   7   1
ATOM      1  S   UNL     1     -14.015   8.598  20.728  0.00  0.00    +0.036 S 
ATOM      4  O   UNL     1     -13.940  10.004  21.056  0.00  0.00    -0.158 OA
ATOM      5  O   UNL     1     -14.554   8.136  19.469  0.00  0.00    -0.158 OA
BRANCH   1  16
ATOM     16  C   UNL     1     -12.393   7.902  20.920  0.00  0.00    +0.220 C 
BRANCH  16  18
ATOM     18  C   UNL     1     -11.574   8.321  19.739  0.00  0.00    -0.025 A 
ATOM     21  C   UNL     1     -11.471   7.485  18.628  0.00  0.00    +0.005 A 
ATOM     22  C   UNL     1     -10.914   9.549  19.751  0.00  0.00    +0.005 A 
ATOM     25  C   UNL     1     -10.707   7.877  17.528  0.00  0.00    +0.000 A 
ATOM     26  C   UNL     1     -10.151   9.942  18.652  0.00  0.00    +0.000 A 
ATOM     28  C   UNL     1     -10.048   9.105  17.540  0.00  0.00    +0.000 A 
ENDBRANCH  16  18
ENDBRANCH   1  16
ENDBRANCH   7   1
BRANCH   8  15
ATOM     15  C   UNL     1     -16.731   2.654  24.547  0.00  0.00    +0.144 C 
BRANCH  15  17
ATOM      2  F   UNL     1     -16.087   1.790  30.073  0.00  0.00    -0.205 F 
ATOM     17  C   UNL     1     -16.559   2.423  26.020  0.00  0.00    -0.030 A 
ATOM     19  C   UNL     1     -16.139   3.467  26.844  0.00  0.00    +0.008 A 
ATOM     20  C   UNL     1     -16.820   1.166  26.565  0.00  0.00    +0.008 A 
ATOM     23  C   UNL     1     -15.979   3.253  28.213  0.00  0.00    +0.038 A 
ATOM     24  C   UNL     1     -16.660   0.952  27.933  0.00  0.00    +0.038 A 
ATOM     27  C   UNL     1     -16.239   1.995  28.757  0.00  0.00    +0.123 A 
ENDBRANCH  15  17
ENDBRANCH   8  15
TORSDOF 5
ENDMDL
MODEL 9
REMARK VINA RESULT:      -6.2     28.101     30.683
REMARK  Name = 75536995
REMARK  5 active torsions:
REMARK  status: ('A' for Active; 'I' for Inactive)
REMARK    1  A    between atoms: S_1  and  N_7
REMARK    2  A    between atoms: S_1  and  C_16
REMARK    3  A    between atoms: N_8  and  C_15
REMARK    4  A    between atoms: C_15  and  C_17
REMARK    5  A    between atoms: C_16  and  C_18
REMARK                            x       y       z     vdW  Elec       q    Type
REMARK                         _______ _______ _______ _____ _____    ______ ____
ROOT
ATOM      3  O   UNL     1      -1.175 -11.229  15.026  0.00  0.00    -0.252 OA
ATOM      6  N   UNL     1      -2.907 -11.029  13.451  0.00  0.00    -0.278 N 
ATOM      7  N   UNL     1      -4.238 -10.138  11.159  0.00  0.00    -0.178 NA
ATOM      8  N   UNL     1      -3.436 -10.949  15.633  0.00  0.00    -0.279 N 
ATOM      9  C   UNL     1      -4.356 -10.970  13.472  0.00  0.00    +0.111 C 
ATOM     10  C   UNL     1      -4.860  -9.904  12.506  0.00  0.00    +0.133 C 
ATOM     11  C   UNL     1      -4.688 -10.707  14.939  0.00  0.00    +0.133 C 
ATOM     12  C   UNL     1      -2.211 -11.124  12.183  0.00  0.00    +0.127 C 
ATOM     13  C   UNL     1      -2.739 -10.068  11.217  0.00  0.00    +0.128 C 
ATOM     14  C   UNL     1      -2.356 -11.090  14.739  0.00  0.00    +0.305 C 
ENDROOT
BRANCH   7   1
ATOM      1  S   UNL     1      -4.959  -9.278   9.863  0.00  0.00    +0.036 S 
ATOM      4  O   UNL     1      -3.934  -8.948   8.899  0.00  0.00    -0.158 OA
ATOM      5  O   UNL     1      -5.843  -8.274  10.408  0.00  0.00    -0.158 OA
BRANCH   1  16
ATOM     16  C   UNL     1      -5.956 -10.579   9.183  0.00  0.00    +0.220 C 
BRANCH  16  18
ATOM     18  C   UNL     1      -6.278 -10.213   7.767  0.00  0.00    -0.025 A 
ATOM     21  C   UNL     1      -7.142  -9.151   7.499  0.00  0.00    +0.005 A 
ATOM     22  C   UNL     1      -5.714 -10.935   6.716  0.00  0.00    +0.005 A 
ATOM     25  C   UNL     1      -7.442  -8.812   6.180  0.00  0.00    +0.000 A 
ATOM     26  C   UNL     1      -6.013 -10.596   5.396  0.00  0.00    +0.000 A 
ATOM     28  C   UNL     1      -6.877  -9.533   5.129  0.00  0.00    +0.000 A 
ENDBRANCH  16  18
ENDBRANCH   1  16
ENDBRANCH   7   1
BRANCH   8  15
ATOM     15  C   UNL     1      -3.339 -10.907  17.076  0.00  0.00    +0.144 C 
BRANCH  15  17
ATOM      2  F   UNL     1      -7.987 -12.889  19.559  0.00  0.00    -0.205 F 
ATOM     17  C   UNL     1      -4.579 -11.436  17.738  0.00  0.00    -0.030 A 
ATOM     19  C   UNL     1      -5.022 -12.727  17.456  0.00  0.00    +0.008 A 
ATOM     20  C   UNL     1      -5.286 -10.635  18.635  0.00  0.00    +0.008 A 
ATOM     23  C   UNL     1      -6.174 -13.218  18.070  0.00  0.00    +0.038 A 
ATOM     24  C   UNL     1      -6.437 -11.126  19.249  0.00  0.00    +0.038 A 
ATOM     27  C   UNL     1      -6.882 -12.418  18.967  0.00  0.00    +0.123 A 
ENDBRANCH  15  17
ENDBRANCH   8  15
TORSDOF 5
ENDMDL
MODEL 10
REMARK VINA RESULT:      -6.2     31.614     34.075
REMARK  Name = 75536995
REMARK  5 active torsions:
REMARK  status: ('A' for Active; 'I' for Inactive)
REMARK    1  A    between atoms: S_1  and  N_7
REMARK    2  A    between atoms: S_1  and  C_16
REMARK    3  A    between atoms: N_8  and  C_15
REMARK    4  A    between atoms: C_15  and  C_17
REMARK    5  A    between atoms: C_16  and  C_18
REMARK                            x       y       z     vdW  Elec       q    Type
REMARK                         _______ _______ _______ _____ _____    ______ ____
ROOT
ATOM      3  O   UNL     1     -12.788  11.032  32.696  0.00  0.00    -0.252 OA
ATOM      6  N   UNL     1     -14.113   9.100  32.870  0.00  0.00    -0.278 N 
ATOM      7  N   UNL     1     -14.741   6.422  33.374  0.00  0.00    -0.178 NA
ATOM      8  N   UNL     1     -14.339  10.387  31.042  0.00  0.00    -0.279 N 
ATOM      9  C   UNL     1     -15.206   8.496  32.132  0.00  0.00    +0.111 C 
ATOM     10  C   UNL     1     -14.996   6.990  32.008  0.00  0.00    +0.133 C 
ATOM     11  C   UNL     1     -15.209   9.249  30.804  0.00  0.00    +0.133 C 
ATOM     12  C   UNL     1     -13.710   8.538  34.143  0.00  0.00    +0.127 C 
ATOM     13  C   UNL     1     -13.525   7.029  34.012  0.00  0.00    +0.128 C 
ATOM     14  C   UNL     1     -13.641  10.271  32.261  0.00  0.00    +0.305 C 
ENDROOT
BRANCH   7   1
ATOM      1  S   UNL     1     -14.850   4.716  33.487  0.00  0.00    +0.036 S 
ATOM      4  O   UNL     1     -16.165   4.305  33.048  0.00  0.00    -0.158 OA
ATOM      5  O   UNL     1     -14.307   4.299  34.760  0.00  0.00    -0.158 OA
BRANCH   1  16
ATOM     16  C   UNL     1     -13.686   4.275  32.222  0.00  0.00    +0.220 C 
BRANCH  16  18
ATOM     18  C   UNL     1     -14.231   3.085  31.495  0.00  0.00    -0.025 A 
ATOM     21  C   UNL     1     -14.256   1.838  32.117  0.00  0.00    +0.005 A 
ATOM     22  C   UNL     1     -14.715   3.225  30.194  0.00  0.00    +0.005 A 
ATOM     25  C   UNL     1     -14.764   0.729  31.439  0.00  0.00    +0.000 A 
ATOM     26  C   UNL     1     -15.224   2.118  29.516  0.00  0.00    +0.000 A 
ATOM     28  C   UNL     1     -15.248   0.870  30.139  0.00  0.00    +0.000 A 
ENDBRANCH  16  18
ENDBRANCH   1  16
ENDBRANCH   7   1
BRANCH   8  15
ATOM     15  C   UNL     1     -14.147  11.425  30.053  0.00  0.00    +0.144 C 
BRANCH  15  17
ATOM      2  F   UNL     1     -10.397   9.928  26.129  0.00  0.00    -0.205 F 
ATOM     17  C   UNL     1     -13.147  11.025  29.007  0.00  0.00    -0.030 A 
ATOM     19  C   UNL     1     -13.581  10.642  27.738  0.00  0.00    +0.008 A 
ATOM     20  C   UNL     1     -11.784  11.038  29.303  0.00  0.00    +0.008 A 
ATOM     23  C   UNL     1     -12.652  10.271  26.766  0.00  0.00    +0.038 A 
ATOM     24  C   UNL     1     -10.855  10.667  28.332  0.00  0.00    +0.038 A 
ATOM     27  C   UNL     1     -11.289  10.283  27.063  0.00  0.00    +0.123 A 
ENDBRANCH  15  17
ENDBRANCH   8  15
TORSDOF 5
ENDMDL
