MODEL 1
REMARK VINA RESULT:      -6.3      0.000      0.000
REMARK  Name = 11912850
REMARK  7 active torsions:
REMARK  status: ('A' for Active; 'I' for Inactive)
REMARK    1  A    between atoms: O_5  and  C_28
REMARK    2  A    between atoms: O_5  and  C_31
REMARK    3  A    between atoms: N_8  and  C_16
REMARK    4  A    between atoms: N_10  and  C_25
REMARK    5  A    between atoms: N_11  and  C_24
REMARK    6  A    between atoms: C_12  and  C_17
REMARK    7  A    between atoms: C_23  and  C_24
REMARK                            x       y       z     vdW  Elec       q    Type
REMARK                         _______ _______ _______ _____ _____    ______ ____
ROOT
ATOM      3  O   UNL     1      -8.720 -10.968  14.550  0.00  0.00    -0.252 OA
ATOM      4  O   UNL     1      -7.659 -10.549   7.912  0.00  0.00    -0.274 OA
ATOM      6  N   UNL     1      -7.425 -10.190  12.792  0.00  0.00    -0.271 N 
ATOM      7  N   UNL     1      -7.261  -9.615  10.000  0.00  0.00    -0.297 N 
ATOM     10  N   UNL     1      -6.903  -9.604  15.025  0.00  0.00    -0.269 N 
ATOM     12  C   UNL     1      -6.218  -9.528  12.257  0.00  0.00    +0.181 C 
ATOM     13  C   UNL     1      -6.454  -8.812  10.923  0.00  0.00    +0.139 C 
ATOM     14  C   UNL     1      -8.259 -10.909  11.817  0.00  0.00    +0.129 C 
ATOM     15  C   UNL     1      -8.521 -10.083  10.567  0.00  0.00    +0.127 C 
ATOM     22  C   UNL     1      -7.759 -10.296  14.166  0.00  0.00    +0.307 C 
ATOM     23  C   UNL     1      -6.938  -9.904   8.676  0.00  0.00    +0.229 C 
ATOM     34  H   UNL     1      -6.439  -8.774  14.675  0.00  0.00    +0.156 HD
ENDROOT
BRANCH  10  25
ATOM     25  C   UNL     1      -6.575  -9.934  16.363  0.00  0.00    +0.038 A 
ATOM     26  C   UNL     1      -5.332 -10.493  16.659  0.00  0.00    +0.069 A 
ATOM     27  C   UNL     1      -7.495  -9.701  17.385  0.00  0.00    +0.023 A 
ATOM     28  C   UNL     1      -5.009 -10.818  17.977  0.00  0.00    +0.122 A 
ATOM     29  C   UNL     1      -7.173 -10.026  18.703  0.00  0.00    +0.005 A 
ATOM     30  C   UNL     1      -5.930 -10.585  18.999  0.00  0.00    +0.046 A 
BRANCH  28   5
ATOM      5  O   UNL     1      -3.796 -11.363  18.265  0.00  0.00    -0.495 OA
ATOM     31  C   UNL     1      -3.723 -12.221  19.402  0.00  0.00    +0.277 C 
ENDBRANCH  28   5
ENDBRANCH  10  25
BRANCH  12  17
ATOM      1  O   UNL     1      -5.257 -11.493  11.296  0.00  0.00    -0.274 OA
ATOM      8  N   UNL     1      -4.149 -10.439  13.050  0.00  0.00    -0.302 N 
ATOM     17  C   UNL     1      -5.168 -10.594  12.128  0.00  0.00    +0.236 C 
ATOM     32  H   UNL     1      -4.201  -9.680  13.723  0.00  0.00    +0.150 HD
BRANCH   8  16
ATOM      2  O   UNL     1      -4.234 -13.001  14.402  0.00  0.00    -0.274 OA
ATOM      9  N   UNL     1      -2.559 -11.918  15.512  0.00  0.00    -0.314 N 
ATOM     16  C   UNL     1      -3.030 -11.345  13.150  0.00  0.00    +0.159 C 
ATOM     18  C   UNL     1      -1.696 -10.607  13.148  0.00  0.00    +0.033 C 
ATOM     19  C   UNL     1      -1.413  -9.979  14.503  0.00  0.00    +0.021 C 
ATOM     20  C   UNL     1      -1.382 -11.072  15.553  0.00  0.00    +0.104 C 
ATOM     21  C   UNL     1      -3.306 -12.190  14.386  0.00  0.00    +0.233 C 
ATOM     33  H   UNL     1      -2.772 -12.453  16.348  0.00  0.00    +0.149 HD
ENDBRANCH   8  16
ENDBRANCH  12  17
BRANCH  23  24
ATOM     24  C   UNL     1      -5.613  -9.383   8.176  0.00  0.00    +0.174 C 
BRANCH  24  11
ATOM     11  N   UNL     1      -4.657 -10.449   8.377  0.00  0.00    -0.322 NA
ATOM     35  H   UNL     1      -5.014 -11.308   7.960  0.00  0.00    +0.119 HD
ATOM     36  H   UNL     1      -3.791 -10.236   7.883  0.00  0.00    +0.119 HD
ENDBRANCH  24  11
ENDBRANCH  23  24
TORSDOF 6
ENDMDL
MODEL 2
REMARK VINA RESULT:      -6.3     27.016     29.992
REMARK  Name = 11912850
REMARK  7 active torsions:
REMARK  status: ('A' for Active; 'I' for Inactive)
REMARK    1  A    between atoms: O_5  and  C_28
REMARK    2  A    between atoms: O_5  and  C_31
REMARK    3  A    between atoms: N_8  and  C_16
REMARK    4  A    between atoms: N_10  and  C_25
REMARK    5  A    between atoms: N_11  and  C_24
REMARK    6  A    between atoms: C_12  and  C_17
REMARK    7  A    between atoms: C_23  and  C_24
REMARK                            x       y       z     vdW  Elec       q    Type
REMARK                         _______ _______ _______ _____ _____    ______ ____
ROOT
ATOM      3  O   UNL     1      15.791  11.698  20.344  0.00  0.00    -0.252 OA
ATOM      4  O   UNL     1      13.318  13.247  26.415  0.00  0.00    -0.274 OA
ATOM      6  N   UNL     1      13.969  12.267  21.659  0.00  0.00    -0.271 N 
ATOM      7  N   UNL     1      13.034  13.385  24.114  0.00  0.00    -0.297 N 
ATOM     10  N   UNL     1      13.734  12.013  19.317  0.00  0.00    -0.269 N 
ATOM     12  C   UNL     1      12.520  12.470  21.858  0.00  0.00    +0.181 C 
ATOM     13  C   UNL     1      12.191  13.521  22.923  0.00  0.00    +0.139 C 
ATOM     14  C   UNL     1      14.794  12.227  22.876  0.00  0.00    +0.129 C 
ATOM     15  C   UNL     1      14.465  13.365  23.830  0.00  0.00    +0.127 C 
ATOM     22  C   UNL     1      14.592  11.978  20.418  0.00  0.00    +0.307 C 
ATOM     23  C   UNL     1      12.580  13.321  25.429  0.00  0.00    +0.229 C 
ATOM     34  H   UNL     1      12.930  12.629  19.354  0.00  0.00    +0.156 HD
ENDROOT
BRANCH  10  25
ATOM     25  C   UNL     1      13.836  11.259  18.122  0.00  0.00    +0.038 A 
ATOM     26  C   UNL     1      12.936  10.222  17.874  0.00  0.00    +0.069 A 
ATOM     27  C   UNL     1      14.835  11.553  17.195  0.00  0.00    +0.023 A 
ATOM     28  C   UNL     1      13.036   9.479  16.697  0.00  0.00    +0.122 A 
ATOM     29  C   UNL     1      14.935  10.810  16.018  0.00  0.00    +0.005 A 
ATOM     30  C   UNL     1      14.036   9.773  15.769  0.00  0.00    +0.046 A 
BRANCH  28   5
ATOM      5  O   UNL     1      12.159   8.467  16.454  0.00  0.00    -0.495 OA
ATOM     31  C   UNL     1      10.803   8.830  16.200  0.00  0.00    +0.277 C 
ENDBRANCH  28   5
ENDBRANCH  10  25
BRANCH  12  17
ATOM      1  O   UNL     1      10.904  11.022  22.858  0.00  0.00    -0.274 OA
ATOM      8  N   UNL     1      12.733  10.085  21.765  0.00  0.00    -0.302 N 
ATOM     17  C   UNL     1      11.946  11.130  22.217  0.00  0.00    +0.236 C 
ATOM     32  H   UNL     1      13.602  10.293  21.282  0.00  0.00    +0.150 HD
BRANCH   8  16
ATOM      2  O   UNL     1      14.698   8.022  22.301  0.00  0.00    -0.274 OA
ATOM      9  N   UNL     1      13.647   7.225  20.438  0.00  0.00    -0.314 N 
ATOM     16  C   UNL     1      12.414   8.698  22.001  0.00  0.00    +0.159 C 
ATOM     18  C   UNL     1      11.145   8.272  21.272  0.00  0.00    +0.033 C 
ATOM     19  C   UNL     1      11.411   8.045  19.792  0.00  0.00    +0.021 C 
ATOM     20  C   UNL     1      12.463   6.963  19.643  0.00  0.00    +0.104 C 
ATOM     21  C   UNL     1      13.672   7.927  21.624  0.00  0.00    +0.233 C 
ATOM     33  H   UNL     1      14.500   6.746  20.167  0.00  0.00    +0.149 HD
ENDBRANCH   8  16
ENDBRANCH  12  17
BRANCH  23  24
ATOM     24  C   UNL     1      11.084  13.344  25.629  0.00  0.00    +0.174 C 
BRANCH  24  11
ATOM     11  N   UNL     1      10.672  11.963  25.758  0.00  0.00    -0.322 NA
ATOM     35  H   UNL     1      11.459  11.403  26.083  0.00  0.00    +0.119 HD
ATOM     36  H   UNL     1       9.954  11.882  26.477  0.00  0.00    +0.119 HD
ENDBRANCH  24  11
ENDBRANCH  23  24
TORSDOF 6
ENDMDL
MODEL 3
REMARK VINA RESULT:      -6.2     24.723     26.847
REMARK  Name = 11912850
REMARK  7 active torsions:
REMARK  status: ('A' for Active; 'I' for Inactive)
REMARK    1  A    between atoms: O_5  and  C_28
REMARK    2  A    between atoms: O_5  and  C_31
REMARK    3  A    between atoms: N_8  and  C_16
REMARK    4  A    between atoms: N_10  and  C_25
REMARK    5  A    between atoms: N_11  and  C_24
REMARK    6  A    between atoms: C_12  and  C_17
REMARK    7  A    between atoms: C_23  and  C_24
REMARK                            x       y       z     vdW  Elec       q    Type
REMARK                         _______ _______ _______ _____ _____    ______ ____
ROOT
ATOM      3  O   UNL     1      10.559   3.948   3.820  0.00  0.00    -0.252 OA
ATOM      4  O   UNL     1      15.306   4.020  -0.957  0.00  0.00    -0.274 OA
ATOM      6  N   UNL     1      12.060   5.156   2.532  0.00  0.00    -0.271 N 
ATOM      7  N   UNL     1      13.698   5.237   0.195  0.00  0.00    -0.297 N 
ATOM     10  N   UNL     1      10.600   6.259   4.034  0.00  0.00    -0.269 N 
ATOM     12  C   UNL     1      12.768   6.405   2.184  0.00  0.00    +0.181 C 
ATOM     13  C   UNL     1      13.153   6.498   0.704  0.00  0.00    +0.139 C 
ATOM     14  C   UNL     1      12.583   3.922   1.927  0.00  0.00    +0.129 C 
ATOM     15  C   UNL     1      12.844   4.079   0.436  0.00  0.00    +0.127 C 
ATOM     22  C   UNL     1      11.022   5.043   3.491  0.00  0.00    +0.307 C 
ATOM     23  C   UNL     1      14.894   5.091  -0.506  0.00  0.00    +0.229 C 
ATOM     34  H   UNL     1      10.681   7.093   3.465  0.00  0.00    +0.156 HD
ENDROOT
BRANCH  10  25
ATOM     25  C   UNL     1      10.073   6.486   5.329  0.00  0.00    +0.038 A 
ATOM     26  C   UNL     1      10.513   5.716   6.406  0.00  0.00    +0.069 A 
ATOM     27  C   UNL     1       9.116   7.480   5.528  0.00  0.00    +0.023 A 
ATOM     28  C   UNL     1       9.994   5.940   7.682  0.00  0.00    +0.122 A 
ATOM     29  C   UNL     1       8.596   7.704   6.804  0.00  0.00    +0.005 A 
ATOM     30  C   UNL     1       9.035   6.934   7.880  0.00  0.00    +0.046 A 
BRANCH  28   5
ATOM      5  O   UNL     1      10.423   5.188   8.732  0.00  0.00    -0.495 OA
ATOM     31  C   UNL     1       9.423   4.572   9.541  0.00  0.00    +0.277 C 
ENDBRANCH  28   5
ENDBRANCH  10  25
BRANCH  12  17
ATOM      1  O   UNL     1      15.006   5.849   2.809  0.00  0.00    -0.274 OA
ATOM      8  N   UNL     1      13.773   7.272   4.179  0.00  0.00    -0.302 N 
ATOM     17  C   UNL     1      13.978   6.470   3.070  0.00  0.00    +0.236 C 
ATOM     32  H   UNL     1      12.864   7.704   4.316  0.00  0.00    +0.150 HD
BRANCH   8  16
ATOM      2  O   UNL     1      13.385   6.712   6.996  0.00  0.00    -0.274 OA
ATOM      9  N   UNL     1      13.910   8.933   7.007  0.00  0.00    -0.314 N 
ATOM     16  C   UNL     1      14.774   7.483   5.197  0.00  0.00    +0.159 C 
ATOM     18  C   UNL     1      15.718   8.626   4.842  0.00  0.00    +0.033 C 
ATOM     19  C   UNL     1      15.064   9.976   5.090  0.00  0.00    +0.021 C 
ATOM     20  C   UNL     1      14.683  10.074   6.555  0.00  0.00    +0.104 C 
ATOM     21  C   UNL     1      13.997   7.657   6.494  0.00  0.00    +0.233 C 
ATOM     33  H   UNL     1      13.357   9.056   7.849  0.00  0.00    +0.149 HD
ENDBRANCH   8  16
ENDBRANCH  12  17
BRANCH  23  24
ATOM     24  C   UNL     1      15.715   6.341  -0.705  0.00  0.00    +0.174 C 
BRANCH  24  11
ATOM     11  N   UNL     1      16.796   6.273   0.254  0.00  0.00    -0.322 NA
ATOM     35  H   UNL     1      16.466   6.599   1.161  0.00  0.00    +0.119 HD
ATOM     36  H   UNL     1      17.079   5.303   0.389  0.00  0.00    +0.119 HD
ENDBRANCH  24  11
ENDBRANCH  23  24
TORSDOF 6
ENDMDL
MODEL 4
REMARK VINA RESULT:      -6.0      5.299      9.310
REMARK  Name = 11912850
REMARK  7 active torsions:
REMARK  status: ('A' for Active; 'I' for Inactive)
REMARK    1  A    between atoms: O_5  and  C_28
REMARK    2  A    between atoms: O_5  and  C_31
REMARK    3  A    between atoms: N_8  and  C_16
REMARK    4  A    between atoms: N_10  and  C_25
REMARK    5  A    between atoms: N_11  and  C_24
REMARK    6  A    between atoms: C_12  and  C_17
REMARK    7  A    between atoms: C_23  and  C_24
REMARK                            x       y       z     vdW  Elec       q    Type
REMARK                         _______ _______ _______ _____ _____    ______ ____
ROOT
ATOM      3  O   UNL     1      -8.873 -12.978  20.025  0.00  0.00    -0.252 OA
ATOM      4  O   UNL     1     -15.479 -11.947  20.837  0.00  0.00    -0.274 OA
ATOM      6  N   UNL     1     -10.664 -11.507  20.048  0.00  0.00    -0.271 N 
ATOM      7  N   UNL     1     -13.354 -11.010  20.867  0.00  0.00    -0.297 N 
ATOM     10  N   UNL     1      -8.458 -10.716  19.717  0.00  0.00    -0.269 N 
ATOM     12  C   UNL     1     -11.256 -10.174  19.822  0.00  0.00    +0.181 C 
ATOM     13  C   UNL     1     -12.444  -9.869  20.741  0.00  0.00    +0.139 C 
ATOM     14  C   UNL     1     -11.610 -12.613  20.262  0.00  0.00    +0.129 C 
ATOM     15  C   UNL     1     -12.698 -12.252  21.263  0.00  0.00    +0.127 C 
ATOM     22  C   UNL     1      -9.284 -11.818  19.943  0.00  0.00    +0.307 C 
ATOM     23  C   UNL     1     -14.735 -10.975  20.685  0.00  0.00    +0.229 C 
ATOM     34  H   UNL     1      -8.752  -9.813  20.072  0.00  0.00    +0.156 HD
ENDROOT
BRANCH  10  25
ATOM     25  C   UNL     1      -7.227 -10.692  19.015  0.00  0.00    +0.038 A 
ATOM     26  C   UNL     1      -7.156 -10.103  17.752  0.00  0.00    +0.069 A 
ATOM     27  C   UNL     1      -6.087 -11.258  19.585  0.00  0.00    +0.023 A 
ATOM     28  C   UNL     1      -5.945 -10.080  17.061  0.00  0.00    +0.122 A 
ATOM     29  C   UNL     1      -4.876 -11.234  18.894  0.00  0.00    +0.005 A 
ATOM     30  C   UNL     1      -4.804 -10.646  17.632  0.00  0.00    +0.046 A 
BRANCH  28   5
ATOM      5  O   UNL     1      -5.875  -9.505  15.829  0.00  0.00    -0.495 OA
ATOM     31  C   UNL     1      -5.538 -10.354  14.734  0.00  0.00    +0.277 C 
ENDBRANCH  28   5
ENDBRANCH  10  25
BRANCH  12  17
ATOM      1  O   UNL     1     -12.222 -11.067  17.827  0.00  0.00    -0.274 OA
ATOM      8  N   UNL     1     -11.297  -8.932  17.774  0.00  0.00    -0.302 N 
ATOM     17  C   UNL     1     -11.657 -10.124  18.376  0.00  0.00    +0.236 C 
ATOM     32  H   UNL     1     -10.792  -8.237  18.315  0.00  0.00    +0.150 HD
BRANCH   8  16
ATOM      2  O   UNL     1      -9.510  -9.647  15.605  0.00  0.00    -0.274 OA
ATOM      9  N   UNL     1      -9.667  -7.381  15.383  0.00  0.00    -0.314 N 
ATOM     16  C   UNL     1     -11.548  -8.643  16.382  0.00  0.00    +0.159 C 
ATOM     18  C   UNL     1     -12.384  -7.382  16.202  0.00  0.00    +0.033 C 
ATOM     19  C   UNL     1     -11.540  -6.131  16.395  0.00  0.00    +0.021 C 
ATOM     20  C   UNL     1     -10.415  -6.138  15.378  0.00  0.00    +0.104 C 
ATOM     21  C   UNL     1     -10.176  -8.615  15.723  0.00  0.00    +0.233 C 
ATOM     33  H   UNL     1      -8.735  -7.359  14.982  0.00  0.00    +0.149 HD
ENDBRANCH   8  16
ENDBRANCH  12  17
BRANCH  23  24
ATOM     24  C   UNL     1     -15.326  -9.650  20.272  0.00  0.00    +0.174 C 
BRANCH  24  11
ATOM     11  N   UNL     1     -16.095  -9.179  21.404  0.00  0.00    -0.322 NA
ATOM     35  H   UNL     1     -16.702  -9.928  21.737  0.00  0.00    +0.119 HD
ATOM     36  H   UNL     1     -15.471  -8.958  22.179  0.00  0.00    +0.119 HD
ENDBRANCH  24  11
ENDBRANCH  23  24
TORSDOF 6
ENDMDL
MODEL 5
REMARK VINA RESULT:      -5.9     24.947     27.429
REMARK  Name = 11912850
REMARK  7 active torsions:
REMARK  status: ('A' for Active; 'I' for Inactive)
REMARK    1  A    between atoms: O_5  and  C_28
REMARK    2  A    between atoms: O_5  and  C_31
REMARK    3  A    between atoms: N_8  and  C_16
REMARK    4  A    between atoms: N_10  and  C_25
REMARK    5  A    between atoms: N_11  and  C_24
REMARK    6  A    between atoms: C_12  and  C_17
REMARK    7  A    between atoms: C_23  and  C_24
REMARK                            x       y       z     vdW  Elec       q    Type
REMARK                         _______ _______ _______ _____ _____    ______ ____
ROOT
ATOM      3  O   UNL     1      12.978   8.312   4.626  0.00  0.00    -0.252 OA
ATOM      4  O   UNL     1      17.133   7.187  -0.554  0.00  0.00    -0.274 OA
ATOM      6  N   UNL     1      13.702   6.906   2.932  0.00  0.00    -0.271 N 
ATOM      7  N   UNL     1      15.769   6.248   1.075  0.00  0.00    -0.297 N 
ATOM     10  N   UNL     1      12.032   6.199   4.454  0.00  0.00    -0.269 N 
ATOM     12  C   UNL     1      13.580   5.683   2.114  0.00  0.00    +0.181 C 
ATOM     13  C   UNL     1      14.922   5.166   1.582  0.00  0.00    +0.139 C 
ATOM     14  C   UNL     1      14.633   7.931   2.435  0.00  0.00    +0.129 C 
ATOM     15  C   UNL     1      15.972   7.339   2.022  0.00  0.00    +0.127 C 
ATOM     22  C   UNL     1      12.905   7.217   4.063  0.00  0.00    +0.307 C 
ATOM     23  C   UNL     1      16.393   6.278  -0.171  0.00  0.00    +0.229 C 
ATOM     34  H   UNL     1      12.297   5.240   4.264  0.00  0.00    +0.156 HD
ENDROOT
BRANCH  10  25
ATOM     25  C   UNL     1      10.773   6.342   5.087  0.00  0.00    +0.038 A 
ATOM     26  C   UNL     1      10.656   6.130   6.461  0.00  0.00    +0.069 A 
ATOM     27  C   UNL     1       9.651   6.693   4.337  0.00  0.00    +0.023 A 
ATOM     28  C   UNL     1       9.415   6.270   7.084  0.00  0.00    +0.122 A 
ATOM     29  C   UNL     1       8.411   6.833   4.961  0.00  0.00    +0.005 A 
ATOM     30  C   UNL     1       8.293   6.622   6.334  0.00  0.00    +0.046 A 
BRANCH  28   5
ATOM      5  O   UNL     1       9.300   6.064   8.425  0.00  0.00    -0.495 OA
ATOM     31  C   UNL     1       9.418   4.720   8.887  0.00  0.00    +0.277 C 
ENDBRANCH  28   5
ENDBRANCH  10  25
BRANCH  12  17
ATOM      1  O   UNL     1      11.862   6.961   1.055  0.00  0.00    -0.274 OA
ATOM      8  N   UNL     1      12.747   5.120  -0.061  0.00  0.00    -0.302 N 
ATOM     17  C   UNL     1      12.638   6.011   0.992  0.00  0.00    +0.236 C 
ATOM     32  H   UNL     1      13.395   4.341   0.014  0.00  0.00    +0.150 HD
BRANCH   8  16
ATOM      2  O   UNL     1       9.960   4.334  -0.199  0.00  0.00    -0.274 OA
ATOM      9  N   UNL     1      10.922   3.008  -1.788  0.00  0.00    -0.314 N 
ATOM     16  C   UNL     1      11.935   5.201  -1.252  0.00  0.00    +0.159 C 
ATOM     18  C   UNL     1      12.764   5.038  -2.520  0.00  0.00    +0.033 C 
ATOM     19  C   UNL     1      13.117   3.578  -2.761  0.00  0.00    +0.021 C 
ATOM     20  C   UNL     1      11.835   2.779  -2.892  0.00  0.00    +0.104 C 
ATOM     21  C   UNL     1      10.831   4.172  -1.057  0.00  0.00    +0.233 C 
ATOM     33  H   UNL     1      10.209   2.304  -1.627  0.00  0.00    +0.149 HD
ENDBRANCH   8  16
ENDBRANCH  12  17
BRANCH  23  24
ATOM     24  C   UNL     1      16.123   5.111  -1.088  0.00  0.00    +0.174 C 
BRANCH  24  11
ATOM     11  N   UNL     1      17.267   4.233  -0.974  0.00  0.00    -0.322 NA
ATOM     35  H   UNL     1      17.027   3.312  -1.340  0.00  0.00    +0.119 HD
ATOM     36  H   UNL     1      18.028   4.577  -1.558  0.00  0.00    +0.119 HD
ENDBRANCH  24  11
ENDBRANCH  23  24
TORSDOF 6
ENDMDL
MODEL 6
REMARK VINA RESULT:      -5.8      2.983      8.123
REMARK  Name = 11912850
REMARK  7 active torsions:
REMARK  status: ('A' for Active; 'I' for Inactive)
REMARK    1  A    between atoms: O_5  and  C_28
REMARK    2  A    between atoms: O_5  and  C_31
REMARK    3  A    between atoms: N_8  and  C_16
REMARK    4  A    between atoms: N_10  and  C_25
REMARK    5  A    between atoms: N_11  and  C_24
REMARK    6  A    between atoms: C_12  and  C_17
REMARK    7  A    between atoms: C_23  and  C_24
REMARK                            x       y       z     vdW  Elec       q    Type
REMARK                         _______ _______ _______ _____ _____    ______ ____
ROOT
ATOM      3  O   UNL     1      -4.282 -12.853  15.144  0.00  0.00    -0.252 OA
ATOM      4  O   UNL     1      -9.250 -12.552  19.682  0.00  0.00    -0.274 OA
ATOM      6  N   UNL     1      -5.836 -11.583  16.305  0.00  0.00    -0.271 N 
ATOM      7  N   UNL     1      -7.582 -11.393  18.556  0.00  0.00    -0.297 N 
ATOM     10  N   UNL     1      -4.300 -10.554  14.827  0.00  0.00    -0.269 N 
ATOM     12  C   UNL     1      -6.552 -10.318  16.563  0.00  0.00    +0.181 C 
ATOM     13  C   UNL     1      -7.006 -10.158  18.018  0.00  0.00    +0.139 C 
ATOM     14  C   UNL     1      -6.394 -12.788  16.938  0.00  0.00    +0.129 C 
ATOM     15  C   UNL     1      -6.724 -12.564  18.406  0.00  0.00    +0.127 C 
ATOM     22  C   UNL     1      -4.754 -11.743  15.402  0.00  0.00    +0.307 C 
ATOM     23  C   UNL     1      -8.811 -11.504  19.204  0.00  0.00    +0.229 C 
ATOM     34  H   UNL     1      -4.403  -9.695  15.354  0.00  0.00    +0.156 HD
ENDROOT
BRANCH  10  25
ATOM     25  C   UNL     1      -3.711 -10.386  13.549  0.00  0.00    +0.038 A 
ATOM     26  C   UNL     1      -4.518 -10.156  12.434  0.00  0.00    +0.069 A 
ATOM     27  C   UNL     1      -2.326 -10.450  13.406  0.00  0.00    +0.023 A 
ATOM     28  C   UNL     1      -3.938  -9.990  11.176  0.00  0.00    +0.122 A 
ATOM     29  C   UNL     1      -1.746 -10.284  12.148  0.00  0.00    +0.005 A 
ATOM     30  C   UNL     1      -2.551 -10.055  11.033  0.00  0.00    +0.046 A 
BRANCH  28   5
ATOM      5  O   UNL     1      -4.724  -9.766  10.089  0.00  0.00    -0.495 OA
ATOM     31  C   UNL     1      -4.465 -10.552   8.927  0.00  0.00    +0.277 C 
ENDBRANCH  28   5
ENDBRANCH  10  25
BRANCH  12  17
ATOM      1  O   UNL     1      -7.729 -10.940  14.579  0.00  0.00    -0.274 OA
ATOM      8  N   UNL     1      -8.723  -9.441  16.057  0.00  0.00    -0.302 N 
ATOM     17  C   UNL     1      -7.719 -10.287  15.619  0.00  0.00    +0.236 C 
ATOM     32  H   UNL     1      -8.588  -8.915  16.915  0.00  0.00    +0.150 HD
BRANCH   8  16
ATOM      2  O   UNL     1     -10.014  -6.861  15.776  0.00  0.00    -0.274 OA
ATOM      9  N   UNL     1     -11.652  -8.125  16.738  0.00  0.00    -0.314 N 
ATOM     16  C   UNL     1      -9.943  -9.216  15.318  0.00  0.00    +0.159 C 
ATOM     18  C   UNL     1     -10.845 -10.445  15.317  0.00  0.00    +0.033 C 
ATOM     19  C   UNL     1     -11.577 -10.590  16.642  0.00  0.00    +0.021 C 
ATOM     20  C   UNL     1     -12.417  -9.350  16.877  0.00  0.00    +0.104 C 
ATOM     21  C   UNL     1     -10.553  -7.960  15.924  0.00  0.00    +0.233 C 
ATOM     33  H   UNL     1     -12.033  -7.292  17.175  0.00  0.00    +0.149 HD
ENDBRANCH   8  16
ENDBRANCH  12  17
BRANCH  23  24
ATOM     24  C   UNL     1      -9.633 -10.243  19.309  0.00  0.00    +0.174 C 
BRANCH  24  11
ATOM     11  N   UNL     1     -10.174 -10.223  20.651  0.00  0.00    -0.322 NA
ATOM     35  H   UNL     1      -9.552 -10.736  21.275  0.00  0.00    +0.119 HD
ATOM     36  H   UNL     1     -10.196  -9.266  21.001  0.00  0.00    +0.119 HD
ENDBRANCH  24  11
ENDBRANCH  23  24
TORSDOF 6
ENDMDL
MODEL 7
REMARK VINA RESULT:      -5.7      2.200      8.085
REMARK  Name = 11912850
REMARK  7 active torsions:
REMARK  status: ('A' for Active; 'I' for Inactive)
REMARK    1  A    between atoms: O_5  and  C_28
REMARK    2  A    between atoms: O_5  and  C_31
REMARK    3  A    between atoms: N_8  and  C_16
REMARK    4  A    between atoms: N_10  and  C_25
REMARK    5  A    between atoms: N_11  and  C_24
REMARK    6  A    between atoms: C_12  and  C_17
REMARK    7  A    between atoms: C_23  and  C_24
REMARK                            x       y       z     vdW  Elec       q    Type
REMARK                         _______ _______ _______ _____ _____    ______ ____
ROOT
ATOM      3  O   UNL     1      -3.865 -11.937  12.760  0.00  0.00    -0.252 OA
ATOM      4  O   UNL     1      -5.243 -12.158  19.349  0.00  0.00    -0.274 OA
ATOM      6  N   UNL     1      -4.817 -10.939  14.623  0.00  0.00    -0.271 N 
ATOM      7  N   UNL     1      -4.963 -10.819  17.472  0.00  0.00    -0.297 N 
ATOM     10  N   UNL     1      -4.792  -9.821  12.537  0.00  0.00    -0.269 N 
ATOM     12  C   UNL     1      -5.627  -9.885  15.264  0.00  0.00    +0.181 C 
ATOM     13  C   UNL     1      -5.217  -9.593  16.712  0.00  0.00    +0.139 C 
ATOM     14  C   UNL     1      -4.505 -12.115  15.451  0.00  0.00    +0.129 C 
ATOM     15  C   UNL     1      -4.013 -11.726  16.837  0.00  0.00    +0.127 C 
ATOM     22  C   UNL     1      -4.439 -10.964  13.257  0.00  0.00    +0.307 C 
ATOM     23  C   UNL     1      -5.508 -11.134  18.715  0.00  0.00    +0.229 C 
ATOM     34  H   UNL     1      -4.853  -8.940  13.034  0.00  0.00    +0.156 HD
ENDROOT
BRANCH  10  25
ATOM     25  C   UNL     1      -5.106  -9.735  11.158  0.00  0.00    +0.038 A 
ATOM     26  C   UNL     1      -6.404  -9.999  10.720  0.00  0.00    +0.069 A 
ATOM     27  C   UNL     1      -4.117  -9.386  10.238  0.00  0.00    +0.023 A 
ATOM     28  C   UNL     1      -6.713  -9.914   9.362  0.00  0.00    +0.122 A 
ATOM     29  C   UNL     1      -4.426  -9.301   8.880  0.00  0.00    +0.005 A 
ATOM     30  C   UNL     1      -5.723  -9.565   8.442  0.00  0.00    +0.046 A 
BRANCH  28   5
ATOM      5  O   UNL     1      -7.979 -10.171   8.935  0.00  0.00    -0.495 OA
ATOM     31  C   UNL     1      -8.213 -10.120   7.529  0.00  0.00    +0.277 C 
ENDBRANCH  28   5
ENDBRANCH  10  25
BRANCH  12  17
ATOM      1  O   UNL     1      -7.383 -11.347  14.565  0.00  0.00    -0.274 OA
ATOM      8  N   UNL     1      -7.915  -9.478  15.847  0.00  0.00    -0.302 N 
ATOM     17  C   UNL     1      -7.057 -10.336  15.181  0.00  0.00    +0.236 C 
ATOM     32  H   UNL     1      -7.539  -8.644  16.288  0.00  0.00    +0.150 HD
BRANCH   8  16
ATOM      2  O   UNL     1      -9.692  -9.172  13.577  0.00  0.00    -0.274 OA
ATOM      9  N   UNL     1     -10.546  -7.674  15.073  0.00  0.00    -0.314 N 
ATOM     16  C   UNL     1      -9.344  -9.675  15.898  0.00  0.00    +0.159 C 
ATOM     18  C   UNL     1      -9.916  -9.351  17.274  0.00  0.00    +0.033 C 
ATOM     19  C   UNL     1     -10.033  -7.849  17.481  0.00  0.00    +0.021 C 
ATOM     20  C   UNL     1     -10.941  -7.276  16.411  0.00  0.00    +0.104 C 
ATOM     21  C   UNL     1      -9.905  -8.850  14.749  0.00  0.00    +0.233 C 
ATOM     33  H   UNL     1     -10.883  -7.104  14.304  0.00  0.00    +0.149 HD
ENDBRANCH   8  16
ENDBRANCH  12  17
BRANCH  23  24
ATOM     24  C   UNL     1      -6.484 -10.140  19.294  0.00  0.00    +0.174 C 
BRANCH  24  11
ATOM     11  N   UNL     1      -7.611 -10.911  19.773  0.00  0.00    -0.322 NA
ATOM     35  H   UNL     1      -8.165 -11.231  18.979  0.00  0.00    +0.119 HD
ATOM     36  H   UNL     1      -7.281 -11.752  20.243  0.00  0.00    +0.119 HD
ENDBRANCH  24  11
ENDBRANCH  23  24
TORSDOF 6
ENDMDL
MODEL 8
REMARK VINA RESULT:      -5.7     25.811     28.132
REMARK  Name = 11912850
REMARK  7 active torsions:
REMARK  status: ('A' for Active; 'I' for Inactive)
REMARK    1  A    between atoms: O_5  and  C_28
REMARK    2  A    between atoms: O_5  and  C_31
REMARK    3  A    between atoms: N_8  and  C_16
REMARK    4  A    between atoms: N_10  and  C_25
REMARK    5  A    between atoms: N_11  and  C_24
REMARK    6  A    between atoms: C_12  and  C_17
REMARK    7  A    between atoms: C_23  and  C_24
REMARK                            x       y       z     vdW  Elec       q    Type
REMARK                         _______ _______ _______ _____ _____    ______ ____
ROOT
ATOM      3  O   UNL     1      12.672   9.455   7.031  0.00  0.00    -0.252 OA
ATOM      4  O   UNL     1      18.327  11.089   3.757  0.00  0.00    -0.274 OA
ATOM      6  N   UNL     1      14.532   8.780   5.823  0.00  0.00    -0.271 N 
ATOM      7  N   UNL     1      17.145   9.431   4.873  0.00  0.00    -0.297 N 
ATOM     10  N   UNL     1      13.028   7.184   6.713  0.00  0.00    -0.269 N 
ATOM     12  C   UNL     1      15.325   7.753   5.119  0.00  0.00    +0.181 C 
ATOM     13  C   UNL     1      16.833   8.024   5.139  0.00  0.00    +0.139 C 
ATOM     14  C   UNL     1      14.935  10.178   5.601  0.00  0.00    +0.129 C 
ATOM     15  C   UNL     1      16.438  10.370   5.737  0.00  0.00    +0.127 C 
ATOM     22  C   UNL     1      13.353   8.535   6.571  0.00  0.00    +0.307 C 
ATOM     23  C   UNL     1      18.057   9.898   3.929  0.00  0.00    +0.229 C 
ATOM     34  H   UNL     1      13.781   6.506   6.709  0.00  0.00    +0.156 HD
ENDROOT
BRANCH  10  25
ATOM     25  C   UNL     1      11.736   6.619   6.849  0.00  0.00    +0.038 A 
ATOM     26  C   UNL     1      11.483   5.693   7.861  0.00  0.00    +0.069 A 
ATOM     27  C   UNL     1      10.718   6.988   5.970  0.00  0.00    +0.023 A 
ATOM     28  C   UNL     1      10.210   5.137   7.995  0.00  0.00    +0.122 A 
ATOM     29  C   UNL     1       9.445   6.431   6.103  0.00  0.00    +0.005 A 
ATOM     30  C   UNL     1       9.191   5.506   7.115  0.00  0.00    +0.046 A 
BRANCH  28   5
ATOM      5  O   UNL     1       9.962   4.234   8.982  0.00  0.00    -0.495 OA
ATOM     31  C   UNL     1       9.419   4.737  10.201  0.00  0.00    +0.277 C 
ENDBRANCH  28   5
ENDBRANCH  10  25
BRANCH  12  17
ATOM      1  O   UNL     1      14.598   8.711   3.054  0.00  0.00    -0.274 OA
ATOM      8  N   UNL     1      14.559   6.396   3.299  0.00  0.00    -0.302 N 
ATOM     17  C   UNL     1      14.798   7.694   3.714  0.00  0.00    +0.236 C 
ATOM     32  H   UNL     1      14.720   5.631   3.947  0.00  0.00    +0.150 HD
BRANCH   8  16
ATOM      2  O   UNL     1      11.733   6.283   2.664  0.00  0.00    -0.274 OA
ATOM      9  N   UNL     1      12.438   4.177   2.135  0.00  0.00    -0.314 N 
ATOM     16  C   UNL     1      14.029   6.069   1.997  0.00  0.00    +0.159 C 
ATOM     18  C   UNL     1      14.950   5.133   1.224  0.00  0.00    +0.033 C 
ATOM     19  C   UNL     1      14.825   3.702   1.725  0.00  0.00    +0.021 C 
ATOM     20  C   UNL     1      13.389   3.247   1.556  0.00  0.00    +0.104 C 
ATOM     21  C   UNL     1      12.626   5.537   2.256  0.00  0.00    +0.233 C 
ATOM     33  H   UNL     1      11.514   3.818   2.348  0.00  0.00    +0.149 HD
ENDBRANCH   8  16
ENDBRANCH  12  17
BRANCH  23  24
ATOM     24  C   UNL     1      18.738   8.856   3.076  0.00  0.00    +0.174 C 
BRANCH  24  11
ATOM     11  N   UNL     1      20.067   8.692   3.623  0.00  0.00    -0.322 NA
ATOM     35  H   UNL     1      20.135   7.785   4.084  0.00  0.00    +0.119 HD
ATOM     36  H   UNL     1      20.753   8.675   2.868  0.00  0.00    +0.119 HD
ENDBRANCH  24  11
ENDBRANCH  23  24
TORSDOF 6
ENDMDL
MODEL 9
REMARK VINA RESULT:      -5.6      2.321      6.203
REMARK  Name = 11912850
REMARK  7 active torsions:
REMARK  status: ('A' for Active; 'I' for Inactive)
REMARK    1  A    between atoms: O_5  and  C_28
REMARK    2  A    between atoms: O_5  and  C_31
REMARK    3  A    between atoms: N_8  and  C_16
REMARK    4  A    between atoms: N_10  and  C_25
REMARK    5  A    between atoms: N_11  and  C_24
REMARK    6  A    between atoms: C_12  and  C_17
REMARK    7  A    between atoms: C_23  and  C_24
REMARK                            x       y       z     vdW  Elec       q    Type
REMARK                         _______ _______ _______ _____ _____    ______ ____
ROOT
ATOM      3  O   UNL     1      -5.537 -12.334  17.716  0.00  0.00    -0.252 OA
ATOM      4  O   UNL     1     -11.852 -10.059  18.282  0.00  0.00    -0.274 OA
ATOM      6  N   UNL     1      -7.116 -10.713  17.212  0.00  0.00    -0.271 N 
ATOM      7  N   UNL     1      -9.631  -9.526  17.858  0.00  0.00    -0.297 N 
ATOM     10  N   UNL     1      -4.868 -10.466  16.513  0.00  0.00    -0.269 N 
ATOM     12  C   UNL     1      -7.552  -9.500  16.492  0.00  0.00    +0.181 C 
ATOM     13  C   UNL     1      -8.600  -8.680  17.253  0.00  0.00    +0.139 C 
ATOM     14  C   UNL     1      -8.172 -11.487  17.883  0.00  0.00    +0.129 C 
ATOM     15  C   UNL     1      -9.105 -10.600  18.694  0.00  0.00    +0.127 C 
ATOM     22  C   UNL     1      -5.804 -11.250  17.191  0.00  0.00    +0.307 C 
ATOM     23  C   UNL     1     -11.007  -9.352  17.726  0.00  0.00    +0.229 C 
ATOM     34  H   UNL     1      -5.010  -9.462  16.487  0.00  0.00    +0.156 HD
ENDROOT
BRANCH  10  25
ATOM     25  C   UNL     1      -3.717 -10.909  15.816  0.00  0.00    +0.038 A 
ATOM     26  C   UNL     1      -3.853 -11.700  14.675  0.00  0.00    +0.069 A 
ATOM     27  C   UNL     1      -2.447 -10.554  16.271  0.00  0.00    +0.023 A 
ATOM     28  C   UNL     1      -2.719 -12.137  13.990  0.00  0.00    +0.122 A 
ATOM     29  C   UNL     1      -1.313 -10.991  15.585  0.00  0.00    +0.005 A 
ATOM     30  C   UNL     1      -1.449 -11.782  14.445  0.00  0.00    +0.046 A 
BRANCH  28   5
ATOM      5  O   UNL     1      -2.852 -12.908  12.877  0.00  0.00    -0.495 OA
ATOM     31  C   UNL     1      -2.183 -14.168  12.877  0.00  0.00    +0.277 C 
ENDBRANCH  28   5
ENDBRANCH  10  25
BRANCH  12  17
ATOM      1  O   UNL     1      -9.191 -10.465  15.045  0.00  0.00    -0.274 OA
ATOM      8  N   UNL     1      -7.165  -9.760  14.142  0.00  0.00    -0.302 N 
ATOM     17  C   UNL     1      -8.078  -9.958  15.162  0.00  0.00    +0.236 C 
ATOM     32  H   UNL     1      -6.253  -9.371  14.362  0.00  0.00    +0.150 HD
BRANCH   8  16
ATOM      2  O   UNL     1      -7.286 -12.496  13.192  0.00  0.00    -0.274 OA
ATOM      9  N   UNL     1      -5.622 -11.605  11.908  0.00  0.00    -0.314 N 
ATOM     16  C   UNL     1      -7.418 -10.137  12.772  0.00  0.00    +0.159 C 
ATOM     18  C   UNL     1      -6.919  -9.084  11.788  0.00  0.00    +0.033 C 
ATOM     19  C   UNL     1      -5.410  -9.164  11.618  0.00  0.00    +0.021 C 
ATOM     20  C   UNL     1      -5.047 -10.544  11.105  0.00  0.00    +0.104 C 
ATOM     21  C   UNL     1      -6.802 -11.520  12.615  0.00  0.00    +0.233 C 
ATOM     33  H   UNL     1      -5.190 -12.521  11.839  0.00  0.00    +0.149 HD
ENDBRANCH   8  16
ENDBRANCH  12  17
BRANCH  23  24
ATOM     24  C   UNL     1     -11.461  -8.219  16.839  0.00  0.00    +0.174 C 
BRANCH  24  11
ATOM     11  N   UNL     1     -11.756  -8.808  15.550  0.00  0.00    -0.322 NA
ATOM     35  H   UNL     1     -10.927  -8.758  14.958  0.00  0.00    +0.119 HD
ATOM     36  H   UNL     1     -11.963  -9.799  15.661  0.00  0.00    +0.119 HD
ENDBRANCH  24  11
ENDBRANCH  23  24
TORSDOF 6
ENDMDL
MODEL 10
REMARK VINA RESULT:      -5.5     27.383     30.289
REMARK  Name = 11912850
REMARK  7 active torsions:
REMARK  status: ('A' for Active; 'I' for Inactive)
REMARK    1  A    between atoms: O_5  and  C_28
REMARK    2  A    between atoms: O_5  and  C_31
REMARK    3  A    between atoms: N_8  and  C_16
REMARK    4  A    between atoms: N_10  and  C_25
REMARK    5  A    between atoms: N_11  and  C_24
REMARK    6  A    between atoms: C_12  and  C_17
REMARK    7  A    between atoms: C_23  and  C_24
REMARK                            x       y       z     vdW  Elec       q    Type
REMARK                         _______ _______ _______ _____ _____    ______ ____
ROOT
ATOM      3  O   UNL     1      16.184  11.773  19.690  0.00  0.00    -0.252 OA
ATOM      4  O   UNL     1      13.301  11.669  25.776  0.00  0.00    -0.274 OA
ATOM      6  N   UNL     1      14.252  11.734  20.971  0.00  0.00    -0.271 N 
ATOM      7  N   UNL     1      13.054  12.178  23.524  0.00  0.00    -0.297 N 
ATOM     10  N   UNL     1      14.132  11.882  18.611  0.00  0.00    -0.269 N 
ATOM     12  C   UNL     1      12.787  11.621  21.114  0.00  0.00    +0.181 C 
ATOM     13  C   UNL     1      12.231  12.374  22.327  0.00  0.00    +0.139 C 
ATOM     14  C   UNL     1      15.038  11.623  22.210  0.00  0.00    +0.129 C 
ATOM     15  C   UNL     1      14.468  12.481  23.329  0.00  0.00    +0.127 C 
ATOM     22  C   UNL     1      14.952  11.803  19.739  0.00  0.00    +0.307 C 
ATOM     23  C   UNL     1      12.587  11.786  24.777  0.00  0.00    +0.229 C 
ATOM     34  H   UNL     1      13.222  12.319  18.708  0.00  0.00    +0.156 HD
ENDROOT
BRANCH  10  25
ATOM     25  C   UNL     1      14.410  11.397  17.310  0.00  0.00    +0.038 A 
ATOM     26  C   UNL     1      15.382  12.019  16.526  0.00  0.00    +0.069 A 
ATOM     27  C   UNL     1      13.712  10.297  16.812  0.00  0.00    +0.023 A 
ATOM     28  C   UNL     1      15.656  11.541  15.244  0.00  0.00    +0.122 A 
ATOM     29  C   UNL     1      13.986   9.819  15.530  0.00  0.00    +0.005 A 
ATOM     30  C   UNL     1      14.957  10.441  14.746  0.00  0.00    +0.046 A 
BRANCH  28   5
ATOM      5  O   UNL     1      16.604  12.148  14.480  0.00  0.00    -0.495 OA
ATOM     31  C   UNL     1      17.933  12.180  14.997  0.00  0.00    +0.277 C 
ENDBRANCH  28   5
ENDBRANCH  10  25
BRANCH  12  17
ATOM      1  O   UNL     1      11.492   9.730  21.790  0.00  0.00    -0.274 OA
ATOM      8  N   UNL     1      13.429   9.383  20.547  0.00  0.00    -0.302 N 
ATOM     17  C   UNL     1      12.478  10.154  21.193  0.00  0.00    +0.236 C 
ATOM     32  H   UNL     1      14.231   9.839  20.122  0.00  0.00    +0.150 HD
BRANCH   8  16
ATOM      2  O   UNL     1      14.612   7.631  22.531  0.00  0.00    -0.274 OA
ATOM      9  N   UNL     1      15.646   6.963  20.609  0.00  0.00    -0.314 N 
ATOM     16  C   UNL     1      13.375   7.941  20.498  0.00  0.00    +0.159 C 
ATOM     18  C   UNL     1      13.309   7.422  19.066  0.00  0.00    +0.033 C 
ATOM     19  C   UNL     1      14.675   7.476  18.399  0.00  0.00    +0.021 C 
ATOM     20  C   UNL     1      15.645   6.627  19.198  0.00  0.00    +0.104 C 
ATOM     21  C   UNL     1      14.572   7.466  21.310  0.00  0.00    +0.233 C 
ATOM     33  H   UNL     1      16.460   6.685  21.148  0.00  0.00    +0.149 HD
ENDBRANCH   8  16
ENDBRANCH  12  17
BRANCH  23  24
ATOM     24  C   UNL     1      11.112  11.490  24.885  0.00  0.00    +0.174 C 
BRANCH  24  11
ATOM     11  N   UNL     1      10.553  12.522  25.730  0.00  0.00    -0.322 NA
ATOM     35  H   UNL     1      10.474  13.390  25.200  0.00  0.00    +0.119 HD
ATOM     36  H   UNL     1       9.602  12.272  26.000  0.00  0.00    +0.119 HD
ENDBRANCH  24  11
ENDBRANCH  23  24
TORSDOF 6
ENDMDL
