MODEL 1
REMARK VINA RESULT:      -7.3      0.000      0.000
REMARK  Name = 40777401
REMARK  7 active torsions:
REMARK  status: ('A' for Active; 'I' for Inactive)
REMARK    1  A    between atoms: N_5  and  C_18
REMARK    2  A    between atoms: C_7  and  C_13
REMARK    3  A    between atoms: C_8  and  C_12
REMARK    4  A    between atoms: C_12  and  C_14
REMARK    5  A    between atoms: C_13  and  C_15
REMARK    6  A    between atoms: C_17  and  C_19
REMARK    7  A    between atoms: C_18  and  C_20
REMARK                            x       y       z     vdW  Elec       q    Type
REMARK                         _______ _______ _______ _____ _____    ______ ____
ROOT
ATOM      4  N   UNL     1      11.809   9.086  22.857  0.00  0.00    -0.316 NA
ATOM      7  C   UNL     1      11.938   7.863  20.175  0.00  0.00    +0.004 C 
ATOM      8  C   UNL     1      13.185   8.425  20.899  0.00  0.00    +0.012 C 
ATOM      9  C   UNL     1      10.877   7.486  21.222  0.00  0.00    +0.019 C 
ATOM     10  C   UNL     1      12.812   9.538  21.892  0.00  0.00    +0.085 C 
ATOM     11  C   UNL     1      10.589   8.626  22.197  0.00  0.00    +0.081 C 
ATOM     29  H   UNL     1      11.582   9.851  23.492  0.00  0.00    +0.122 HD
ENDROOT
BRANCH   8  12
ATOM     12  C   UNL     1      14.271   8.906  19.936  0.00  0.00    +0.064 C 
BRANCH  12  14
ATOM      3  O   UNL     1      16.676   6.305  19.296  0.00  0.00    -0.354 OA
ATOM      6  N   UNL     1      15.477   6.961  19.042  0.00  0.00    -0.083 NA
ATOM     14  C   UNL     1      15.443   7.969  19.920  0.00  0.00    +0.085 A 
ATOM     16  C   UNL     1      16.582   7.999  20.743  0.00  0.00    +0.076 A 
ATOM     17  C   UNL     1      17.325   6.933  20.311  0.00  0.00    +0.167 A 
BRANCH  17  19
ATOM     19  C   UNL     1      18.586   6.364  20.687  0.00  0.00    +0.020 A 
ATOM     21  C   UNL     1      19.121   5.306  19.953  0.00  0.00    +0.011 A 
ATOM     22  C   UNL     1      19.278   6.868  21.789  0.00  0.00    +0.011 A 
ATOM     24  C   UNL     1      20.348   4.752  20.320  0.00  0.00    +0.001 A 
ATOM     25  C   UNL     1      20.504   6.314  22.156  0.00  0.00    +0.001 A 
ATOM     28  C   UNL     1      21.039   5.256  21.422  0.00  0.00    +0.000 A 
ENDBRANCH  17  19
ENDBRANCH  12  14
ENDBRANCH   8  12
BRANCH   7  13
ATOM     13  C   UNL     1      11.351   8.809  19.120  0.00  0.00    +0.099 C 
BRANCH  13  15
ATOM      2  O   UNL     1      11.769   7.351  17.235  0.00  0.00    -0.276 OA
ATOM      5  N   UNL     1      12.341   9.598  17.087  0.00  0.00    -0.311 N 
ATOM     15  C   UNL     1      11.830   8.477  17.723  0.00  0.00    +0.214 C 
ATOM     30  H   UNL     1      12.298  10.498  17.556  0.00  0.00    +0.149 HD
BRANCH   5  18
ATOM     18  C   UNL     1      12.871   9.571  15.743  0.00  0.00    +0.146 C 
BRANCH  18  20
ATOM      1  S   UNL     1      15.051  11.115  16.507  0.00  0.00    -0.100 S 
ATOM     20  C   UNL     1      13.744  10.759  15.460  0.00  0.00    +0.007 A 
ATOM     23  C   UNL     1      13.650  11.665  14.425  0.00  0.00    +0.013 A 
ATOM     26  C   UNL     1      14.666  12.661  14.493  0.00  0.00    +0.008 A 
ATOM     27  C   UNL     1      15.496  12.482  15.577  0.00  0.00    +0.045 A 
ENDBRANCH  18  20
ENDBRANCH   5  18
ENDBRANCH  13  15
ENDBRANCH   7  13
TORSDOF 7
ENDMDL
MODEL 2
REMARK VINA RESULT:      -7.1      3.187      5.001
REMARK  Name = 40777401
REMARK  7 active torsions:
REMARK  status: ('A' for Active; 'I' for Inactive)
REMARK    1  A    between atoms: N_5  and  C_18
REMARK    2  A    between atoms: C_7  and  C_13
REMARK    3  A    between atoms: C_8  and  C_12
REMARK    4  A    between atoms: C_12  and  C_14
REMARK    5  A    between atoms: C_13  and  C_15
REMARK    6  A    between atoms: C_17  and  C_19
REMARK    7  A    between atoms: C_18  and  C_20
REMARK                            x       y       z     vdW  Elec       q    Type
REMARK                         _______ _______ _______ _____ _____    ______ ____
ROOT
ATOM      4  N   UNL     1      11.749   5.955  20.814  0.00  0.00    -0.316 NA
ATOM      7  C   UNL     1      11.760   8.869  20.353  0.00  0.00    +0.004 C 
ATOM      8  C   UNL     1      12.563   7.880  19.475  0.00  0.00    +0.012 C 
ATOM      9  C   UNL     1      10.580   8.123  20.999  0.00  0.00    +0.019 C 
ATOM     10  C   UNL     1      12.933   6.604  20.248  0.00  0.00    +0.085 C 
ATOM     11  C   UNL     1      11.019   6.846  21.713  0.00  0.00    +0.081 C 
ATOM     29  H   UNL     1      12.034   5.119  21.325  0.00  0.00    +0.122 HD
ENDROOT
BRANCH   8  12
ATOM     12  C   UNL     1      13.809   8.509  18.850  0.00  0.00    +0.064 C 
BRANCH  12  14
ATOM      3  O   UNL     1      16.416   6.027  18.838  0.00  0.00    -0.354 OA
ATOM      6  N   UNL     1      15.218   6.554  18.371  0.00  0.00    -0.083 NA
ATOM     14  C   UNL     1      15.027   7.665  19.088  0.00  0.00    +0.085 A 
ATOM     16  C   UNL     1      16.062   7.888  20.014  0.00  0.00    +0.076 A 
ATOM     17  C   UNL     1      16.908   6.830  19.816  0.00  0.00    +0.167 A 
BRANCH  17  19
ATOM     19  C   UNL     1      18.149   6.409  20.399  0.00  0.00    +0.020 A 
ATOM     21  C   UNL     1      18.885   5.383  19.808  0.00  0.00    +0.011 A 
ATOM     22  C   UNL     1      18.620   7.025  21.558  0.00  0.00    +0.011 A 
ATOM     24  C   UNL     1      20.092   4.972  20.375  0.00  0.00    +0.001 A 
ATOM     25  C   UNL     1      19.826   6.616  22.126  0.00  0.00    +0.001 A 
ATOM     28  C   UNL     1      20.563   5.589  21.535  0.00  0.00    +0.000 A 
ENDBRANCH  17  19
ENDBRANCH  12  14
ENDBRANCH   8  12
BRANCH   7  13
ATOM     13  C   UNL     1      12.603   9.582  21.418  0.00  0.00    +0.099 C 
BRANCH  13  15
ATOM      2  O   UNL     1      13.379  11.795  20.823  0.00  0.00    -0.276 OA
ATOM      5  N   UNL     1      11.304  11.550  21.840  0.00  0.00    -0.311 N 
ATOM     15  C   UNL     1      12.502  11.089  21.313  0.00  0.00    +0.214 C 
ATOM     30  H   UNL     1      10.619  10.880  22.174  0.00  0.00    +0.149 HD
BRANCH   5  18
ATOM     18  C   UNL     1      10.943  12.949  21.873  0.00  0.00    +0.146 C 
BRANCH  18  20
ATOM      1  S   UNL     1      12.003  14.831  23.620  0.00  0.00    -0.100 S 
ATOM     20  C   UNL     1      10.979  13.505  23.267  0.00  0.00    +0.007 A 
ATOM     23  C   UNL     1      10.274  13.087  24.375  0.00  0.00    +0.013 A 
ATOM     26  C   UNL     1      10.578  13.868  25.528  0.00  0.00    +0.008 A 
ATOM     27  C   UNL     1      11.503  14.851  25.258  0.00  0.00    +0.045 A 
ENDBRANCH  18  20
ENDBRANCH   5  18
ENDBRANCH  13  15
ENDBRANCH   7  13
TORSDOF 7
ENDMDL
MODEL 3
REMARK VINA RESULT:      -7.0      2.390      6.763
REMARK  Name = 40777401
REMARK  7 active torsions:
REMARK  status: ('A' for Active; 'I' for Inactive)
REMARK    1  A    between atoms: N_5  and  C_18
REMARK    2  A    between atoms: C_7  and  C_13
REMARK    3  A    between atoms: C_8  and  C_12
REMARK    4  A    between atoms: C_12  and  C_14
REMARK    5  A    between atoms: C_13  and  C_15
REMARK    6  A    between atoms: C_17  and  C_19
REMARK    7  A    between atoms: C_18  and  C_20
REMARK                            x       y       z     vdW  Elec       q    Type
REMARK                         _______ _______ _______ _____ _____    ______ ____
ROOT
ATOM      4  N   UNL     1      10.372   7.069  21.425  0.00  0.00    -0.316 NA
ATOM      7  C   UNL     1      12.666   8.901  21.129  0.00  0.00    +0.004 C 
ATOM      8  C   UNL     1      12.340   7.795  20.097  0.00  0.00    +0.012 C 
ATOM      9  C   UNL     1      11.381   9.276  21.885  0.00  0.00    +0.019 C 
ATOM     10  C   UNL     1      11.586   6.620  20.741  0.00  0.00    +0.085 C 
ATOM     11  C   UNL     1      10.666   8.055  22.462  0.00  0.00    +0.081 C 
ATOM     29  H   UNL     1       9.905   6.265  21.845  0.00  0.00    +0.122 HD
ENDROOT
BRANCH   8  12
ATOM     12  C   UNL     1      13.575   7.293  19.346  0.00  0.00    +0.064 C 
BRANCH  12  14
ATOM      3  O   UNL     1      13.803   8.482  15.955  0.00  0.00    -0.354 OA
ATOM      6  N   UNL     1      13.480   7.516  16.900  0.00  0.00    -0.083 NA
ATOM     14  C   UNL     1      13.795   8.065  18.077  0.00  0.00    +0.085 A 
ATOM     16  C   UNL     1      14.316   9.364  17.938  0.00  0.00    +0.076 A 
ATOM     17  C   UNL     1      14.300   9.577  16.586  0.00  0.00    +0.167 A 
BRANCH  17  19
ATOM     19  C   UNL     1      14.682  10.665  15.733  0.00  0.00    +0.020 A 
ATOM     21  C   UNL     1      15.462  10.424  14.602  0.00  0.00    +0.011 A 
ATOM     22  C   UNL     1      14.276  11.965  16.034  0.00  0.00    +0.011 A 
ATOM     24  C   UNL     1      15.835  11.482  13.772  0.00  0.00    +0.001 A 
ATOM     25  C   UNL     1      14.648  13.023  15.206  0.00  0.00    +0.001 A 
ATOM     28  C   UNL     1      15.428  12.782  14.075  0.00  0.00    +0.000 A 
ENDBRANCH  17  19
ENDBRANCH  12  14
ENDBRANCH   8  12
BRANCH   7  13
ATOM     13  C   UNL     1      13.786   8.528  22.108  0.00  0.00    +0.099 C 
BRANCH  13  15
ATOM      2  O   UNL     1      15.088  10.499  21.587  0.00  0.00    -0.276 OA
ATOM      5  N   UNL     1      16.173   8.470  21.911  0.00  0.00    -0.311 N 
ATOM     15  C   UNL     1      15.062   9.298  21.838  0.00  0.00    +0.214 C 
ATOM     30  H   UNL     1      16.051   7.498  22.179  0.00  0.00    +0.149 HD
BRANCH   5  18
ATOM     18  C   UNL     1      17.522   8.939  21.694  0.00  0.00    +0.146 C 
BRANCH  18  20
ATOM      1  S   UNL     1      20.128   8.023  21.403  0.00  0.00    -0.100 S 
ATOM     20  C   UNL     1      18.434   7.836  21.243  0.00  0.00    +0.007 A 
ATOM     23  C   UNL     1      18.100   6.621  20.683  0.00  0.00    +0.013 A 
ATOM     26  C   UNL     1      19.250   5.835  20.385  0.00  0.00    +0.008 A 
ATOM     27  C   UNL     1      20.419   6.477  20.726  0.00  0.00    +0.045 A 
ENDBRANCH  18  20
ENDBRANCH   5  18
ENDBRANCH  13  15
ENDBRANCH   7  13
TORSDOF 7
ENDMDL
MODEL 4
REMARK VINA RESULT:      -6.8      3.168      6.928
REMARK  Name = 40777401
REMARK  7 active torsions:
REMARK  status: ('A' for Active; 'I' for Inactive)
REMARK    1  A    between atoms: N_5  and  C_18
REMARK    2  A    between atoms: C_7  and  C_13
REMARK    3  A    between atoms: C_8  and  C_12
REMARK    4  A    between atoms: C_12  and  C_14
REMARK    5  A    between atoms: C_13  and  C_15
REMARK    6  A    between atoms: C_17  and  C_19
REMARK    7  A    between atoms: C_18  and  C_20
REMARK                            x       y       z     vdW  Elec       q    Type
REMARK                         _______ _______ _______ _____ _____    ______ ____
ROOT
ATOM      4  N   UNL     1      14.495   6.522  20.294  0.00  0.00    -0.316 NA
ATOM      7  C   UNL     1      13.587   8.865  18.749  0.00  0.00    +0.004 C 
ATOM      8  C   UNL     1      12.935   8.441  20.086  0.00  0.00    +0.012 C 
ATOM      9  C   UNL     1      15.029   8.335  18.702  0.00  0.00    +0.019 C 
ATOM     10  C   UNL     1      13.092   6.934  20.342  0.00  0.00    +0.085 C 
ATOM     11  C   UNL     1      15.110   6.839  19.006  0.00  0.00    +0.081 C 
ATOM     29  H   UNL     1      14.558   5.517  20.459  0.00  0.00    +0.122 HD
ENDROOT
BRANCH   8  12
ATOM     12  C   UNL     1      11.466   8.855  20.194  0.00  0.00    +0.064 C 
BRANCH  12  14
ATOM      3  O   UNL     1      10.727  10.058  23.506  0.00  0.00    -0.354 OA
ATOM      6  N   UNL     1      10.885   9.038  22.575  0.00  0.00    -0.083 NA
ATOM     14  C   UNL     1      11.213   9.658  21.437  0.00  0.00    +0.085 A 
ATOM     16  C   UNL     1      11.276  11.054  21.588  0.00  0.00    +0.076 A 
ATOM     17  C   UNL     1      10.962  11.253  22.906  0.00  0.00    +0.167 A 
BRANCH  17  19
ATOM     19  C   UNL     1      10.834  12.407  23.748  0.00  0.00    +0.020 A 
ATOM     21  C   UNL     1      10.625  13.664  23.181  0.00  0.00    +0.011 A 
ATOM     22  C   UNL     1      10.919  12.273  25.134  0.00  0.00    +0.011 A 
ATOM     24  C   UNL     1      10.501  14.787  24.000  0.00  0.00    +0.001 A 
ATOM     25  C   UNL     1      10.795  13.395  25.952  0.00  0.00    +0.001 A 
ATOM     28  C   UNL     1      10.586  14.652  25.386  0.00  0.00    +0.000 A 
ENDBRANCH  17  19
ENDBRANCH  12  14
ENDBRANCH   8  12
BRANCH   7  13
ATOM     13  C   UNL     1      12.803   8.424  17.506  0.00  0.00    +0.099 C 
BRANCH  13  15
ATOM      2  O   UNL     1      13.701   8.455  15.260  0.00  0.00    -0.276 OA
ATOM      5  N   UNL     1      13.292  10.465  16.351  0.00  0.00    -0.311 N 
ATOM     15  C   UNL     1      13.316   9.082  16.242  0.00  0.00    +0.214 C 
ATOM     30  H   UNL     1      12.904  10.890  17.187  0.00  0.00    +0.149 HD
BRANCH   5  18
ATOM     18  C   UNL     1      13.728  11.347  15.294  0.00  0.00    +0.146 C 
BRANCH  18  20
ATOM      1  S   UNL     1      16.329  11.481  14.326  0.00  0.00    -0.100 S 
ATOM     20  C   UNL     1      15.136  11.824  15.505  0.00  0.00    +0.007 A 
ATOM     23  C   UNL     1      15.650  12.537  16.567  0.00  0.00    +0.013 A 
ATOM     26  C   UNL     1      17.040  12.806  16.407  0.00  0.00    +0.008 A 
ATOM     27  C   UNL     1      17.536  12.288  15.232  0.00  0.00    +0.045 A 
ENDBRANCH  18  20
ENDBRANCH   5  18
ENDBRANCH  13  15
ENDBRANCH   7  13
TORSDOF 7
ENDMDL
MODEL 5
REMARK VINA RESULT:      -6.8     26.480     28.931
REMARK  Name = 40777401
REMARK  7 active torsions:
REMARK  status: ('A' for Active; 'I' for Inactive)
REMARK    1  A    between atoms: N_5  and  C_18
REMARK    2  A    between atoms: C_7  and  C_13
REMARK    3  A    between atoms: C_8  and  C_12
REMARK    4  A    between atoms: C_12  and  C_14
REMARK    5  A    between atoms: C_13  and  C_15
REMARK    6  A    between atoms: C_17  and  C_19
REMARK    7  A    between atoms: C_18  and  C_20
REMARK                            x       y       z     vdW  Elec       q    Type
REMARK                         _______ _______ _______ _____ _____    ______ ____
ROOT
ATOM      4  N   UNL     1      -3.565  -9.171   9.928  0.00  0.00    -0.316 NA
ATOM      7  C   UNL     1      -3.887 -11.441  11.785  0.00  0.00    +0.004 C 
ATOM      8  C   UNL     1      -2.991 -10.221  12.104  0.00  0.00    +0.012 C 
ATOM      9  C   UNL     1      -4.966 -11.022  10.773  0.00  0.00    +0.019 C 
ATOM     10  C   UNL     1      -2.470  -9.548  10.823  0.00  0.00    +0.085 C 
ATOM     11  C   UNL     1      -4.377 -10.325   9.548  0.00  0.00    +0.081 C 
ATOM     29  H   UNL     1      -3.180  -8.737   9.089  0.00  0.00    +0.122 HD
ENDROOT
BRANCH   8  12
ATOM     12  C   UNL     1      -1.832 -10.557  13.044  0.00  0.00    +0.064 C 
BRANCH  12  14
ATOM      3  O   UNL     1      -2.158 -10.821  16.619  0.00  0.00    -0.354 OA
ATOM      6  N   UNL     1      -1.402 -10.718  15.458  0.00  0.00    -0.083 NA
ATOM     14  C   UNL     1      -2.297 -10.672  14.466  0.00  0.00    +0.085 A 
ATOM     16  C   UNL     1      -3.620 -10.740  14.938  0.00  0.00    +0.076 A 
ATOM     17  C   UNL     1      -3.477 -10.833  16.296  0.00  0.00    +0.167 A 
BRANCH  17  19
ATOM     19  C   UNL     1      -4.385 -10.937  17.401  0.00  0.00    +0.020 A 
ATOM     21  C   UNL     1      -4.034 -11.685  18.524  0.00  0.00    +0.011 A 
ATOM     22  C   UNL     1      -5.621 -10.292  17.352  0.00  0.00    +0.011 A 
ATOM     24  C   UNL     1      -4.918 -11.788  19.599  0.00  0.00    +0.001 A 
ATOM     25  C   UNL     1      -6.505 -10.394  18.425  0.00  0.00    +0.001 A 
ATOM     28  C   UNL     1      -6.155 -11.142  19.549  0.00  0.00    +0.000 A 
ENDBRANCH  17  19
ENDBRANCH  12  14
ENDBRANCH   8  12
BRANCH   7  13
ATOM     13  C   UNL     1      -3.114 -12.667  11.281  0.00  0.00    +0.099 C 
BRANCH  13  15
ATOM      2  O   UNL     1      -3.753 -14.994  11.447  0.00  0.00    -0.276 OA
ATOM      5  N   UNL     1      -3.552 -13.727  13.383  0.00  0.00    -0.311 N 
ATOM     15  C   UNL     1      -3.507 -13.933  12.013  0.00  0.00    +0.214 C 
ATOM     30  H   UNL     1      -3.278 -12.824  13.759  0.00  0.00    +0.149 HD
BRANCH   5  18
ATOM     18  C   UNL     1      -3.902 -14.764  14.326  0.00  0.00    +0.146 C 
BRANCH  18  20
ATOM      1  S   UNL     1      -6.331 -13.436  14.565  0.00  0.00    -0.100 S 
ATOM     20  C   UNL     1      -5.040 -14.354  15.216  0.00  0.00    +0.007 A 
ATOM     23  C   UNL     1      -5.218 -14.615  16.557  0.00  0.00    +0.013 A 
ATOM     26  C   UNL     1      -6.430 -14.056  17.055  0.00  0.00    +0.008 A 
ATOM     27  C   UNL     1      -7.132 -13.388  16.077  0.00  0.00    +0.045 A 
ENDBRANCH  18  20
ENDBRANCH   5  18
ENDBRANCH  13  15
ENDBRANCH   7  13
TORSDOF 7
ENDMDL
MODEL 6
REMARK VINA RESULT:      -6.7      3.439      7.240
REMARK  Name = 40777401
REMARK  7 active torsions:
REMARK  status: ('A' for Active; 'I' for Inactive)
REMARK    1  A    between atoms: N_5  and  C_18
REMARK    2  A    between atoms: C_7  and  C_13
REMARK    3  A    between atoms: C_8  and  C_12
REMARK    4  A    between atoms: C_12  and  C_14
REMARK    5  A    between atoms: C_13  and  C_15
REMARK    6  A    between atoms: C_17  and  C_19
REMARK    7  A    between atoms: C_18  and  C_20
REMARK                            x       y       z     vdW  Elec       q    Type
REMARK                         _______ _______ _______ _____ _____    ______ ____
ROOT
ATOM      4  N   UNL     1      16.982  11.829  13.320  0.00  0.00    -0.316 NA
ATOM      7  C   UNL     1      15.619  11.974  15.932  0.00  0.00    +0.004 C 
ATOM      8  C   UNL     1      15.137  11.051  14.788  0.00  0.00    +0.012 C 
ATOM      9  C   UNL     1      17.118  12.262  15.748  0.00  0.00    +0.019 C 
ATOM     10  C   UNL     1      15.539  11.599  13.408  0.00  0.00    +0.085 C 
ATOM     11  C   UNL     1      17.447  12.763  14.342  0.00  0.00    +0.081 C 
ATOM     29  H   UNL     1      17.208  12.198  12.396  0.00  0.00    +0.122 HD
ENDROOT
BRANCH   8  12
ATOM     12  C   UNL     1      13.634  10.771  14.837  0.00  0.00    +0.064 C 
BRANCH  12  14
ATOM      3  O   UNL     1      13.124   7.750  16.727  0.00  0.00    -0.354 OA
ATOM      6  N   UNL     1      13.532   8.434  15.588  0.00  0.00    -0.083 NA
ATOM     14  C   UNL     1      13.306   9.723  15.859  0.00  0.00    +0.085 A 
ATOM     16  C   UNL     1      12.763   9.911  17.143  0.00  0.00    +0.076 A 
ATOM     17  C   UNL     1      12.668   8.641  17.646  0.00  0.00    +0.167 A 
BRANCH  17  19
ATOM     19  C   UNL     1      12.209   8.078  18.882  0.00  0.00    +0.020 A 
ATOM     21  C   UNL     1      12.739   6.871  19.338  0.00  0.00    +0.011 A 
ATOM     22  C   UNL     1      11.231   8.736  19.628  0.00  0.00    +0.011 A 
ATOM     24  C   UNL     1      12.292   6.322  20.540  0.00  0.00    +0.001 A 
ATOM     25  C   UNL     1      10.783   8.188  20.829  0.00  0.00    +0.001 A 
ATOM     28  C   UNL     1      11.313   6.981  21.286  0.00  0.00    +0.000 A 
ENDBRANCH  17  19
ENDBRANCH  12  14
ENDBRANCH   8  12
BRANCH   7  13
ATOM     13  C   UNL     1      14.824  13.280  16.056  0.00  0.00    +0.099 C 
BRANCH  13  15
ATOM      2  O   UNL     1      13.788  14.557  17.831  0.00  0.00    -0.276 OA
ATOM      5  N   UNL     1      14.545  12.404  18.268  0.00  0.00    -0.311 N 
ATOM     15  C   UNL     1      14.321  13.513  17.465  0.00  0.00    +0.214 C 
ATOM     30  H   UNL     1      14.946  11.567  17.856  0.00  0.00    +0.149 HD
BRANCH   5  18
ATOM     18  C   UNL     1      14.168  12.349  19.661  0.00  0.00    +0.146 C 
BRANCH  18  20
ATOM      1  S   UNL     1      13.808  10.588  21.780  0.00  0.00    -0.100 S 
ATOM     20  C   UNL     1      14.520  11.030  20.287  0.00  0.00    +0.007 A 
ATOM     23  C   UNL     1      15.381  10.061  19.818  0.00  0.00    +0.013 A 
ATOM     26  C   UNL     1      15.455   8.942  20.696  0.00  0.00    +0.008 A 
ATOM     27  C   UNL     1      14.649   9.097  21.802  0.00  0.00    +0.045 A 
ENDBRANCH  18  20
ENDBRANCH   5  18
ENDBRANCH  13  15
ENDBRANCH   7  13
TORSDOF 7
ENDMDL
MODEL 7
REMARK VINA RESULT:      -6.5      1.586      2.163
REMARK  Name = 40777401
REMARK  7 active torsions:
REMARK  status: ('A' for Active; 'I' for Inactive)
REMARK    1  A    between atoms: N_5  and  C_18
REMARK    2  A    between atoms: C_7  and  C_13
REMARK    3  A    between atoms: C_8  and  C_12
REMARK    4  A    between atoms: C_12  and  C_14
REMARK    5  A    between atoms: C_13  and  C_15
REMARK    6  A    between atoms: C_17  and  C_19
REMARK    7  A    between atoms: C_18  and  C_20
REMARK                            x       y       z     vdW  Elec       q    Type
REMARK                         _______ _______ _______ _____ _____    ______ ____
ROOT
ATOM      4  N   UNL     1      12.760   6.965  21.822  0.00  0.00    -0.316 NA
ATOM      7  C   UNL     1      13.770   7.396  19.084  0.00  0.00    +0.004 C 
ATOM      8  C   UNL     1      14.703   7.304  20.315  0.00  0.00    +0.012 C 
ATOM      9  C   UNL     1      12.460   6.651  19.390  0.00  0.00    +0.019 C 
ATOM     10  C   UNL     1      13.986   7.735  21.605  0.00  0.00    +0.085 C 
ATOM     11  C   UNL     1      11.827   7.102  20.705  0.00  0.00    +0.081 C 
ATOM     29  H   UNL     1      12.309   7.283  22.680  0.00  0.00    +0.122 HD
ENDROOT
BRANCH   8  12
ATOM     12  C   UNL     1      16.006   8.086  20.138  0.00  0.00    +0.064 C 
BRANCH  12  14
ATOM      3  O   UNL     1      18.471   5.513  19.626  0.00  0.00    -0.354 OA
ATOM      6  N   UNL     1      17.257   6.128  19.341  0.00  0.00    -0.083 NA
ATOM     14  C   UNL     1      17.199   7.176  20.167  0.00  0.00    +0.085 A 
ATOM     16  C   UNL     1      18.337   7.273  20.988  0.00  0.00    +0.076 A 
ATOM     17  C   UNL     1      19.104   6.205  20.608  0.00  0.00    +0.167 A 
BRANCH  17  19
ATOM     19  C   UNL     1      20.378   5.684  21.012  0.00  0.00    +0.020 A 
ATOM     21  C   UNL     1      20.746   4.388  20.654  0.00  0.00    +0.011 A 
ATOM     22  C   UNL     1      21.248   6.473  21.763  0.00  0.00    +0.011 A 
ATOM     24  C   UNL     1      21.985   3.880  21.047  0.00  0.00    +0.001 A 
ATOM     25  C   UNL     1      22.486   5.967  22.157  0.00  0.00    +0.001 A 
ATOM     28  C   UNL     1      22.855   4.670  21.799  0.00  0.00    +0.000 A 
ENDBRANCH  17  19
ENDBRANCH  12  14
ENDBRANCH   8  12
BRANCH   7  13
ATOM     13  C   UNL     1      13.487   8.831  18.622  0.00  0.00    +0.099 C 
BRANCH  13  15
ATOM      2  O   UNL     1      13.645   8.046  16.338  0.00  0.00    -0.276 OA
ATOM      5  N   UNL     1      13.773  10.325  16.772  0.00  0.00    -0.311 N 
ATOM     15  C   UNL     1      13.640   8.990  17.124  0.00  0.00    +0.214 C 
ATOM     30  H   UNL     1      13.702  11.038  17.492  0.00  0.00    +0.149 HD
BRANCH   5  18
ATOM     18  C   UNL     1      13.938  10.769  15.407  0.00  0.00    +0.146 C 
BRANCH  18  20
ATOM      1  S   UNL     1      15.803  11.816  13.634  0.00  0.00    -0.100 S 
ATOM     20  C   UNL     1      15.212  11.540  15.217  0.00  0.00    +0.007 A 
ATOM     23  C   UNL     1      16.031  12.094  16.178  0.00  0.00    +0.013 A 
ATOM     26  C   UNL     1      17.156  12.754  15.605  0.00  0.00    +0.008 A 
ATOM     27  C   UNL     1      17.156  12.679  14.230  0.00  0.00    +0.045 A 
ENDBRANCH  18  20
ENDBRANCH   5  18
ENDBRANCH  13  15
ENDBRANCH   7  13
TORSDOF 7
ENDMDL
MODEL 8
REMARK VINA RESULT:      -6.5     16.188     19.817
REMARK  Name = 40777401
REMARK  7 active torsions:
REMARK  status: ('A' for Active; 'I' for Inactive)
REMARK    1  A    between atoms: N_5  and  C_18
REMARK    2  A    between atoms: C_7  and  C_13
REMARK    3  A    between atoms: C_8  and  C_12
REMARK    4  A    between atoms: C_12  and  C_14
REMARK    5  A    between atoms: C_13  and  C_15
REMARK    6  A    between atoms: C_17  and  C_19
REMARK    7  A    between atoms: C_18  and  C_20
REMARK                            x       y       z     vdW  Elec       q    Type
REMARK                         _______ _______ _______ _____ _____    ______ ____
ROOT
ATOM      4  N   UNL     1      15.406   4.095   1.232  0.00  0.00    -0.316 NA
ATOM      7  C   UNL     1      13.035   4.232  -0.519  0.00  0.00    +0.004 C 
ATOM      8  C   UNL     1      12.943   4.329   1.023  0.00  0.00    +0.012 C 
ATOM      9  C   UNL     1      14.439   4.672  -0.967  0.00  0.00    +0.019 C 
ATOM     10  C   UNL     1      14.113   3.604   1.708  0.00  0.00    +0.085 C 
ATOM     11  C   UNL     1      15.547   3.938  -0.215  0.00  0.00    +0.081 C 
ATOM     29  H   UNL     1      16.155   3.586   1.702  0.00  0.00    +0.122 HD
ENDROOT
BRANCH   8  12
ATOM     12  C   UNL     1      11.606   3.834   1.576  0.00  0.00    +0.064 C 
BRANCH  12  14
ATOM      3  O   UNL     1      10.357   6.627   3.474  0.00  0.00    -0.354 OA
ATOM      6  N   UNL     1      10.855   6.057   2.309  0.00  0.00    -0.083 NA
ATOM     14  C   UNL     1      11.062   4.772   2.614  0.00  0.00    +0.085 A 
ATOM     16  C   UNL     1      10.716   4.477   3.944  0.00  0.00    +0.076 A 
ATOM     17  C   UNL     1      10.279   5.676   4.441  0.00  0.00    +0.167 A 
BRANCH  17  19
ATOM     19  C   UNL     1       9.780   6.121   5.710  0.00  0.00    +0.020 A 
ATOM     21  C   UNL     1       9.053   7.308   5.796  0.00  0.00    +0.011 A 
ATOM     22  C   UNL     1      10.023   5.367   6.858  0.00  0.00    +0.011 A 
ATOM     24  C   UNL     1       8.568   7.741   7.030  0.00  0.00    +0.001 A 
ATOM     25  C   UNL     1       9.539   5.800   8.092  0.00  0.00    +0.001 A 
ATOM     28  C   UNL     1       8.811   6.987   8.179  0.00  0.00    +0.000 A 
ENDBRANCH  17  19
ENDBRANCH  12  14
ENDBRANCH   8  12
BRANCH   7  13
ATOM     13  C   UNL     1      12.693   2.845  -1.077  0.00  0.00    +0.099 C 
BRANCH  13  15
ATOM      2  O   UNL     1      12.705   2.842  -3.496  0.00  0.00    -0.276 OA
ATOM      5  N   UNL     1      10.690   3.089  -2.366  0.00  0.00    -0.311 N 
ATOM     15  C   UNL     1      12.064   2.920  -2.452  0.00  0.00    +0.214 C 
ATOM     30  H   UNL     1      10.246   3.088  -1.453  0.00  0.00    +0.149 HD
BRANCH   5  18
ATOM     18  C   UNL     1       9.834   3.195  -3.526  0.00  0.00    +0.146 C 
BRANCH  18  20
ATOM      1  S   UNL     1       9.123   5.509  -2.163  0.00  0.00    -0.100 S 
ATOM     20  C   UNL     1       9.024   4.459  -3.511  0.00  0.00    +0.007 A 
ATOM     23  C   UNL     1       8.158   4.934  -4.473  0.00  0.00    +0.013 A 
ATOM     26  C   UNL     1       7.571   6.176  -4.098  0.00  0.00    +0.008 A 
ATOM     27  C   UNL     1       8.008   6.604  -2.864  0.00  0.00    +0.045 A 
ENDBRANCH  18  20
ENDBRANCH   5  18
ENDBRANCH  13  15
ENDBRANCH   7  13
TORSDOF 7
ENDMDL
MODEL 9
REMARK VINA RESULT:      -6.4      4.699     10.517
REMARK  Name = 40777401
REMARK  7 active torsions:
REMARK  status: ('A' for Active; 'I' for Inactive)
REMARK    1  A    between atoms: N_5  and  C_18
REMARK    2  A    between atoms: C_7  and  C_13
REMARK    3  A    between atoms: C_8  and  C_12
REMARK    4  A    between atoms: C_12  and  C_14
REMARK    5  A    between atoms: C_13  and  C_15
REMARK    6  A    between atoms: C_17  and  C_19
REMARK    7  A    between atoms: C_18  and  C_20
REMARK                            x       y       z     vdW  Elec       q    Type
REMARK                         _______ _______ _______ _____ _____    ______ ____
ROOT
ATOM      4  N   UNL     1      20.663   9.097  21.890  0.00  0.00    -0.316 NA
ATOM      7  C   UNL     1      21.479   6.630  20.492  0.00  0.00    +0.004 C 
ATOM      8  C   UNL     1      19.998   7.048  20.657  0.00  0.00    +0.012 C 
ATOM      9  C   UNL     1      22.366   7.884  20.575  0.00  0.00    +0.019 C 
ATOM     10  C   UNL     1      19.789   7.923  21.904  0.00  0.00    +0.085 C 
ATOM     11  C   UNL     1      22.074   8.723  21.818  0.00  0.00    +0.081 C 
ATOM     29  H   UNL     1      20.502   9.647  22.735  0.00  0.00    +0.122 HD
ENDROOT
BRANCH   8  12
ATOM     12  C   UNL     1      19.038   5.857  20.669  0.00  0.00    +0.064 C 
BRANCH  12  14
ATOM      3  O   UNL     1      16.219   6.072  18.440  0.00  0.00    -0.354 OA
ATOM      6  N   UNL     1      17.446   5.543  18.824  0.00  0.00    -0.083 NA
ATOM     14  C   UNL     1      17.757   6.180  19.957  0.00  0.00    +0.085 A 
ATOM     16  C   UNL     1      16.773   7.112  20.333  0.00  0.00    +0.076 A 
ATOM     17  C   UNL     1      15.830   7.005  19.346  0.00  0.00    +0.167 A 
BRANCH  17  19
ATOM     19  C   UNL     1      14.573   7.643  19.079  0.00  0.00    +0.020 A 
ATOM     21  C   UNL     1      14.541   8.864  18.406  0.00  0.00    +0.011 A 
ATOM     22  C   UNL     1      13.384   7.045  19.495  0.00  0.00    +0.011 A 
ATOM     24  C   UNL     1      13.319   9.486  18.147  0.00  0.00    +0.001 A 
ATOM     25  C   UNL     1      12.163   7.666  19.237  0.00  0.00    +0.001 A 
ATOM     28  C   UNL     1      12.129   8.887  18.563  0.00  0.00    +0.000 A 
ENDBRANCH  17  19
ENDBRANCH  12  14
ENDBRANCH   8  12
BRANCH   7  13
ATOM     13  C   UNL     1      21.942   5.567  21.496  0.00  0.00    +0.099 C 
BRANCH  13  15
ATOM      2  O   UNL     1      24.337   5.550  21.836  0.00  0.00    -0.276 OA
ATOM      5  N   UNL     1      23.403   4.149  20.235  0.00  0.00    -0.311 N 
ATOM     15  C   UNL     1      23.361   5.111  21.233  0.00  0.00    +0.214 C 
ATOM     30  H   UNL     1      22.533   3.812  19.834  0.00  0.00    +0.149 HD
BRANCH   5  18
ATOM     18  C   UNL     1      24.630   3.538  19.777  0.00  0.00    +0.146 C 
BRANCH  18  20
ATOM      1  S   UNL     1      26.656   2.630  21.448  0.00  0.00    -0.100 S 
ATOM     20  C   UNL     1      25.113   2.475  20.720  0.00  0.00    +0.007 A 
ATOM     23  C   UNL     1      24.470   1.322  21.115  0.00  0.00    +0.013 A 
ATOM     26  C   UNL     1      25.254   0.558  22.027  0.00  0.00    +0.008 A 
ATOM     27  C   UNL     1      26.466   1.154  22.294  0.00  0.00    +0.045 A 
ENDBRANCH  18  20
ENDBRANCH   5  18
ENDBRANCH  13  15
ENDBRANCH   7  13
TORSDOF 7
ENDMDL
MODEL 10
REMARK VINA RESULT:      -6.3      2.764      5.054
REMARK  Name = 40777401
REMARK  7 active torsions:
REMARK  status: ('A' for Active; 'I' for Inactive)
REMARK    1  A    between atoms: N_5  and  C_18
REMARK    2  A    between atoms: C_7  and  C_13
REMARK    3  A    between atoms: C_8  and  C_12
REMARK    4  A    between atoms: C_12  and  C_14
REMARK    5  A    between atoms: C_13  and  C_15
REMARK    6  A    between atoms: C_17  and  C_19
REMARK    7  A    between atoms: C_18  and  C_20
REMARK                            x       y       z     vdW  Elec       q    Type
REMARK                         _______ _______ _______ _____ _____    ______ ____
ROOT
ATOM      4  N   UNL     1      11.759   7.727  16.964  0.00  0.00    -0.316 NA
ATOM      7  C   UNL     1      14.135   9.073  18.080  0.00  0.00    +0.004 C 
ATOM      8  C   UNL     1      13.735   7.628  18.463  0.00  0.00    +0.012 C 
ATOM      9  C   UNL     1      13.551   9.407  16.697  0.00  0.00    +0.019 C 
ATOM     10  C   UNL     1      12.223   7.398  18.313  0.00  0.00    +0.085 C 
ATOM     11  C   UNL     1      12.054   9.115  16.611  0.00  0.00    +0.081 C 
ATOM     29  H   UNL     1      10.752   7.571  16.906  0.00  0.00    +0.122 HD
ENDROOT
BRANCH   8  12
ATOM     12  C   UNL     1      14.203   7.228  19.863  0.00  0.00    +0.064 C 
BRANCH  12  14
ATOM      3  O   UNL     1      17.440   5.867  19.069  0.00  0.00    -0.354 OA
ATOM      6  N   UNL     1      16.129   6.193  18.742  0.00  0.00    -0.083 NA
ATOM     14  C   UNL     1      15.624   6.746  19.849  0.00  0.00    +0.085 A 
ATOM     16  C   UNL     1      16.562   6.796  20.895  0.00  0.00    +0.076 A 
ATOM     17  C   UNL     1      17.685   6.231  20.353  0.00  0.00    +0.167 A 
BRANCH  17  19
ATOM     19  C   UNL     1      19.007   5.954  20.836  0.00  0.00    +0.020 A 
ATOM     21  C   UNL     1      19.826   5.058  20.150  0.00  0.00    +0.011 A 
ATOM     22  C   UNL     1      19.474   6.580  21.992  0.00  0.00    +0.011 A 
ATOM     24  C   UNL     1      21.112   4.787  20.619  0.00  0.00    +0.001 A 
ATOM     25  C   UNL     1      20.758   6.310  22.461  0.00  0.00    +0.001 A 
ATOM     28  C   UNL     1      21.578   5.413  21.775  0.00  0.00    +0.000 A 
ENDBRANCH  17  19
ENDBRANCH  12  14
ENDBRANCH   8  12
BRANCH   7  13
ATOM     13  C   UNL     1      13.724  10.128  19.115  0.00  0.00    +0.099 C 
BRANCH  13  15
ATOM      2  O   UNL     1      16.060  10.262  19.730  0.00  0.00    -0.276 OA
ATOM      5  N   UNL     1      14.503  11.553  20.875  0.00  0.00    -0.311 N 
ATOM     15  C   UNL     1      14.904  10.634  19.917  0.00  0.00    +0.214 C 
ATOM     30  H   UNL     1      13.529  11.835  20.915  0.00  0.00    +0.149 HD
BRANCH   5  18
ATOM     18  C   UNL     1      15.423  12.196  21.786  0.00  0.00    +0.146 C 
BRANCH  18  20
ATOM      1  S   UNL     1      13.417  11.434  23.551  0.00  0.00    -0.100 S 
ATOM     20  C   UNL     1      14.902  12.208  23.194  0.00  0.00    +0.007 A 
ATOM     23  C   UNL     1      15.468  12.780  24.313  0.00  0.00    +0.013 A 
ATOM     26  C   UNL     1      14.672  12.579  25.477  0.00  0.00    +0.008 A 
ATOM     27  C   UNL     1      13.528  11.863  25.205  0.00  0.00    +0.045 A 
ENDBRANCH  18  20
ENDBRANCH   5  18
ENDBRANCH  13  15
ENDBRANCH   7  13
TORSDOF 7
ENDMDL
