MODEL 1
REMARK VINA RESULT:      -7.5      0.000      0.000
REMARK  Name = 7134512
REMARK  13 active torsions:
REMARK  status: ('A' for Active; 'I' for Inactive)
REMARK    1  A    between atoms: O_2  and  C_12
REMARK    2  A    between atoms: O_3  and  C_15
REMARK    3  A    between atoms: O_4  and  C_17
REMARK    4  A    between atoms: O_8  and  C_32
REMARK    5  A    between atoms: O_8  and  C_34
REMARK    6  A    between atoms: N_9  and  C_13
REMARK    7  A    between atoms: N_10  and  C_20
REMARK    8  A    between atoms: C_12  and  C_18
REMARK    9  A    between atoms: C_19  and  C_22
REMARK   10  A    between atoms: C_20  and  C_21
REMARK   11  A    between atoms: C_20  and  C_23
REMARK   12  A    between atoms: C_21  and  C_24
REMARK   13  A    between atoms: C_22  and  C_25
REMARK                            x       y       z     vdW  Elec       q    Type
REMARK                         _______ _______ _______ _____ _____    ______ ____
ROOT
ATOM     12  C   UNL     1      13.639   8.360  20.345  0.00  0.00    +0.146 C 
ATOM     13  C   UNL     1      11.801   8.909  22.012  0.00  0.00    +0.107 C 
ATOM     14  C   UNL     1      13.297   9.001  21.692  0.00  0.00    +0.069 C 
ATOM     15  C   UNL     1      11.285   7.467  21.920  0.00  0.00    +0.163 C 
ATOM     16  C   UNL     1      13.137   6.919  20.274  0.00  0.00    +0.078 C 
ATOM     17  C   UNL     1      11.642   6.814  20.582  0.00  0.00    +0.148 C 
ENDROOT
BRANCH  12  18
ATOM      5  O   UNL     1      15.697   9.452  19.819  0.00  0.00    -0.273 OA
ATOM     10  N   UNL     1      15.706   7.156  20.204  0.00  0.00    -0.301 N 
ATOM     18  C   UNL     1      15.119   8.405  20.098  0.00  0.00    +0.246 C 
ATOM     39  H   UNL     1      15.136   6.339  20.398  0.00  0.00    +0.150 HD
BRANCH  10  20
ATOM     20  C   UNL     1      17.116   6.924  19.989  0.00  0.00    +0.163 C 
BRANCH  20  23
ATOM      7  O   UNL     1      16.394   5.645  18.054  0.00  0.00    -0.274 OA
ATOM     11  N   UNL     1      18.416   5.134  19.017  0.00  0.00    -0.328 N 
ATOM     23  C   UNL     1      17.236   5.842  18.927  0.00  0.00    +0.231 C 
ATOM     40  H   UNL     1      19.104   5.307  19.743  0.00  0.00    +0.145 HD
ATOM     41  H   UNL     1      18.628   4.391  18.359  0.00  0.00    +0.145 HD
ENDBRANCH  20  23
BRANCH  20  21
ATOM     21  C   UNL     1      17.837   6.498  21.274  0.00  0.00    +0.067 C 
BRANCH  21  24
ATOM     24  C   UNL     1      18.894   7.474  21.707  0.00  0.00    -0.045 A 
ATOM     26  C   UNL     1      20.178   7.019  21.979  0.00  0.00    +0.007 A 
ATOM     27  C   UNL     1      18.576   8.821  21.833  0.00  0.00    +0.007 A 
ATOM     29  C   UNL     1      21.160   7.925  22.382  0.00  0.00    +0.046 A 
ATOM     30  C   UNL     1      19.556   9.726  22.236  0.00  0.00    +0.046 A 
ATOM     32  C   UNL     1      20.848   9.279  22.511  0.00  0.00    +0.120 A 
BRANCH  32   8
ATOM      8  O   UNL     1      21.807  10.162  22.903  0.00  0.00    -0.495 OA
ATOM     34  C   UNL     1      21.532  11.548  22.704  0.00  0.00    +0.277 C 
ENDBRANCH  32   8
ENDBRANCH  21  24
ENDBRANCH  20  21
ENDBRANCH  10  20
ENDBRANCH  12  18
BRANCH  13   9
ATOM      6  O   UNL     1      11.022  11.608  22.633  0.00  0.00    -0.275 OA
ATOM      9  N   UNL     1      11.549   9.457  23.327  0.00  0.00    -0.310 N 
ATOM     19  C   UNL     1      11.177  10.775  23.523  0.00  0.00    +0.218 C 
ATOM     35  H   UNL     1      11.716   8.863  24.134  0.00  0.00    +0.149 HD
BRANCH  19  22
ATOM     22  C   UNL     1      10.952  11.113  24.984  0.00  0.00    +0.138 C 
BRANCH  22  25
ATOM      1  S   UNL     1      13.031  12.910  25.245  0.00  0.00    -0.101 S 
ATOM     25  C   UNL     1      11.371  12.536  25.231  0.00  0.00    -0.001 A 
ATOM     28  C   UNL     1      10.569  13.615  25.453  0.00  0.00    +0.011 A 
ATOM     31  C   UNL     1      11.337  14.799  25.645  0.00  0.00    +0.008 A 
ATOM     33  C   UNL     1      12.690  14.559  25.557  0.00  0.00    +0.045 A 
ENDBRANCH  22  25
ENDBRANCH  19  22
ENDBRANCH  13   9
BRANCH  12   2
ATOM      2  O   UNL     1      13.064   9.105  19.278  0.00  0.00    -0.379 OA
ATOM     36  H   UNL     1      12.469   8.518  18.782  0.00  0.00    +0.211 HD
ENDBRANCH  12   2
BRANCH  15   3
ATOM      3  O   UNL     1       9.859   7.474  22.029  0.00  0.00    -0.387 OA
ATOM     37  H   UNL     1       9.517   8.117  21.385  0.00  0.00    +0.210 HD
ENDBRANCH  15   3
BRANCH  17   4
ATOM      4  O   UNL     1      11.280   5.434  20.642  0.00  0.00    -0.389 OA
ATOM     38  H   UNL     1      10.645   5.327  21.370  0.00  0.00    +0.210 HD
ENDBRANCH  17   4
TORSDOF 12
ENDMDL
MODEL 2
REMARK VINA RESULT:      -7.3      3.872      8.955
REMARK  Name = 7134512
REMARK  13 active torsions:
REMARK  status: ('A' for Active; 'I' for Inactive)
REMARK    1  A    between atoms: O_2  and  C_12
REMARK    2  A    between atoms: O_3  and  C_15
REMARK    3  A    between atoms: O_4  and  C_17
REMARK    4  A    between atoms: O_8  and  C_32
REMARK    5  A    between atoms: O_8  and  C_34
REMARK    6  A    between atoms: N_9  and  C_13
REMARK    7  A    between atoms: N_10  and  C_20
REMARK    8  A    between atoms: C_12  and  C_18
REMARK    9  A    between atoms: C_19  and  C_22
REMARK   10  A    between atoms: C_20  and  C_21
REMARK   11  A    between atoms: C_20  and  C_23
REMARK   12  A    between atoms: C_21  and  C_24
REMARK   13  A    between atoms: C_22  and  C_25
REMARK                            x       y       z     vdW  Elec       q    Type
REMARK                         _______ _______ _______ _____ _____    ______ ____
ROOT
ATOM     12  C   UNL     1      15.901   7.345  21.095  0.00  0.00    +0.146 C 
ATOM     13  C   UNL     1      18.396   6.877  21.215  0.00  0.00    +0.107 C 
ATOM     14  C   UNL     1      17.285   7.912  21.419  0.00  0.00    +0.069 C 
ATOM     15  C   UNL     1      18.349   6.258  19.812  0.00  0.00    +0.163 C 
ATOM     16  C   UNL     1      15.862   6.749  19.689  0.00  0.00    +0.078 C 
ATOM     17  C   UNL     1      16.961   5.707  19.474  0.00  0.00    +0.148 C 
ENDROOT
BRANCH  12  18
ATOM      5  O   UNL     1      15.115   9.531  21.649  0.00  0.00    -0.273 OA
ATOM     10  N   UNL     1      13.592   7.947  20.878  0.00  0.00    -0.301 N 
ATOM     18  C   UNL     1      14.848   8.405  21.237  0.00  0.00    +0.246 C 
ATOM     39  H   UNL     1      13.464   6.983  20.589  0.00  0.00    +0.150 HD
BRANCH  10  20
ATOM     20  C   UNL     1      12.403   8.766  20.946  0.00  0.00    +0.163 C 
BRANCH  20  23
ATOM      7  O   UNL     1      11.025   7.014  21.912  0.00  0.00    -0.274 OA
ATOM     11  N   UNL     1      11.288   8.974  23.080  0.00  0.00    -0.328 N 
ATOM     23  C   UNL     1      11.493   8.146  21.996  0.00  0.00    +0.231 C 
ATOM     40  H   UNL     1      11.682   9.909  23.138  0.00  0.00    +0.145 HD
ATOM     41  H   UNL     1      10.711   8.677  23.860  0.00  0.00    +0.145 HD
ENDBRANCH  20  23
BRANCH  20  21
ATOM     21  C   UNL     1      11.682   8.857  19.595  0.00  0.00    +0.067 C 
BRANCH  21  24
ATOM     24  C   UNL     1      12.591   9.258  18.468  0.00  0.00    -0.045 A 
ATOM     26  C   UNL     1      13.192  10.510  18.484  0.00  0.00    +0.007 A 
ATOM     27  C   UNL     1      12.819   8.373  17.422  0.00  0.00    +0.007 A 
ATOM     29  C   UNL     1      14.035  10.883  17.437  0.00  0.00    +0.046 A 
ATOM     30  C   UNL     1      13.661   8.745  16.375  0.00  0.00    +0.046 A 
ATOM     32  C   UNL     1      14.269  10.000  16.382  0.00  0.00    +0.120 A 
BRANCH  32   8
ATOM      8  O   UNL     1      15.093  10.364  15.362  0.00  0.00    -0.495 OA
ATOM     34  C   UNL     1      15.305  11.762  15.166  0.00  0.00    +0.277 C 
ENDBRANCH  32   8
ENDBRANCH  21  24
ENDBRANCH  20  21
ENDBRANCH  10  20
ENDBRANCH  12  18
BRANCH  13   9
ATOM      6  O   UNL     1      20.335   6.084  23.188  0.00  0.00    -0.275 OA
ATOM      9  N   UNL     1      19.684   7.489  21.458  0.00  0.00    -0.310 N 
ATOM     19  C   UNL     1      20.550   7.033  22.437  0.00  0.00    +0.218 C 
ATOM     35  H   UNL     1      19.926   8.323  20.931  0.00  0.00    +0.149 HD
BRANCH  19  22
ATOM     22  C   UNL     1      21.845   7.820  22.492  0.00  0.00    +0.138 C 
BRANCH  22  25
ATOM      1  S   UNL     1      24.273   6.601  22.972  0.00  0.00    -0.101 S 
ATOM     25  C   UNL     1      22.962   6.970  21.954  0.00  0.00    -0.001 A 
ATOM     28  C   UNL     1      23.072   6.431  20.707  0.00  0.00    +0.011 A 
ATOM     31  C   UNL     1      24.278   5.684  20.573  0.00  0.00    +0.008 A 
ATOM     33  C   UNL     1      25.025   5.693  21.729  0.00  0.00    +0.045 A 
ENDBRANCH  22  25
ENDBRANCH  19  22
ENDBRANCH  13   9
BRANCH  12   2
ATOM      2  O   UNL     1      15.542   6.339  22.036  0.00  0.00    -0.379 OA
ATOM     36  H   UNL     1      14.590   6.419  22.219  0.00  0.00    +0.211 HD
ENDBRANCH  12   2
BRANCH  15   3
ATOM      3  O   UNL     1      19.272   5.167  19.752  0.00  0.00    -0.387 OA
ATOM     37  H   UNL     1      19.816   5.285  18.955  0.00  0.00    +0.210 HD
ENDBRANCH  15   3
BRANCH  17   4
ATOM      4  O   UNL     1      16.955   5.307  18.104  0.00  0.00    -0.389 OA
ATOM     38  H   UNL     1      17.340   6.031  17.583  0.00  0.00    +0.210 HD
ENDBRANCH  17   4
TORSDOF 12
ENDMDL
MODEL 3
REMARK VINA RESULT:      -7.2      2.956      8.866
REMARK  Name = 7134512
REMARK  13 active torsions:
REMARK  status: ('A' for Active; 'I' for Inactive)
REMARK    1  A    between atoms: O_2  and  C_12
REMARK    2  A    between atoms: O_3  and  C_15
REMARK    3  A    between atoms: O_4  and  C_17
REMARK    4  A    between atoms: O_8  and  C_32
REMARK    5  A    between atoms: O_8  and  C_34
REMARK    6  A    between atoms: N_9  and  C_13
REMARK    7  A    between atoms: N_10  and  C_20
REMARK    8  A    between atoms: C_12  and  C_18
REMARK    9  A    between atoms: C_19  and  C_22
REMARK   10  A    between atoms: C_20  and  C_21
REMARK   11  A    between atoms: C_20  and  C_23
REMARK   12  A    between atoms: C_21  and  C_24
REMARK   13  A    between atoms: C_22  and  C_25
REMARK                            x       y       z     vdW  Elec       q    Type
REMARK                         _______ _______ _______ _____ _____    ______ ____
ROOT
ATOM     12  C   UNL     1      15.334   7.064  20.415  0.00  0.00    +0.146 C 
ATOM     13  C   UNL     1      17.730   7.056  21.263  0.00  0.00    +0.107 C 
ATOM     14  C   UNL     1      16.428   7.854  21.137  0.00  0.00    +0.069 C 
ATOM     15  C   UNL     1      18.210   6.529  19.904  0.00  0.00    +0.163 C 
ATOM     16  C   UNL     1      15.819   6.563  19.056  0.00  0.00    +0.078 C 
ATOM     17  C   UNL     1      17.113   5.756  19.168  0.00  0.00    +0.148 C 
ENDROOT
BRANCH  12  18
ATOM      5  O   UNL     1      13.852   8.486  19.197  0.00  0.00    -0.273 OA
ATOM     10  N   UNL     1      13.331   7.936  21.398  0.00  0.00    -0.301 N 
ATOM     18  C   UNL     1      14.100   7.901  20.248  0.00  0.00    +0.246 C 
ATOM     39  H   UNL     1      13.641   7.452  22.234  0.00  0.00    +0.150 HD
BRANCH  10  20
ATOM     20  C   UNL     1      12.102   8.690  21.505  0.00  0.00    +0.163 C 
BRANCH  20  23
ATOM      7  O   UNL     1      10.548   8.406  19.659  0.00  0.00    -0.274 OA
ATOM     11  N   UNL     1      10.763   6.704  21.187  0.00  0.00    -0.328 N 
ATOM     23  C   UNL     1      11.053   7.955  20.684  0.00  0.00    +0.231 C 
ATOM     40  H   UNL     1      11.188   6.343  22.036  0.00  0.00    +0.145 HD
ATOM     41  H   UNL     1      10.088   6.102  20.726  0.00  0.00    +0.145 HD
ENDBRANCH  20  23
BRANCH  20  21
ATOM     21  C   UNL     1      12.260  10.132  21.006  0.00  0.00    +0.067 C 
BRANCH  21  24
ATOM     24  C   UNL     1      11.669  11.147  21.943  0.00  0.00    -0.045 A 
ATOM     26  C   UNL     1      11.323  10.769  23.234  0.00  0.00    +0.007 A 
ATOM     27  C   UNL     1      11.473  12.452  21.508  0.00  0.00    +0.007 A 
ATOM     29  C   UNL     1      10.773  11.711  24.104  0.00  0.00    +0.046 A 
ATOM     30  C   UNL     1      10.923  13.393  22.377  0.00  0.00    +0.046 A 
ATOM     32  C   UNL     1      10.573  13.023  23.675  0.00  0.00    +0.120 A 
BRANCH  32   8
ATOM      8  O   UNL     1      10.037  13.941  24.525  0.00  0.00    -0.495 OA
ATOM     34  C   UNL     1       9.665  15.201  23.968  0.00  0.00    +0.277 C 
ENDBRANCH  32   8
ENDBRANCH  21  24
ENDBRANCH  20  21
ENDBRANCH  10  20
ENDBRANCH  12  18
BRANCH  13   9
ATOM      6  O   UNL     1      19.817   6.171  23.036  0.00  0.00    -0.275 OA
ATOM      9  N   UNL     1      18.748   7.877  21.880  0.00  0.00    -0.310 N 
ATOM     19  C   UNL     1      19.714   7.355  22.723  0.00  0.00    +0.218 C 
ATOM     35  H   UNL     1      18.707   8.882  21.735  0.00  0.00    +0.149 HD
BRANCH  19  22
ATOM     22  C   UNL     1      20.682   8.405  23.233  0.00  0.00    +0.138 C 
BRANCH  22  25
ATOM      1  S   UNL     1      23.036   7.450  24.312  0.00  0.00    -0.101 S 
ATOM     25  C   UNL     1      22.089   7.939  22.985  0.00  0.00    -0.001 A 
ATOM     28  C   UNL     1      22.739   7.850  21.791  0.00  0.00    +0.011 A 
ATOM     31  C   UNL     1      24.068   7.363  21.961  0.00  0.00    +0.008 A 
ATOM     33  C   UNL     1      24.359   7.105  23.281  0.00  0.00    +0.045 A 
ENDBRANCH  22  25
ENDBRANCH  19  22
ENDBRANCH  13   9
BRANCH  12   2
ATOM      2  O   UNL     1      14.922   5.952  21.201  0.00  0.00    -0.379 OA
ATOM     36  H   UNL     1      14.196   5.502  20.735  0.00  0.00    +0.211 HD
ENDBRANCH  12   2
BRANCH  15   3
ATOM      3  O   UNL     1      19.305   5.633  20.111  0.00  0.00    -0.387 OA
ATOM     37  H   UNL     1      19.941   5.773  19.390  0.00  0.00    +0.210 HD
ENDBRANCH  15   3
BRANCH  17   4
ATOM      4  O   UNL     1      17.580   5.450  17.854  0.00  0.00    -0.389 OA
ATOM     38  H   UNL     1      18.550   5.391  17.892  0.00  0.00    +0.210 HD
ENDBRANCH  17   4
TORSDOF 12
ENDMDL
MODEL 4
REMARK VINA RESULT:      -6.8     27.257     31.309
REMARK  Name = 7134512
REMARK  13 active torsions:
REMARK  status: ('A' for Active; 'I' for Inactive)
REMARK    1  A    between atoms: O_2  and  C_12
REMARK    2  A    between atoms: O_3  and  C_15
REMARK    3  A    between atoms: O_4  and  C_17
REMARK    4  A    between atoms: O_8  and  C_32
REMARK    5  A    between atoms: O_8  and  C_34
REMARK    6  A    between atoms: N_9  and  C_13
REMARK    7  A    between atoms: N_10  and  C_20
REMARK    8  A    between atoms: C_12  and  C_18
REMARK    9  A    between atoms: C_19  and  C_22
REMARK   10  A    between atoms: C_20  and  C_21
REMARK   11  A    between atoms: C_20  and  C_23
REMARK   12  A    between atoms: C_21  and  C_24
REMARK   13  A    between atoms: C_22  and  C_25
REMARK                            x       y       z     vdW  Elec       q    Type
REMARK                         _______ _______ _______ _____ _____    ______ ____
ROOT
ATOM     12  C   UNL     1      -6.958 -10.358  17.636  0.00  0.00    +0.146 C 
ATOM     13  C   UNL     1      -4.711 -10.895  16.580  0.00  0.00    +0.107 C 
ATOM     14  C   UNL     1      -5.935  -9.974  16.566  0.00  0.00    +0.069 C 
ATOM     15  C   UNL     1      -5.107 -12.375  16.485  0.00  0.00    +0.163 C 
ATOM     16  C   UNL     1      -7.360 -11.827  17.518  0.00  0.00    +0.078 C 
ATOM     17  C   UNL     1      -6.147 -12.759  17.541  0.00  0.00    +0.148 C 
ENDROOT
BRANCH  12  18
ATOM      5  O   UNL     1      -8.162  -8.422  16.924  0.00  0.00    -0.273 OA
ATOM     10  N   UNL     1      -9.248 -10.000  18.247  0.00  0.00    -0.301 N 
ATOM     18  C   UNL     1      -8.173  -9.481  17.546  0.00  0.00    +0.246 C 
ATOM     39  H   UNL     1      -9.147 -10.865  18.767  0.00  0.00    +0.150 HD
BRANCH  10  20
ATOM     20  C   UNL     1     -10.528  -9.336  18.336  0.00  0.00    +0.163 C 
BRANCH  20  23
ATOM      7  O   UNL     1     -12.433  -9.984  19.698  0.00  0.00    -0.274 OA
ATOM     11  N   UNL     1     -10.323 -10.219  20.577  0.00  0.00    -0.328 N 
ATOM     23  C   UNL     1     -11.216  -9.857  19.590  0.00  0.00    +0.231 C 
ATOM     40  H   UNL     1      -9.319 -10.109  20.473  0.00  0.00    +0.145 HD
ATOM     41  H   UNL     1     -10.650 -10.596  21.460  0.00  0.00    +0.145 HD
ENDBRANCH  20  23
BRANCH  20  21
ATOM     21  C   UNL     1     -11.402  -9.589  17.100  0.00  0.00    +0.067 C 
BRANCH  21  24
ATOM     24  C   UNL     1     -11.631  -8.352  16.279  0.00  0.00    -0.045 A 
ATOM     26  C   UNL     1     -12.284  -8.451  15.057  0.00  0.00    +0.007 A 
ATOM     27  C   UNL     1     -11.186  -7.123  16.750  0.00  0.00    +0.007 A 
ATOM     29  C   UNL     1     -12.497  -7.303  14.294  0.00  0.00    +0.046 A 
ATOM     30  C   UNL     1     -11.398  -5.975  15.988  0.00  0.00    +0.046 A 
ATOM     32  C   UNL     1     -12.053  -6.065  14.760  0.00  0.00    +0.120 A 
BRANCH  32   8
ATOM      8  O   UNL     1     -12.262  -4.944  14.015  0.00  0.00    -0.495 OA
ATOM     34  C   UNL     1     -12.404  -5.119  12.606  0.00  0.00    +0.277 C 
ENDBRANCH  32   8
ENDBRANCH  21  24
ENDBRANCH  20  21
ENDBRANCH  10  20
ENDBRANCH  12  18
BRANCH  13   9
ATOM      6  O   UNL     1      -1.834 -10.917  16.645  0.00  0.00    -0.275 OA
ATOM      9  N   UNL     1      -3.817 -10.537  15.500  0.00  0.00    -0.310 N 
ATOM     19  C   UNL     1      -2.440 -10.580  15.630  0.00  0.00    +0.218 C 
ATOM     35  H   UNL     1      -4.223 -10.181  14.640  0.00  0.00    +0.149 HD
BRANCH  19  22
ATOM     22  C   UNL     1      -1.715 -10.177  14.361  0.00  0.00    +0.138 C 
BRANCH  22  25
ATOM      1  S   UNL     1      -2.159 -12.691  13.312  0.00  0.00    -0.101 S 
ATOM     25  C   UNL     1      -2.241 -10.995  13.214  0.00  0.00    -0.001 A 
ATOM     28  C   UNL     1      -2.798 -10.542  12.055  0.00  0.00    +0.011 A 
ATOM     31  C   UNL     1      -3.176 -11.624  11.208  0.00  0.00    +0.008 A 
ATOM     33  C   UNL     1      -2.886 -12.847  11.769  0.00  0.00    +0.045 A 
ENDBRANCH  22  25
ENDBRANCH  19  22
ENDBRANCH  13   9
BRANCH  12   2
ATOM      2  O   UNL     1      -6.431 -10.124  18.937  0.00  0.00    -0.379 OA
ATOM     36  H   UNL     1      -5.526  -9.779  18.842  0.00  0.00    +0.211 HD
ENDBRANCH  12   2
BRANCH  15   3
ATOM      3  O   UNL     1      -3.949 -13.184  16.705  0.00  0.00    -0.387 OA
ATOM     37  H   UNL     1      -3.786 -13.209  17.663  0.00  0.00    +0.210 HD
ENDBRANCH  15   3
BRANCH  17   4
ATOM      4  O   UNL     1      -6.585 -14.092  17.279  0.00  0.00    -0.389 OA
ATOM     38  H   UNL     1      -7.053 -14.087  16.427  0.00  0.00    +0.210 HD
ENDBRANCH  17   4
TORSDOF 12
ENDMDL
MODEL 5
REMARK VINA RESULT:      -6.5     28.034     31.406
REMARK  Name = 7134512
REMARK  13 active torsions:
REMARK  status: ('A' for Active; 'I' for Inactive)
REMARK    1  A    between atoms: O_2  and  C_12
REMARK    2  A    between atoms: O_3  and  C_15
REMARK    3  A    between atoms: O_4  and  C_17
REMARK    4  A    between atoms: O_8  and  C_32
REMARK    5  A    between atoms: O_8  and  C_34
REMARK    6  A    between atoms: N_9  and  C_13
REMARK    7  A    between atoms: N_10  and  C_20
REMARK    8  A    between atoms: C_12  and  C_18
REMARK    9  A    between atoms: C_19  and  C_22
REMARK   10  A    between atoms: C_20  and  C_21
REMARK   11  A    between atoms: C_20  and  C_23
REMARK   12  A    between atoms: C_21  and  C_24
REMARK   13  A    between atoms: C_22  and  C_25
REMARK                            x       y       z     vdW  Elec       q    Type
REMARK                         _______ _______ _______ _____ _____    ______ ____
ROOT
ATOM     12  C   UNL     1      -6.362 -10.345  16.310  0.00  0.00    +0.146 C 
ATOM     13  C   UNL     1      -4.183 -10.672  15.043  0.00  0.00    +0.107 C 
ATOM     14  C   UNL     1      -5.713 -10.709  14.972  0.00  0.00    +0.069 C 
ATOM     15  C   UNL     1      -3.644 -11.535  16.192  0.00  0.00    +0.163 C 
ATOM     16  C   UNL     1      -5.831 -11.225  17.440  0.00  0.00    +0.078 C 
ATOM     17  C   UNL     1      -4.304 -11.190  17.529  0.00  0.00    +0.148 C 
ENDROOT
BRANCH  12  18
ATOM      5  O   UNL     1      -8.406 -11.515  15.912  0.00  0.00    -0.273 OA
ATOM     10  N   UNL     1      -8.492  -9.265  16.505  0.00  0.00    -0.301 N 
ATOM     18  C   UNL     1      -7.856 -10.461  16.222  0.00  0.00    +0.246 C 
ATOM     39  H   UNL     1      -7.947  -8.434  16.711  0.00  0.00    +0.150 HD
BRANCH  10  20
ATOM     20  C   UNL     1      -9.928  -9.105  16.468  0.00  0.00    +0.163 C 
BRANCH  20  23
ATOM      7  O   UNL     1     -10.827  -8.497  14.294  0.00  0.00    -0.274 OA
ATOM     11  N   UNL     1      -9.845  -6.861  15.573  0.00  0.00    -0.328 N 
ATOM     23  C   UNL     1     -10.242  -8.157  15.319  0.00  0.00    +0.231 C 
ATOM     40  H   UNL     1      -9.363  -6.593  16.426  0.00  0.00    +0.145 HD
ATOM     41  H   UNL     1     -10.008  -6.125  14.894  0.00  0.00    +0.145 HD
ENDBRANCH  20  23
BRANCH  20  21
ATOM     21  C   UNL     1     -10.486  -8.555  17.786  0.00  0.00    +0.067 C 
BRANCH  21  24
ATOM     24  C   UNL     1     -10.982  -9.631  18.710  0.00  0.00    -0.045 A 
ATOM     26  C   UNL     1     -12.334  -9.699  19.020  0.00  0.00    +0.007 A 
ATOM     27  C   UNL     1     -10.083 -10.546  19.245  0.00  0.00    +0.007 A 
ATOM     29  C   UNL     1     -12.795 -10.698  19.878  0.00  0.00    +0.046 A 
ATOM     30  C   UNL     1     -10.543 -11.544  20.102  0.00  0.00    +0.046 A 
ATOM     32  C   UNL     1     -11.899 -11.620  20.419  0.00  0.00    +0.120 A 
BRANCH  32   8
ATOM      8  O   UNL     1     -12.350 -12.595  21.256  0.00  0.00    -0.495 OA
ATOM     34  C   UNL     1     -13.579 -12.347  21.937  0.00  0.00    +0.277 C 
ENDBRANCH  32   8
ENDBRANCH  21  24
ENDBRANCH  20  21
ENDBRANCH  10  20
ENDBRANCH  12  18
BRANCH  13   9
ATOM      6  O   UNL     1      -1.673  -9.850  13.902  0.00  0.00    -0.275 OA
ATOM      9  N   UNL     1      -3.625 -11.100  13.779  0.00  0.00    -0.310 N 
ATOM     19  C   UNL     1      -2.404 -10.645  13.314  0.00  0.00    +0.218 C 
ATOM     35  H   UNL     1      -4.187 -11.706  13.188  0.00  0.00    +0.149 HD
BRANCH  19  22
ATOM     22  C   UNL     1      -2.021 -11.246  11.976  0.00  0.00    +0.138 C 
BRANCH  22  25
ATOM      1  S   UNL     1      -3.988 -11.616  10.075  0.00  0.00    -0.101 S 
ATOM     25  C   UNL     1      -2.872 -10.631  10.899  0.00  0.00    -0.001 A 
ATOM     28  C   UNL     1      -2.871  -9.336  10.475  0.00  0.00    +0.011 A 
ATOM     31  C   UNL     1      -3.821  -9.134   9.432  0.00  0.00    +0.008 A 
ATOM     33  C   UNL     1      -4.497 -10.291   9.116  0.00  0.00    +0.045 A 
ENDBRANCH  22  25
ENDBRANCH  19  22
ENDBRANCH  13   9
BRANCH  12   2
ATOM      2  O   UNL     1      -6.116  -8.981  16.628  0.00  0.00    -0.379 OA
ATOM     36  H   UNL     1      -6.045  -8.481  15.796  0.00  0.00    +0.211 HD
ENDBRANCH  12   2
BRANCH  15   3
ATOM      3  O   UNL     1      -2.240 -11.302  16.331  0.00  0.00    -0.387 OA
ATOM     37  H   UNL     1      -2.121 -10.617  17.010  0.00  0.00    +0.210 HD
ENDBRANCH  15   3
BRANCH  17   4
ATOM      4  O   UNL     1      -3.878 -12.142  18.502  0.00  0.00    -0.389 OA
ATOM     38  H   UNL     1      -3.143 -11.746  19.001  0.00  0.00    +0.210 HD
ENDBRANCH  17   4
TORSDOF 12
ENDMDL
MODEL 6
REMARK VINA RESULT:      -6.5      3.214      8.530
REMARK  Name = 7134512
REMARK  13 active torsions:
REMARK  status: ('A' for Active; 'I' for Inactive)
REMARK    1  A    between atoms: O_2  and  C_12
REMARK    2  A    between atoms: O_3  and  C_15
REMARK    3  A    between atoms: O_4  and  C_17
REMARK    4  A    between atoms: O_8  and  C_32
REMARK    5  A    between atoms: O_8  and  C_34
REMARK    6  A    between atoms: N_9  and  C_13
REMARK    7  A    between atoms: N_10  and  C_20
REMARK    8  A    between atoms: C_12  and  C_18
REMARK    9  A    between atoms: C_19  and  C_22
REMARK   10  A    between atoms: C_20  and  C_21
REMARK   11  A    between atoms: C_20  and  C_23
REMARK   12  A    between atoms: C_21  and  C_24
REMARK   13  A    between atoms: C_22  and  C_25
REMARK                            x       y       z     vdW  Elec       q    Type
REMARK                         _______ _______ _______ _____ _____    ______ ____
ROOT
ATOM     12  C   UNL     1      14.557  12.614  22.181  0.00  0.00    +0.146 C 
ATOM     13  C   UNL     1      16.743  11.319  22.239  0.00  0.00    +0.107 C 
ATOM     14  C   UNL     1      15.213  11.232  22.211  0.00  0.00    +0.069 C 
ATOM     15  C   UNL     1      17.242  12.212  23.383  0.00  0.00    +0.163 C 
ATOM     16  C   UNL     1      15.047  13.485  23.335  0.00  0.00    +0.078 C 
ATOM     17  C   UNL     1      16.573  13.589  23.370  0.00  0.00    +0.148 C 
ENDROOT
BRANCH  12  18
ATOM      5  O   UNL     1      12.325  13.391  21.832  0.00  0.00    -0.273 OA
ATOM     10  N   UNL     1      12.651  11.284  22.766  0.00  0.00    -0.301 N 
ATOM     18  C   UNL     1      13.062  12.490  22.225  0.00  0.00    +0.246 C 
ATOM     39  H   UNL     1      13.337  10.616  23.104  0.00  0.00    +0.150 HD
BRANCH  10  20
ATOM     20  C   UNL     1      11.261  10.928  22.941  0.00  0.00    +0.163 C 
BRANCH  20  23
ATOM      7  O   UNL     1      10.091  12.381  24.497  0.00  0.00    -0.274 OA
ATOM     11  N   UNL     1      11.354  10.658  25.342  0.00  0.00    -0.328 N 
ATOM     23  C   UNL     1      10.841  11.426  24.317  0.00  0.00    +0.231 C 
ATOM     40  H   UNL     1      11.973   9.870  25.178  0.00  0.00    +0.145 HD
ATOM     41  H   UNL     1      11.139  10.873  26.309  0.00  0.00    +0.145 HD
ENDBRANCH  20  23
BRANCH  20  21
ATOM     21  C   UNL     1      11.029   9.416  22.824  0.00  0.00    +0.067 C 
BRANCH  21  24
ATOM     24  C   UNL     1      11.703   8.809  21.626  0.00  0.00    -0.045 A 
ATOM     26  C   UNL     1      12.673   7.831  21.806  0.00  0.00    +0.007 A 
ATOM     27  C   UNL     1      11.350   9.234  20.351  0.00  0.00    +0.007 A 
ATOM     29  C   UNL     1      13.299   7.268  20.694  0.00  0.00    +0.046 A 
ATOM     30  C   UNL     1      11.976   8.672  19.239  0.00  0.00    +0.046 A 
ATOM     32  C   UNL     1      12.950   7.689  19.410  0.00  0.00    +0.120 A 
BRANCH  32   8
ATOM      8  O   UNL     1      13.561   7.138  18.325  0.00  0.00    -0.495 OA
ATOM     34  C   UNL     1      13.914   8.021  17.261  0.00  0.00    +0.277 C 
ENDBRANCH  32   8
ENDBRANCH  21  24
ENDBRANCH  20  21
ENDBRANCH  10  20
ENDBRANCH  12  18
BRANCH  13   9
ATOM      6  O   UNL     1      19.092  10.331  20.903  0.00  0.00    -0.275 OA
ATOM      9  N   UNL     1      17.306   9.991  22.347  0.00  0.00    -0.310 N 
ATOM     19  C   UNL     1      18.445   9.610  21.660  0.00  0.00    +0.218 C 
ATOM     35  H   UNL     1      16.804   9.301  22.898  0.00  0.00    +0.149 HD
BRANCH  19  22
ATOM     22  C   UNL     1      18.854   8.178  21.945  0.00  0.00    +0.138 C 
BRANCH  22  25
ATOM      1  S   UNL     1      19.169   5.979  20.306  0.00  0.00    -0.101 S 
ATOM     25  C   UNL     1      18.247   7.277  20.905  0.00  0.00    -0.001 A 
ATOM     28  C   UNL     1      17.003   7.361  20.354  0.00  0.00    +0.011 A 
ATOM     31  C   UNL     1      16.790   6.324  19.400  0.00  0.00    +0.008 A 
ATOM     33  C   UNL     1      17.887   5.502  19.276  0.00  0.00    +0.045 A 
ENDBRANCH  22  25
ENDBRANCH  19  22
ENDBRANCH  13   9
BRANCH  12   2
ATOM      2  O   UNL     1      14.836  13.272  20.951  0.00  0.00    -0.379 OA
ATOM     36  H   UNL     1      15.798  13.262  20.811  0.00  0.00    +0.211 HD
ENDBRANCH  12   2
BRANCH  15   3
ATOM      3  O   UNL     1      18.650  12.416  23.235  0.00  0.00    -0.387 OA
ATOM     37  H   UNL     1      18.784  13.317  22.897  0.00  0.00    +0.210 HD
ENDBRANCH  15   3
BRANCH  17   4
ATOM      4  O   UNL     1      16.960  14.290  24.552  0.00  0.00    -0.389 OA
ATOM     38  H   UNL     1      17.866  14.018  24.774  0.00  0.00    +0.210 HD
ENDBRANCH  17   4
TORSDOF 12
ENDMDL
MODEL 7
REMARK VINA RESULT:      -6.5     28.244     30.061
REMARK  Name = 7134512
REMARK  13 active torsions:
REMARK  status: ('A' for Active; 'I' for Inactive)
REMARK    1  A    between atoms: O_2  and  C_12
REMARK    2  A    between atoms: O_3  and  C_15
REMARK    3  A    between atoms: O_4  and  C_17
REMARK    4  A    between atoms: O_8  and  C_32
REMARK    5  A    between atoms: O_8  and  C_34
REMARK    6  A    between atoms: N_9  and  C_13
REMARK    7  A    between atoms: N_10  and  C_20
REMARK    8  A    between atoms: C_12  and  C_18
REMARK    9  A    between atoms: C_19  and  C_22
REMARK   10  A    between atoms: C_20  and  C_21
REMARK   11  A    between atoms: C_20  and  C_23
REMARK   12  A    between atoms: C_21  and  C_24
REMARK   13  A    between atoms: C_22  and  C_25
REMARK                            x       y       z     vdW  Elec       q    Type
REMARK                         _______ _______ _______ _____ _____    ______ ____
ROOT
ATOM     12  C   UNL     1      -5.315 -12.981  16.897  0.00  0.00    +0.146 C 
ATOM     13  C   UNL     1      -6.859 -11.848  18.567  0.00  0.00    +0.107 C 
ATOM     14  C   UNL     1      -6.477 -12.004  17.091  0.00  0.00    +0.069 C 
ATOM     15  C   UNL     1      -5.650 -11.474  19.434  0.00  0.00    +0.163 C 
ATOM     16  C   UNL     1      -4.111 -12.586  17.750  0.00  0.00    +0.078 C 
ATOM     17  C   UNL     1      -4.476 -12.436  19.228  0.00  0.00    +0.148 C 
ENDROOT
BRANCH  12  18
ATOM      5  O   UNL     1      -5.751 -13.235  14.562  0.00  0.00    -0.273 OA
ATOM     10  N   UNL     1      -3.557 -12.917  15.271  0.00  0.00    -0.301 N 
ATOM     18  C   UNL     1      -4.922 -13.054  15.450  0.00  0.00    +0.246 C 
ATOM     39  H   UNL     1      -2.944 -12.812  16.073  0.00  0.00    +0.150 HD
BRANCH  10  20
ATOM     20  C   UNL     1      -2.920 -12.973  13.974  0.00  0.00    +0.163 C 
BRANCH  20  23
ATOM      7  O   UNL     1      -2.333 -15.278  14.472  0.00  0.00    -0.274 OA
ATOM     11  N   UNL     1      -0.834 -13.990  13.299  0.00  0.00    -0.328 N 
ATOM     23  C   UNL     1      -2.020 -14.201  13.970  0.00  0.00    +0.231 C 
ATOM     40  H   UNL     1      -0.589 -13.095  12.888  0.00  0.00    +0.145 HD
ATOM     41  H   UNL     1      -0.149 -14.733  13.210  0.00  0.00    +0.145 HD
ENDBRANCH  20  23
BRANCH  20  21
ATOM     21  C   UNL     1      -2.106 -11.709  13.671  0.00  0.00    +0.067 C 
BRANCH  21  24
ATOM     24  C   UNL     1      -2.611 -10.957  12.472  0.00  0.00    -0.045 A 
ATOM     26  C   UNL     1      -3.913 -11.161  12.034  0.00  0.00    +0.007 A 
ATOM     27  C   UNL     1      -1.770 -10.069  11.814  0.00  0.00    +0.007 A 
ATOM     29  C   UNL     1      -4.383 -10.463  10.920  0.00  0.00    +0.046 A 
ATOM     30  C   UNL     1      -2.238  -9.372  10.701  0.00  0.00    +0.046 A 
ATOM     32  C   UNL     1      -3.544  -9.569  10.254  0.00  0.00    +0.120 A 
BRANCH  32   8
ATOM      8  O   UNL     1      -4.003  -8.888   9.168  0.00  0.00    -0.495 OA
ATOM     34  C   UNL     1      -4.916  -9.573   8.311  0.00  0.00    +0.277 C 
ENDBRANCH  32   8
ENDBRANCH  21  24
ENDBRANCH  20  21
ENDBRANCH  10  20
ENDBRANCH  12  18
BRANCH  13   9
ATOM      6  O   UNL     1      -9.659 -12.348  19.006  0.00  0.00    -0.275 OA
ATOM      9  N   UNL     1      -7.906 -10.858  18.698  0.00  0.00    -0.310 N 
ATOM     19  C   UNL     1      -9.230 -11.200  18.908  0.00  0.00    +0.218 C 
ATOM     35  H   UNL     1      -7.661  -9.881  18.566  0.00  0.00    +0.149 HD
BRANCH  19  22
ATOM     22  C   UNL     1     -10.139  -9.992  19.030  0.00  0.00    +0.138 C 
BRANCH  22  25
ATOM      1  S   UNL     1     -10.929 -10.081  16.387  0.00  0.00    -0.101 S 
ATOM     25  C   UNL     1     -10.201  -9.287  17.704  0.00  0.00    -0.001 A 
ATOM     28  C   UNL     1      -9.734  -8.044  17.399  0.00  0.00    +0.011 A 
ATOM     31  C   UNL     1      -9.977  -7.722  16.032  0.00  0.00    +0.008 A 
ATOM     33  C   UNL     1     -10.621  -8.741  15.367  0.00  0.00    +0.045 A 
ENDBRANCH  22  25
ENDBRANCH  19  22
ENDBRANCH  13   9
BRANCH  12   2
ATOM      2  O   UNL     1      -5.712 -14.303  17.238  0.00  0.00    -0.379 OA
ATOM     36  H   UNL     1      -6.097 -14.285  18.132  0.00  0.00    +0.211 HD
ENDBRANCH  12   2
BRANCH  15   3
ATOM      3  O   UNL     1      -6.025 -11.541  20.812  0.00  0.00    -0.387 OA
ATOM     37  H   UNL     1      -5.521 -12.265  21.220  0.00  0.00    +0.210 HD
ENDBRANCH  15   3
BRANCH  17   4
ATOM      4  O   UNL     1      -3.345 -11.925  19.933  0.00  0.00    -0.389 OA
ATOM     38  H   UNL     1      -3.621 -11.109  20.383  0.00  0.00    +0.210 HD
ENDBRANCH  17   4
TORSDOF 12
ENDMDL
MODEL 8
REMARK VINA RESULT:      -6.5     16.811     20.657
REMARK  Name = 7134512
REMARK  13 active torsions:
REMARK  status: ('A' for Active; 'I' for Inactive)
REMARK    1  A    between atoms: O_2  and  C_12
REMARK    2  A    between atoms: O_3  and  C_15
REMARK    3  A    between atoms: O_4  and  C_17
REMARK    4  A    between atoms: O_8  and  C_32
REMARK    5  A    between atoms: O_8  and  C_34
REMARK    6  A    between atoms: N_9  and  C_13
REMARK    7  A    between atoms: N_10  and  C_20
REMARK    8  A    between atoms: C_12  and  C_18
REMARK    9  A    between atoms: C_19  and  C_22
REMARK   10  A    between atoms: C_20  and  C_21
REMARK   11  A    between atoms: C_20  and  C_23
REMARK   12  A    between atoms: C_21  and  C_24
REMARK   13  A    between atoms: C_22  and  C_25
REMARK                            x       y       z     vdW  Elec       q    Type
REMARK                         _______ _______ _______ _____ _____    ______ ____
ROOT
ATOM     12  C   UNL     1      13.339   8.389   5.077  0.00  0.00    +0.146 C 
ATOM     13  C   UNL     1      14.893   7.115   3.522  0.00  0.00    +0.107 C 
ATOM     14  C   UNL     1      13.565   7.100   4.286  0.00  0.00    +0.069 C 
ATOM     15  C   UNL     1      16.078   7.432   4.444  0.00  0.00    +0.163 C 
ATOM     16  C   UNL     1      14.517   8.683   6.005  0.00  0.00    +0.078 C 
ATOM     17  C   UNL     1      15.849   8.711   5.254  0.00  0.00    +0.148 C 
ENDROOT
BRANCH  12  18
ATOM      5  O   UNL     1      11.547   9.308   6.361  0.00  0.00    -0.273 OA
ATOM     10  N   UNL     1      11.595   7.013   5.973  0.00  0.00    -0.301 N 
ATOM     18  C   UNL     1      12.066   8.310   5.867  0.00  0.00    +0.246 C 
ATOM     39  H   UNL     1      12.118   6.245   5.565  0.00  0.00    +0.150 HD
BRANCH  10  20
ATOM     20  C   UNL     1      10.397   6.663   6.702  0.00  0.00    +0.163 C 
BRANCH  20  23
ATOM      7  O   UNL     1      10.051   5.187   8.602  0.00  0.00    -0.274 OA
ATOM     11  N   UNL     1      12.196   5.826   8.083  0.00  0.00    -0.328 N 
ATOM     23  C   UNL     1      10.829   5.828   7.899  0.00  0.00    +0.231 C 
ATOM     40  H   UNL     1      12.828   6.360   7.494  0.00  0.00    +0.145 HD
ATOM     41  H   UNL     1      12.618   5.297   8.838  0.00  0.00    +0.145 HD
ENDBRANCH  20  23
BRANCH  20  21
ATOM     21  C   UNL     1       9.396   5.886   5.838  0.00  0.00    +0.067 C 
BRANCH  21  24
ATOM     24  C   UNL     1       9.763   5.872   4.382  0.00  0.00    -0.045 A 
ATOM     26  C   UNL     1      10.440   4.779   3.855  0.00  0.00    +0.007 A 
ATOM     27  C   UNL     1       9.424   6.953   3.577  0.00  0.00    +0.007 A 
ATOM     29  C   UNL     1      10.781   4.767   2.502  0.00  0.00    +0.046 A 
ATOM     30  C   UNL     1       9.765   6.941   2.226  0.00  0.00    +0.046 A 
ATOM     32  C   UNL     1      10.444   5.848   1.688  0.00  0.00    +0.120 A 
BRANCH  32   8
ATOM      8  O   UNL     1      10.777   5.835   0.368  0.00  0.00    -0.495 OA
ATOM     34  C   UNL     1       9.758   5.448  -0.554  0.00  0.00    +0.277 C 
ENDBRANCH  32   8
ENDBRANCH  21  24
ENDBRANCH  20  21
ENDBRANCH  10  20
ENDBRANCH  12  18
BRANCH  13   9
ATOM      6  O   UNL     1      13.899   6.352   0.932  0.00  0.00    -0.275 OA
ATOM      9  N   UNL     1      15.090   5.845   2.859  0.00  0.00    -0.310 N 
ATOM     19  C   UNL     1      14.568   5.572   1.606  0.00  0.00    +0.218 C 
ATOM     35  H   UNL     1      15.575   5.109   3.365  0.00  0.00    +0.149 HD
BRANCH  19  22
ATOM     22  C   UNL     1      14.920   4.183   1.110  0.00  0.00    +0.138 C 
BRANCH  22  25
ATOM      1  S   UNL     1      14.638   4.329  -1.632  0.00  0.00    -0.101 S 
ATOM     25  C   UNL     1      14.079   3.863  -0.094  0.00  0.00    -0.001 A 
ATOM     28  C   UNL     1      12.877   3.221  -0.124  0.00  0.00    +0.011 A 
ATOM     31  C   UNL     1      12.387   3.103  -1.457  0.00  0.00    +0.008 A 
ATOM     33  C   UNL     1      13.246   3.664  -2.375  0.00  0.00    +0.045 A 
ENDBRANCH  22  25
ENDBRANCH  19  22
ENDBRANCH  13   9
BRANCH  12   2
ATOM      2  O   UNL     1      13.158   9.491   4.195  0.00  0.00    -0.379 OA
ATOM     36  H   UNL     1      12.890  10.263   4.722  0.00  0.00    +0.211 HD
ENDBRANCH  12   2
BRANCH  15   3
ATOM      3  O   UNL     1      17.249   7.630   3.648  0.00  0.00    -0.387 OA
ATOM     37  H   UNL     1      17.863   8.184   4.159  0.00  0.00    +0.210 HD
ENDBRANCH  15   3
BRANCH  17   4
ATOM      4  O   UNL     1      16.909   8.841   6.201  0.00  0.00    -0.389 OA
ATOM     38  H   UNL     1      16.609   8.446   7.037  0.00  0.00    +0.210 HD
ENDBRANCH  17   4
TORSDOF 12
ENDMDL
MODEL 9
REMARK VINA RESULT:      -6.4     28.800     31.394
REMARK  Name = 7134512
REMARK  13 active torsions:
REMARK  status: ('A' for Active; 'I' for Inactive)
REMARK    1  A    between atoms: O_2  and  C_12
REMARK    2  A    between atoms: O_3  and  C_15
REMARK    3  A    between atoms: O_4  and  C_17
REMARK    4  A    between atoms: O_8  and  C_32
REMARK    5  A    between atoms: O_8  and  C_34
REMARK    6  A    between atoms: N_9  and  C_13
REMARK    7  A    between atoms: N_10  and  C_20
REMARK    8  A    between atoms: C_12  and  C_18
REMARK    9  A    between atoms: C_19  and  C_22
REMARK   10  A    between atoms: C_20  and  C_21
REMARK   11  A    between atoms: C_20  and  C_23
REMARK   12  A    between atoms: C_21  and  C_24
REMARK   13  A    between atoms: C_22  and  C_25
REMARK                            x       y       z     vdW  Elec       q    Type
REMARK                         _______ _______ _______ _____ _____    ______ ____
ROOT
ATOM     12  C   UNL     1      -5.815 -11.226  16.972  0.00  0.00    +0.146 C 
ATOM     13  C   UNL     1      -4.244 -12.104  15.178  0.00  0.00    +0.107 C 
ATOM     14  C   UNL     1      -5.414 -11.167  15.496  0.00  0.00    +0.069 C 
ATOM     15  C   UNL     1      -4.523 -13.542  15.636  0.00  0.00    +0.163 C 
ATOM     16  C   UNL     1      -6.109 -12.659  17.409  0.00  0.00    +0.078 C 
ATOM     17  C   UNL     1      -4.945 -13.604  17.106  0.00  0.00    +0.148 C 
ENDROOT
BRANCH  12  18
ATOM      5  O   UNL     1      -7.068  -9.198  16.812  0.00  0.00    -0.273 OA
ATOM     10  N   UNL     1      -7.971 -10.991  17.991  0.00  0.00    -0.301 N 
ATOM     18  C   UNL     1      -7.007 -10.352  17.231  0.00  0.00    +0.246 C 
ATOM     39  H   UNL     1      -7.812 -11.935  18.328  0.00  0.00    +0.150 HD
BRANCH  10  20
ATOM     20  C   UNL     1      -9.206 -10.359  18.398  0.00  0.00    +0.163 C 
BRANCH  20  23
ATOM      7  O   UNL     1      -9.096 -11.955  20.227  0.00  0.00    -0.274 OA
ATOM     11  N   UNL     1     -10.425 -10.096  20.468  0.00  0.00    -0.328 N 
ATOM     23  C   UNL     1      -9.561 -10.914  19.770  0.00  0.00    +0.231 C 
ATOM     40  H   UNL     1     -10.801  -9.237  20.078  0.00  0.00    +0.145 HD
ATOM     41  H   UNL     1     -10.731 -10.342  21.404  0.00  0.00    +0.145 HD
ENDBRANCH  20  23
BRANCH  20  21
ATOM     21  C   UNL     1     -10.345 -10.615  17.404  0.00  0.00    +0.067 C 
BRANCH  21  24
ATOM     24  C   UNL     1     -10.986  -9.351  16.905  0.00  0.00    -0.045 A 
ATOM     26  C   UNL     1     -10.375  -8.128  17.154  0.00  0.00    +0.007 A 
ATOM     27  C   UNL     1     -12.183  -9.417  16.203  0.00  0.00    +0.007 A 
ATOM     29  C   UNL     1     -10.970  -6.953  16.692  0.00  0.00    +0.046 A 
ATOM     30  C   UNL     1     -12.778  -8.244  15.742  0.00  0.00    +0.046 A 
ATOM     32  C   UNL     1     -12.172  -7.012  15.986  0.00  0.00    +0.120 A 
BRANCH  32   8
ATOM      8  O   UNL     1     -12.752  -5.866  15.535  0.00  0.00    -0.495 OA
ATOM     34  C   UNL     1     -12.382  -5.422  14.230  0.00  0.00    +0.277 C 
ENDBRANCH  32   8
ENDBRANCH  21  24
ENDBRANCH  20  21
ENDBRANCH  10  20
ENDBRANCH  12  18
BRANCH  13   9
ATOM      6  O   UNL     1      -2.443 -10.312  13.827  0.00  0.00    -0.275 OA
ATOM      9  N   UNL     1      -3.961 -12.067  13.760  0.00  0.00    -0.310 N 
ATOM     19  C   UNL     1      -3.074 -11.162  13.202  0.00  0.00    +0.218 C 
ATOM     35  H   UNL     1      -4.485 -12.688  13.149  0.00  0.00    +0.149 HD
BRANCH  19  22
ATOM     22  C   UNL     1      -2.928 -11.327  11.702  0.00  0.00    +0.138 C 
BRANCH  22  25
ATOM      1  S   UNL     1      -5.411 -10.157  11.411  0.00  0.00    -0.101 S 
ATOM     25  C   UNL     1      -3.763 -10.286  11.010  0.00  0.00    -0.001 A 
ATOM     28  C   UNL     1      -3.362  -9.391  10.063  0.00  0.00    +0.011 A 
ATOM     31  C   UNL     1      -4.444  -8.563   9.644  0.00  0.00    +0.008 A 
ATOM     33  C   UNL     1      -5.616  -8.873  10.297  0.00  0.00    +0.045 A 
ENDBRANCH  22  25
ENDBRANCH  19  22
ENDBRANCH  13   9
BRANCH  12   2
ATOM      2  O   UNL     1      -4.782 -10.692  17.791  0.00  0.00    -0.379 OA
ATOM     36  H   UNL     1      -4.369 -11.426  18.278  0.00  0.00    +0.211 HD
ENDBRANCH  12   2
BRANCH  15   3
ATOM      3  O   UNL     1      -3.328 -14.315  15.497  0.00  0.00    -0.387 OA
ATOM     37  H   UNL     1      -2.930 -14.405  16.379  0.00  0.00    +0.210 HD
ENDBRANCH  15   3
BRANCH  17   4
ATOM      4  O   UNL     1      -5.346 -14.941  17.404  0.00  0.00    -0.389 OA
ATOM     38  H   UNL     1      -6.230 -15.076  17.022  0.00  0.00    +0.210 HD
ENDBRANCH  17   4
TORSDOF 12
ENDMDL
MODEL 10
REMARK VINA RESULT:      -6.3     27.147     30.295
REMARK  Name = 7134512
REMARK  13 active torsions:
REMARK  status: ('A' for Active; 'I' for Inactive)
REMARK    1  A    between atoms: O_2  and  C_12
REMARK    2  A    between atoms: O_3  and  C_15
REMARK    3  A    between atoms: O_4  and  C_17
REMARK    4  A    between atoms: O_8  and  C_32
REMARK    5  A    between atoms: O_8  and  C_34
REMARK    6  A    between atoms: N_9  and  C_13
REMARK    7  A    between atoms: N_10  and  C_20
REMARK    8  A    between atoms: C_12  and  C_18
REMARK    9  A    between atoms: C_19  and  C_22
REMARK   10  A    between atoms: C_20  and  C_21
REMARK   11  A    between atoms: C_20  and  C_23
REMARK   12  A    between atoms: C_21  and  C_24
REMARK   13  A    between atoms: C_22  and  C_25
REMARK                            x       y       z     vdW  Elec       q    Type
REMARK                         _______ _______ _______ _____ _____    ______ ____
ROOT
ATOM     12  C   UNL     1      -3.132 -11.047  13.536  0.00  0.00    +0.146 C 
ATOM     13  C   UNL     1      -3.794 -11.112  15.989  0.00  0.00    +0.107 C 
ATOM     14  C   UNL     1      -4.184 -10.659  14.578  0.00  0.00    +0.069 C 
ATOM     15  C   UNL     1      -2.395 -10.619  16.381  0.00  0.00    +0.163 C 
ATOM     16  C   UNL     1      -1.748 -10.533  13.928  0.00  0.00    +0.078 C 
ATOM     17  C   UNL     1      -1.342 -10.986  15.332  0.00  0.00    +0.148 C 
ENDROOT
BRANCH  12  18
ATOM      5  O   UNL     1      -2.674 -10.084  11.399  0.00  0.00    -0.273 OA
ATOM     10  N   UNL     1      -4.877 -10.590  11.959  0.00  0.00    -0.301 N 
ATOM     18  C   UNL     1      -3.512 -10.526  12.181  0.00  0.00    +0.246 C 
ATOM     39  H   UNL     1      -5.496 -10.934  12.685  0.00  0.00    +0.150 HD
BRANCH  10  20
ATOM     20  C   UNL     1      -5.502 -10.130  10.740  0.00  0.00    +0.163 C 
BRANCH  20  23
ATOM      7  O   UNL     1      -7.339  -8.589  10.346  0.00  0.00    -0.274 OA
ATOM     11  N   UNL     1      -6.540  -8.821  12.487  0.00  0.00    -0.328 N 
ATOM     23  C   UNL     1      -6.545  -9.095  11.135  0.00  0.00    +0.231 C 
ATOM     40  H   UNL     1      -5.879  -9.248  13.129  0.00  0.00    +0.145 HD
ATOM     41  H   UNL     1      -7.196  -8.159  12.886  0.00  0.00    +0.145 HD
ENDBRANCH  20  23
BRANCH  20  21
ATOM     21  C   UNL     1      -6.152 -11.274   9.951  0.00  0.00    +0.067 C 
BRANCH  21  24
ATOM     24  C   UNL     1      -5.559 -11.457   8.583  0.00  0.00    -0.045 A 
ATOM     26  C   UNL     1      -4.620 -12.458   8.371  0.00  0.00    +0.007 A 
ATOM     27  C   UNL     1      -5.953 -10.621   7.546  0.00  0.00    +0.007 A 
ATOM     29  C   UNL     1      -4.068 -12.627   7.101  0.00  0.00    +0.046 A 
ATOM     30  C   UNL     1      -5.402 -10.790   6.277  0.00  0.00    +0.046 A 
ATOM     32  C   UNL     1      -4.459 -11.793   6.054  0.00  0.00    +0.120 A 
BRANCH  32   8
ATOM      8  O   UNL     1      -3.921 -11.959   4.815  0.00  0.00    -0.495 OA
ATOM     34  C   UNL     1      -4.196 -13.191   4.148  0.00  0.00    +0.277 C 
ENDBRANCH  32   8
ENDBRANCH  21  24
ENDBRANCH  20  21
ENDBRANCH  10  20
ENDBRANCH  12  18
BRANCH  13   9
ATOM      6  O   UNL     1      -4.719 -12.512  18.327  0.00  0.00    -0.275 OA
ATOM      9  N   UNL     1      -4.781 -10.652  16.940  0.00  0.00    -0.310 N 
ATOM     19  C   UNL     1      -5.162 -11.403  18.039  0.00  0.00    +0.218 C 
ATOM     35  H   UNL     1      -5.255  -9.773  16.752  0.00  0.00    +0.149 HD
BRANCH  19  22
ATOM     22  C   UNL     1      -6.197 -10.706  18.899  0.00  0.00    +0.138 C 
BRANCH  22  25
ATOM      1  S   UNL     1      -8.425 -11.786  17.680  0.00  0.00    -0.101 S 
ATOM     25  C   UNL     1      -7.434 -10.462  18.081  0.00  0.00    -0.001 A 
ATOM     28  C   UNL     1      -7.891  -9.274  17.595  0.00  0.00    +0.011 A 
ATOM     31  C   UNL     1      -9.101  -9.446  16.862  0.00  0.00    +0.008 A 
ATOM     33  C   UNL     1      -9.504 -10.763  16.830  0.00  0.00    +0.045 A 
ENDBRANCH  22  25
ENDBRANCH  19  22
ENDBRANCH  13   9
BRANCH  12   2
ATOM      2  O   UNL     1      -3.077 -12.461  13.385  0.00  0.00    -0.379 OA
ATOM     36  H   UNL     1      -2.829 -12.660  12.466  0.00  0.00    +0.211 HD
ENDBRANCH  12   2
BRANCH  15   3
ATOM      3  O   UNL     1      -2.010 -11.236  17.612  0.00  0.00    -0.387 OA
ATOM     37  H   UNL     1      -1.054 -11.101  17.724  0.00  0.00    +0.210 HD
ENDBRANCH  15   3
BRANCH  17   4
ATOM      4  O   UNL     1      -0.113 -10.350  15.684  0.00  0.00    -0.389 OA
ATOM     38  H   UNL     1       0.361 -10.148  14.860  0.00  0.00    +0.210 HD
ENDBRANCH  17   4
TORSDOF 12
ENDMDL
