MODEL 1
REMARK VINA RESULT:      -6.8      0.000      0.000
REMARK  Name = 75536684
REMARK  10 active torsions:
REMARK  status: ('A' for Active; 'I' for Inactive)
REMARK    1  A    between atoms: S_1  and  N_8
REMARK    2  A    between atoms: S_1  and  C_16
REMARK    3  A    between atoms: O_3  and  C_10
REMARK    4  A    between atoms: O_6  and  C_23
REMARK    5  A    between atoms: O_6  and  C_27
REMARK    6  A    between atoms: N_7  and  C_9
REMARK    7  A    between atoms: N_7  and  C_14
REMARK    8  A    between atoms: N_8  and  C_13
REMARK    9  A    between atoms: C_11  and  C_13
REMARK   10  A    between atoms: C_14  and  C_15
REMARK                            x       y       z     vdW  Elec       q    Type
REMARK                         _______ _______ _______ _____ _____    ______ ____
ROOT
ATOM      2  O   UNL     1      10.793   8.570  19.797  0.00  0.00    -0.371 OA
ATOM      9  C   UNL     1      12.536   7.002  19.418  0.00  0.00    +0.111 C 
ATOM     10  C   UNL     1      12.317   7.147  20.913  0.00  0.00    +0.164 C 
ATOM     11  C   UNL     1      10.906   7.717  20.948  0.00  0.00    +0.164 C 
ATOM     12  C   UNL     1      11.868   8.262  18.893  0.00  0.00    +0.181 C 
ENDROOT
BRANCH  10   3
ATOM      3  O   UNL     1      12.405   5.912  21.599  0.00  0.00    -0.388 OA
ATOM     29  H   UNL     1      13.339   5.643  21.627  0.00  0.00    +0.210 HD
ENDBRANCH  10   3
BRANCH   9   7
ATOM      7  N   UNL     1      13.937   6.904  19.041  0.00  0.00    -0.305 NA
ATOM     28  H   UNL     1      14.045   7.214  18.075  0.00  0.00    +0.123 HD
BRANCH   7  14
ATOM     14  C   UNL     1      14.771   7.737  19.898  0.00  0.00    +0.116 C 
BRANCH  14  15
ATOM     15  C   UNL     1      16.157   7.171  20.054  0.00  0.00    -0.033 A 
ATOM     17  C   UNL     1      16.970   7.594  21.105  0.00  0.00    +0.008 A 
ATOM     18  C   UNL     1      16.629   6.222  19.146  0.00  0.00    +0.008 A 
ATOM     21  C   UNL     1      18.254   7.070  21.249  0.00  0.00    +0.046 A 
ATOM     22  C   UNL     1      17.913   5.697  19.290  0.00  0.00    +0.046 A 
ATOM     23  C   UNL     1      18.725   6.121  20.341  0.00  0.00    +0.120 A 
BRANCH  23   6
ATOM      6  O   UNL     1      19.980   5.609  20.482  0.00  0.00    -0.495 OA
ATOM     27  C   UNL     1      20.640   5.843  21.724  0.00  0.00    +0.277 C 
ENDBRANCH  23   6
ENDBRANCH  14  15
ENDBRANCH   7  14
ENDBRANCH   9   7
BRANCH  11  13
ATOM     13  C   UNL     1      10.611   8.513  22.208  0.00  0.00    +0.140 C 
BRANCH  13   8
ATOM      8  N   UNL     1      11.863   9.093  22.731  0.00  0.00    -0.187 NA
ATOM     30  H   UNL     1      12.351   8.534  23.443  0.00  0.00    +0.148 HD
BRANCH   8   1
ATOM      1  S   UNL     1      12.083  10.780  22.736  0.00  0.00    +0.058 S 
ATOM      4  O   UNL     1      12.345  11.226  24.091  0.00  0.00    -0.153 OA
ATOM      5  O   UNL     1      11.027  11.396  21.956  0.00  0.00    -0.153 OA
BRANCH   1  16
ATOM     16  C   UNL     1      13.578  10.953  21.808  0.00  0.00    +0.105 A 
ATOM     19  C   UNL     1      14.813  10.820  22.444  0.00  0.00    +0.028 A 
ATOM     20  C   UNL     1      13.522  11.221  20.441  0.00  0.00    +0.028 A 
ATOM     24  C   UNL     1      15.992  10.957  21.711  0.00  0.00    +0.002 A 
ATOM     25  C   UNL     1      14.702  11.357  19.708  0.00  0.00    +0.002 A 
ATOM     26  C   UNL     1      15.937  11.224  20.344  0.00  0.00    +0.000 A 
ENDBRANCH   1  16
ENDBRANCH   8   1
ENDBRANCH  13   8
ENDBRANCH  11  13
TORSDOF 9
ENDMDL
MODEL 2
REMARK VINA RESULT:      -6.6      2.021      2.685
REMARK  Name = 75536684
REMARK  10 active torsions:
REMARK  status: ('A' for Active; 'I' for Inactive)
REMARK    1  A    between atoms: S_1  and  N_8
REMARK    2  A    between atoms: S_1  and  C_16
REMARK    3  A    between atoms: O_3  and  C_10
REMARK    4  A    between atoms: O_6  and  C_23
REMARK    5  A    between atoms: O_6  and  C_27
REMARK    6  A    between atoms: N_7  and  C_9
REMARK    7  A    between atoms: N_7  and  C_14
REMARK    8  A    between atoms: N_8  and  C_13
REMARK    9  A    between atoms: C_11  and  C_13
REMARK   10  A    between atoms: C_14  and  C_15
REMARK                            x       y       z     vdW  Elec       q    Type
REMARK                         _______ _______ _______ _____ _____    ______ ____
ROOT
ATOM      2  O   UNL     1      10.712   8.713  19.745  0.00  0.00    -0.371 OA
ATOM      9  C   UNL     1      12.375   7.071  19.322  0.00  0.00    +0.111 C 
ATOM     10  C   UNL     1      12.316   7.343  20.814  0.00  0.00    +0.164 C 
ATOM     11  C   UNL     1      10.928   7.954  20.946  0.00  0.00    +0.164 C 
ATOM     12  C   UNL     1      11.681   8.303  18.765  0.00  0.00    +0.181 C 
ENDROOT
BRANCH  10   3
ATOM      3  O   UNL     1      12.451   6.167  21.589  0.00  0.00    -0.388 OA
ATOM     29  H   UNL     1      13.192   5.648  21.231  0.00  0.00    +0.210 HD
ENDBRANCH  10   3
BRANCH   9   7
ATOM      7  N   UNL     1      13.727   6.903  18.813  0.00  0.00    -0.305 NA
ATOM     28  H   UNL     1      13.717   7.010  17.799  0.00  0.00    +0.123 HD
BRANCH   7  14
ATOM     14  C   UNL     1      14.630   7.897  19.382  0.00  0.00    +0.116 C 
BRANCH  14  15
ATOM     15  C   UNL     1      15.968   7.303  19.732  0.00  0.00    -0.033 A 
ATOM     17  C   UNL     1      16.694   7.806  20.811  0.00  0.00    +0.008 A 
ATOM     18  C   UNL     1      16.483   6.251  18.975  0.00  0.00    +0.008 A 
ATOM     21  C   UNL     1      17.934   7.257  21.135  0.00  0.00    +0.046 A 
ATOM     22  C   UNL     1      17.723   5.700  19.298  0.00  0.00    +0.046 A 
ATOM     23  C   UNL     1      18.449   6.204  20.378  0.00  0.00    +0.120 A 
BRANCH  23   6
ATOM      6  O   UNL     1      19.660   5.668  20.694  0.00  0.00    -0.495 OA
ATOM     27  C   UNL     1      20.752   6.574  20.841  0.00  0.00    +0.277 C 
ENDBRANCH  23   6
ENDBRANCH  14  15
ENDBRANCH   7  14
ENDBRANCH   9   7
BRANCH  11  13
ATOM     13  C   UNL     1      10.782   8.857  22.158  0.00  0.00    +0.140 C 
BRANCH  13   8
ATOM      8  N   UNL     1      12.115   9.157  22.715  0.00  0.00    -0.187 NA
ATOM     30  H   UNL     1      12.352   8.674  23.591  0.00  0.00    +0.148 HD
BRANCH   8   1
ATOM      1  S   UNL     1      12.857  10.654  22.392  0.00  0.00    +0.058 S 
ATOM      4  O   UNL     1      12.580  11.042  21.022  0.00  0.00    -0.153 OA
ATOM      5  O   UNL     1      14.224  10.618  22.878  0.00  0.00    -0.153 OA
BRANCH   1  16
ATOM     16  C   UNL     1      11.959  11.741  23.458  0.00  0.00    +0.105 A 
ATOM     19  C   UNL     1      12.298  11.829  24.809  0.00  0.00    +0.028 A 
ATOM     20  C   UNL     1      10.914  12.510  22.949  0.00  0.00    +0.028 A 
ATOM     24  C   UNL     1      11.589  12.687  25.650  0.00  0.00    +0.002 A 
ATOM     25  C   UNL     1      10.205  13.369  23.790  0.00  0.00    +0.002 A 
ATOM     26  C   UNL     1      10.544  13.457  25.141  0.00  0.00    +0.000 A 
ENDBRANCH   1  16
ENDBRANCH   8   1
ENDBRANCH  13   8
ENDBRANCH  11  13
TORSDOF 9
ENDMDL
MODEL 3
REMARK VINA RESULT:      -6.2      2.820      4.930
REMARK  Name = 75536684
REMARK  10 active torsions:
REMARK  status: ('A' for Active; 'I' for Inactive)
REMARK    1  A    between atoms: S_1  and  N_8
REMARK    2  A    between atoms: S_1  and  C_16
REMARK    3  A    between atoms: O_3  and  C_10
REMARK    4  A    between atoms: O_6  and  C_23
REMARK    5  A    between atoms: O_6  and  C_27
REMARK    6  A    between atoms: N_7  and  C_9
REMARK    7  A    between atoms: N_7  and  C_14
REMARK    8  A    between atoms: N_8  and  C_13
REMARK    9  A    between atoms: C_11  and  C_13
REMARK   10  A    between atoms: C_14  and  C_15
REMARK                            x       y       z     vdW  Elec       q    Type
REMARK                         _______ _______ _______ _____ _____    ______ ____
ROOT
ATOM      2  O   UNL     1      16.797   8.620  21.733  0.00  0.00    -0.371 OA
ATOM      9  C   UNL     1      17.890   7.139  20.233  0.00  0.00    +0.111 C 
ATOM     10  C   UNL     1      16.521   6.579  20.571  0.00  0.00    +0.164 C 
ATOM     11  C   UNL     1      15.804   7.830  21.057  0.00  0.00    +0.164 C 
ATOM     12  C   UNL     1      18.098   8.130  21.366  0.00  0.00    +0.181 C 
ENDROOT
BRANCH  10   3
ATOM      3  O   UNL     1      15.875   6.002  19.452  0.00  0.00    -0.388 OA
ATOM     29  H   UNL     1      16.451   6.111  18.676  0.00  0.00    +0.210 HD
ENDBRANCH  10   3
BRANCH   9   7
ATOM      7  N   UNL     1      18.933   6.128  20.165  0.00  0.00    -0.305 NA
ATOM     28  H   UNL     1      19.145   5.933  19.186  0.00  0.00    +0.123 HD
BRANCH   7  14
ATOM     14  C   UNL     1      20.149   6.583  20.829  0.00  0.00    +0.116 C 
BRANCH  14  15
ATOM     15  C   UNL     1      20.953   5.433  21.375  0.00  0.00    -0.033 A 
ATOM     17  C   UNL     1      21.619   5.565  22.594  0.00  0.00    +0.008 A 
ATOM     18  C   UNL     1      21.033   4.237  20.662  0.00  0.00    +0.008 A 
ATOM     21  C   UNL     1      22.364   4.500  23.100  0.00  0.00    +0.046 A 
ATOM     22  C   UNL     1      21.778   3.172  21.168  0.00  0.00    +0.046 A 
ATOM     23  C   UNL     1      22.443   3.304  22.387  0.00  0.00    +0.120 A 
BRANCH  23   6
ATOM      6  O   UNL     1      23.172   2.265  22.881  0.00  0.00    -0.495 OA
ATOM     27  C   UNL     1      24.099   1.642  21.993  0.00  0.00    +0.277 C 
ENDBRANCH  23   6
ENDBRANCH  14  15
ENDBRANCH   7  14
ENDBRANCH   9   7
BRANCH  11  13
ATOM     13  C   UNL     1      14.652   7.534  22.002  0.00  0.00    +0.140 C 
BRANCH  13   8
ATOM      8  N   UNL     1      13.736   6.561  21.377  0.00  0.00    -0.187 NA
ATOM     30  H   UNL     1      14.097   5.603  21.286  0.00  0.00    +0.148 HD
BRANCH   8   1
ATOM      1  S   UNL     1      12.557   7.090  20.270  0.00  0.00    +0.058 S 
ATOM      4  O   UNL     1      11.419   6.192  20.314  0.00  0.00    -0.153 OA
ATOM      5  O   UNL     1      13.200   7.393  19.005  0.00  0.00    -0.153 OA
BRANCH   1  16
ATOM     16  C   UNL     1      12.062   8.633  20.979  0.00  0.00    +0.105 A 
ATOM     19  C   UNL     1      11.239   8.650  22.106  0.00  0.00    +0.028 A 
ATOM     20  C   UNL     1      12.493   9.831  20.411  0.00  0.00    +0.028 A 
ATOM     24  C   UNL     1      10.848   9.867  22.664  0.00  0.00    +0.002 A 
ATOM     25  C   UNL     1      12.102  11.048  20.970  0.00  0.00    +0.002 A 
ATOM     26  C   UNL     1      11.280  11.065  22.097  0.00  0.00    +0.000 A 
ENDBRANCH   1  16
ENDBRANCH   8   1
ENDBRANCH  13   8
ENDBRANCH  11  13
TORSDOF 9
ENDMDL
MODEL 4
REMARK VINA RESULT:      -5.9      4.348      9.188
REMARK  Name = 75536684
REMARK  10 active torsions:
REMARK  status: ('A' for Active; 'I' for Inactive)
REMARK    1  A    between atoms: S_1  and  N_8
REMARK    2  A    between atoms: S_1  and  C_16
REMARK    3  A    between atoms: O_3  and  C_10
REMARK    4  A    between atoms: O_6  and  C_23
REMARK    5  A    between atoms: O_6  and  C_27
REMARK    6  A    between atoms: N_7  and  C_9
REMARK    7  A    between atoms: N_7  and  C_14
REMARK    8  A    between atoms: N_8  and  C_13
REMARK    9  A    between atoms: C_11  and  C_13
REMARK   10  A    between atoms: C_14  and  C_15
REMARK                            x       y       z     vdW  Elec       q    Type
REMARK                         _______ _______ _______ _____ _____    ______ ____
ROOT
ATOM      2  O   UNL     1      18.491   7.525  21.576  0.00  0.00    -0.371 OA
ATOM      9  C   UNL     1      16.981   6.391  20.136  0.00  0.00    +0.111 C 
ATOM     10  C   UNL     1      18.402   6.097  19.693  0.00  0.00    +0.164 C 
ATOM     11  C   UNL     1      19.178   6.421  20.962  0.00  0.00    +0.164 C 
ATOM     12  C   UNL     1      17.183   7.633  20.989  0.00  0.00    +0.181 C 
ENDROOT
BRANCH  10   3
ATOM      3  O   UNL     1      18.582   4.751  19.295  0.00  0.00    -0.388 OA
ATOM     29  H   UNL     1      18.487   4.184  20.079  0.00  0.00    +0.210 HD
ENDBRANCH  10   3
BRANCH   9   7
ATOM      7  N   UNL     1      16.059   6.606  19.032  0.00  0.00    -0.305 NA
ATOM     28  H   UNL     1      15.629   5.716  18.778  0.00  0.00    +0.123 HD
BRANCH   7  14
ATOM     14  C   UNL     1      15.009   7.548  19.400  0.00  0.00    +0.116 C 
BRANCH  14  15
ATOM     15  C   UNL     1      14.560   8.375  18.225  0.00  0.00    -0.033 A 
ATOM     17  C   UNL     1      14.553   9.767  18.314  0.00  0.00    +0.008 A 
ATOM     18  C   UNL     1      14.151   7.749  17.047  0.00  0.00    +0.008 A 
ATOM     21  C   UNL     1      14.136  10.533  17.225  0.00  0.00    +0.046 A 
ATOM     22  C   UNL     1      13.735   8.515  15.958  0.00  0.00    +0.046 A 
ATOM     23  C   UNL     1      13.728   9.907  16.047  0.00  0.00    +0.120 A 
BRANCH  23   6
ATOM      6  O   UNL     1      13.321  10.655  14.985  0.00  0.00    -0.495 OA
ATOM     27  C   UNL     1      14.193  11.698  14.554  0.00  0.00    +0.277 C 
ENDBRANCH  23   6
ENDBRANCH  14  15
ENDBRANCH   7  14
ENDBRANCH   9   7
BRANCH  11  13
ATOM     13  C   UNL     1      20.626   6.798  20.701  0.00  0.00    +0.140 C 
BRANCH  13   8
ATOM      8  N   UNL     1      21.366   5.616  20.222  0.00  0.00    -0.187 NA
ATOM     30  H   UNL     1      21.372   5.475  19.204  0.00  0.00    +0.148 HD
BRANCH   8   1
ATOM      1  S   UNL     1      21.542   4.255  21.228  0.00  0.00    +0.058 S 
ATOM      4  O   UNL     1      20.639   3.210  20.784  0.00  0.00    -0.153 OA
ATOM      5  O   UNL     1      21.534   4.688  22.613  0.00  0.00    -0.153 OA
BRANCH   1  16
ATOM     16  C   UNL     1      23.193   3.742  20.858  0.00  0.00    +0.105 A 
ATOM     19  C   UNL     1      24.061   4.610  20.194  0.00  0.00    +0.028 A 
ATOM     20  C   UNL     1      23.628   2.470  21.229  0.00  0.00    +0.028 A 
ATOM     24  C   UNL     1      25.363   4.205  19.901  0.00  0.00    +0.002 A 
ATOM     25  C   UNL     1      24.931   2.065  20.938  0.00  0.00    +0.002 A 
ATOM     26  C   UNL     1      25.798   2.934  20.274  0.00  0.00    +0.000 A 
ENDBRANCH   1  16
ENDBRANCH   8   1
ENDBRANCH  13   8
ENDBRANCH  11  13
TORSDOF 9
ENDMDL
MODEL 5
REMARK VINA RESULT:      -5.8     25.349     28.393
REMARK  Name = 75536684
REMARK  10 active torsions:
REMARK  status: ('A' for Active; 'I' for Inactive)
REMARK    1  A    between atoms: S_1  and  N_8
REMARK    2  A    between atoms: S_1  and  C_16
REMARK    3  A    between atoms: O_3  and  C_10
REMARK    4  A    between atoms: O_6  and  C_23
REMARK    5  A    between atoms: O_6  and  C_27
REMARK    6  A    between atoms: N_7  and  C_9
REMARK    7  A    between atoms: N_7  and  C_14
REMARK    8  A    between atoms: N_8  and  C_13
REMARK    9  A    between atoms: C_11  and  C_13
REMARK   10  A    between atoms: C_14  and  C_15
REMARK                            x       y       z     vdW  Elec       q    Type
REMARK                         _______ _______ _______ _____ _____    ______ ____
ROOT
ATOM      2  O   UNL     1     -10.600  10.815  15.598  0.00  0.00    -0.371 OA
ATOM      9  C   UNL     1     -10.048   9.480  17.483  0.00  0.00    +0.111 C 
ATOM     10  C   UNL     1     -10.797   8.627  16.475  0.00  0.00    +0.164 C 
ATOM     11  C   UNL     1     -10.592   9.433  15.200  0.00  0.00    +0.164 C 
ATOM     12  C   UNL     1     -10.414  10.881  17.022  0.00  0.00    +0.181 C 
ENDROOT
BRANCH  10   3
ATOM      3  O   UNL     1     -10.265   7.320  16.364  0.00  0.00    -0.388 OA
ATOM     29  H   UNL     1      -9.325   7.350  16.612  0.00  0.00    +0.210 HD
ENDBRANCH  10   3
BRANCH   9   7
ATOM      7  N   UNL     1     -10.427   9.219  18.862  0.00  0.00    -0.305 NA
ATOM     28  H   UNL     1      -9.989   9.915  19.466  0.00  0.00    +0.123 HD
BRANCH   7  14
ATOM     14  C   UNL     1     -11.873   9.293  19.033  0.00  0.00    +0.116 C 
BRANCH  14  15
ATOM     15  C   UNL     1     -12.393   8.180  19.902  0.00  0.00    -0.033 A 
ATOM     17  C   UNL     1     -13.760   8.080  20.165  0.00  0.00    +0.008 A 
ATOM     18  C   UNL     1     -11.509   7.248  20.446  0.00  0.00    +0.008 A 
ATOM     21  C   UNL     1     -14.241   7.049  20.971  0.00  0.00    +0.046 A 
ATOM     22  C   UNL     1     -11.990   6.217  21.252  0.00  0.00    +0.046 A 
ATOM     23  C   UNL     1     -13.356   6.117  21.514  0.00  0.00    +0.120 A 
BRANCH  23   6
ATOM      6  O   UNL     1     -13.827   5.111  22.302  0.00  0.00    -0.495 OA
ATOM     27  C   UNL     1     -14.879   5.435  23.209  0.00  0.00    +0.277 C 
ENDBRANCH  23   6
ENDBRANCH  14  15
ENDBRANCH   7  14
ENDBRANCH   9   7
BRANCH  11  13
ATOM     13  C   UNL     1     -11.671   9.193  14.158  0.00  0.00    +0.140 C 
BRANCH  13   8
ATOM      8  N   UNL     1     -12.235   7.841  14.332  0.00  0.00    -0.187 NA
ATOM     30  H   UNL     1     -11.561   7.104  14.574  0.00  0.00    +0.148 HD
BRANCH   8   1
ATOM      1  S   UNL     1     -13.657   7.399  13.509  0.00  0.00    +0.058 S 
ATOM      4  O   UNL     1     -13.510   6.055  12.984  0.00  0.00    -0.153 OA
ATOM      5  O   UNL     1     -14.053   8.486  12.633  0.00  0.00    -0.153 OA
BRANCH   1  16
ATOM     16  C   UNL     1     -14.835   7.343  14.827  0.00  0.00    +0.105 A 
ATOM     19  C   UNL     1     -15.996   6.581  14.691  0.00  0.00    +0.028 A 
ATOM     20  C   UNL     1     -14.603   8.060  16.000  0.00  0.00    +0.028 A 
ATOM     24  C   UNL     1     -16.926   6.538  15.731  0.00  0.00    +0.002 A 
ATOM     25  C   UNL     1     -15.533   8.016  17.039  0.00  0.00    +0.002 A 
ATOM     26  C   UNL     1     -16.694   7.254  16.904  0.00  0.00    +0.000 A 
ENDBRANCH   1  16
ENDBRANCH   8   1
ENDBRANCH  13   8
ENDBRANCH  11  13
TORSDOF 9
ENDMDL
MODEL 6
REMARK VINA RESULT:      -5.8     26.502     28.787
REMARK  Name = 75536684
REMARK  10 active torsions:
REMARK  status: ('A' for Active; 'I' for Inactive)
REMARK    1  A    between atoms: S_1  and  N_8
REMARK    2  A    between atoms: S_1  and  C_16
REMARK    3  A    between atoms: O_3  and  C_10
REMARK    4  A    between atoms: O_6  and  C_23
REMARK    5  A    between atoms: O_6  and  C_27
REMARK    6  A    between atoms: N_7  and  C_9
REMARK    7  A    between atoms: N_7  and  C_14
REMARK    8  A    between atoms: N_8  and  C_13
REMARK    9  A    between atoms: C_11  and  C_13
REMARK   10  A    between atoms: C_14  and  C_15
REMARK                            x       y       z     vdW  Elec       q    Type
REMARK                         _______ _______ _______ _____ _____    ______ ____
ROOT
ATOM      2  O   UNL     1      -4.968 -11.487  15.775  0.00  0.00    -0.371 OA
ATOM      9  C   UNL     1      -2.959 -11.080  14.574  0.00  0.00    +0.111 C 
ATOM     10  C   UNL     1      -2.739 -10.742  16.037  0.00  0.00    +0.164 C 
ATOM     11  C   UNL     1      -3.863 -11.530  16.693  0.00  0.00    +0.164 C 
ATOM     12  C   UNL     1      -4.477 -11.070  14.489  0.00  0.00    +0.181 C 
ENDROOT
BRANCH  10   3
ATOM      3  O   UNL     1      -1.466 -11.148  16.505  0.00  0.00    -0.388 OA
ATOM     29  H   UNL     1      -1.483 -12.111  16.640  0.00  0.00    +0.210 HD
ENDBRANCH  10   3
BRANCH   9   7
ATOM      7  N   UNL     1      -2.334 -10.141  13.657  0.00  0.00    -0.305 NA
ATOM     28  H   UNL     1      -1.559  -9.678  14.132  0.00  0.00    +0.123 HD
BRANCH   7  14
ATOM     14  C   UNL     1      -1.822 -10.823  12.475  0.00  0.00    +0.116 C 
BRANCH  14  15
ATOM     15  C   UNL     1      -2.708 -10.610  11.276  0.00  0.00    -0.033 A 
ATOM     17  C   UNL     1      -3.425 -11.680  10.741  0.00  0.00    +0.008 A 
ATOM     18  C   UNL     1      -2.810  -9.344  10.702  0.00  0.00    +0.008 A 
ATOM     21  C   UNL     1      -4.246 -11.483   9.630  0.00  0.00    +0.046 A 
ATOM     22  C   UNL     1      -3.631  -9.146   9.592  0.00  0.00    +0.046 A 
ATOM     23  C   UNL     1      -4.349 -10.215   9.056  0.00  0.00    +0.120 A 
BRANCH  23   6
ATOM      6  O   UNL     1      -5.149 -10.023   7.971  0.00  0.00    -0.495 OA
ATOM     27  C   UNL     1      -5.051 -10.977   6.915  0.00  0.00    +0.277 C 
ENDBRANCH  23   6
ENDBRANCH  14  15
ENDBRANCH   7  14
ENDBRANCH   9   7
BRANCH  11  13
ATOM     13  C   UNL     1      -4.290 -10.964  18.036  0.00  0.00    +0.140 C 
BRANCH  13   8
ATOM      8  N   UNL     1      -5.739 -10.688  18.020  0.00  0.00    -0.187 NA
ATOM     30  H   UNL     1      -6.011  -9.752  17.692  0.00  0.00    +0.148 HD
BRANCH   8   1
ATOM      1  S   UNL     1      -6.774 -11.500  19.098  0.00  0.00    +0.058 S 
ATOM      4  O   UNL     1      -6.371 -11.211  20.461  0.00  0.00    -0.153 OA
ATOM      5  O   UNL     1      -6.929 -12.875  18.659  0.00  0.00    -0.153 OA
BRANCH   1  16
ATOM     16  C   UNL     1      -8.316 -10.687  18.802  0.00  0.00    +0.105 A 
ATOM     19  C   UNL     1      -8.445  -9.808  17.726  0.00  0.00    +0.028 A 
ATOM     20  C   UNL     1      -9.402 -10.926  19.643  0.00  0.00    +0.028 A 
ATOM     24  C   UNL     1      -9.662  -9.166  17.493  0.00  0.00    +0.002 A 
ATOM     25  C   UNL     1     -10.619 -10.284  19.409  0.00  0.00    +0.002 A 
ATOM     26  C   UNL     1     -10.748  -9.405  18.334  0.00  0.00    +0.000 A 
ENDBRANCH   1  16
ENDBRANCH   8   1
ENDBRANCH  13   8
ENDBRANCH  11  13
TORSDOF 9
ENDMDL
MODEL 7
REMARK VINA RESULT:      -5.7     16.602     19.135
REMARK  Name = 75536684
REMARK  10 active torsions:
REMARK  status: ('A' for Active; 'I' for Inactive)
REMARK    1  A    between atoms: S_1  and  N_8
REMARK    2  A    between atoms: S_1  and  C_16
REMARK    3  A    between atoms: O_3  and  C_10
REMARK    4  A    between atoms: O_6  and  C_23
REMARK    5  A    between atoms: O_6  and  C_27
REMARK    6  A    between atoms: N_7  and  C_9
REMARK    7  A    between atoms: N_7  and  C_14
REMARK    8  A    between atoms: N_8  and  C_13
REMARK    9  A    between atoms: C_11  and  C_13
REMARK   10  A    between atoms: C_14  and  C_15
REMARK                            x       y       z     vdW  Elec       q    Type
REMARK                         _______ _______ _______ _____ _____    ______ ____
ROOT
ATOM      2  O   UNL     1      12.507   8.152   1.828  0.00  0.00    -0.371 OA
ATOM      9  C   UNL     1      10.850   7.436   3.372  0.00  0.00    +0.111 C 
ATOM     10  C   UNL     1      12.127   6.654   3.619  0.00  0.00    +0.164 C 
ATOM     11  C   UNL     1      13.158   7.564   2.967  0.00  0.00    +0.164 C 
ATOM     12  C   UNL     1      11.088   7.965   1.967  0.00  0.00    +0.181 C 
ENDROOT
BRANCH  10   3
ATOM      3  O   UNL     1      12.391   6.460   4.996  0.00  0.00    -0.388 OA
ATOM     29  H   UNL     1      12.246   7.303   5.457  0.00  0.00    +0.210 HD
ENDBRANCH  10   3
BRANCH   9   7
ATOM      7  N   UNL     1       9.644   6.631   3.478  0.00  0.00    -0.305 NA
ATOM     28  H   UNL     1       9.903   5.667   3.687  0.00  0.00    +0.123 HD
BRANCH   7  14
ATOM     14  C   UNL     1       8.775   7.125   4.540  0.00  0.00    +0.116 C 
BRANCH  14  15
ATOM     15  C   UNL     1       9.071   6.466   5.860  0.00  0.00    -0.033 A 
ATOM     17  C   UNL     1       9.521   5.146   5.895  0.00  0.00    +0.008 A 
ATOM     18  C   UNL     1       8.896   7.174   7.049  0.00  0.00    +0.008 A 
ATOM     21  C   UNL     1       9.795   4.534   7.118  0.00  0.00    +0.046 A 
ATOM     22  C   UNL     1       9.171   6.564   8.272  0.00  0.00    +0.046 A 
ATOM     23  C   UNL     1       9.620   5.244   8.307  0.00  0.00    +0.120 A 
BRANCH  23   6
ATOM      6  O   UNL     1       9.888   4.646   9.501  0.00  0.00    -0.495 OA
ATOM     27  C   UNL     1       8.816   4.560  10.438  0.00  0.00    +0.277 C 
ENDBRANCH  23   6
ENDBRANCH  14  15
ENDBRANCH   7  14
ENDBRANCH   9   7
BRANCH  11  13
ATOM     13  C   UNL     1      14.410   6.830   2.519  0.00  0.00    +0.140 C 
BRANCH  13   8
ATOM      8  N   UNL     1      14.147   5.378   2.487  0.00  0.00    -0.187 NA
ATOM     30  H   UNL     1      13.972   4.936   3.398  0.00  0.00    +0.148 HD
BRANCH   8   1
ATOM      1  S   UNL     1      14.791   4.423   1.235  0.00  0.00    +0.058 S 
ATOM      4  O   UNL     1      15.176   3.130   1.766  0.00  0.00    -0.153 OA
ATOM      5  O   UNL     1      15.745   5.215   0.480  0.00  0.00    -0.153 OA
BRANCH   1  16
ATOM     16  C   UNL     1      13.379   4.188   0.197  0.00  0.00    +0.105 A 
ATOM     19  C   UNL     1      12.137   4.690   0.585  0.00  0.00    +0.028 A 
ATOM     20  C   UNL     1      13.508   3.501  -1.010  0.00  0.00    +0.028 A 
ATOM     24  C   UNL     1      11.023   4.504  -0.234  0.00  0.00    +0.002 A 
ATOM     25  C   UNL     1      12.394   3.315  -1.829  0.00  0.00    +0.002 A 
ATOM     26  C   UNL     1      11.152   3.818  -1.441  0.00  0.00    +0.000 A 
ENDBRANCH   1  16
ENDBRANCH   8   1
ENDBRANCH  13   8
ENDBRANCH  11  13
TORSDOF 9
ENDMDL
MODEL 8
REMARK VINA RESULT:      -5.6     27.077     29.881
REMARK  Name = 75536684
REMARK  10 active torsions:
REMARK  status: ('A' for Active; 'I' for Inactive)
REMARK    1  A    between atoms: S_1  and  N_8
REMARK    2  A    between atoms: S_1  and  C_16
REMARK    3  A    between atoms: O_3  and  C_10
REMARK    4  A    between atoms: O_6  and  C_23
REMARK    5  A    between atoms: O_6  and  C_27
REMARK    6  A    between atoms: N_7  and  C_9
REMARK    7  A    between atoms: N_7  and  C_14
REMARK    8  A    between atoms: N_8  and  C_13
REMARK    9  A    between atoms: C_11  and  C_13
REMARK   10  A    between atoms: C_14  and  C_15
REMARK                            x       y       z     vdW  Elec       q    Type
REMARK                         _______ _______ _______ _____ _____    ______ ____
ROOT
ATOM      2  O   UNL     1     -11.818  -7.719  14.036  0.00  0.00    -0.371 OA
ATOM      9  C   UNL     1     -10.266  -7.973  15.816  0.00  0.00    +0.111 C 
ATOM     10  C   UNL     1     -10.686  -6.517  15.729  0.00  0.00    +0.164 C 
ATOM     11  C   UNL     1     -11.996  -6.635  14.962  0.00  0.00    +0.164 C 
ATOM     12  C   UNL     1     -10.671  -8.484  14.443  0.00  0.00    +0.181 C 
ENDROOT
BRANCH  10   3
ATOM      3  O   UNL     1     -10.871  -5.925  17.001  0.00  0.00    -0.388 OA
ATOM     29  H   UNL     1     -10.718  -6.605  17.680  0.00  0.00    +0.210 HD
ENDBRANCH  10   3
BRANCH   9   7
ATOM      7  N   UNL     1      -8.851  -8.156  16.095  0.00  0.00    -0.305 NA
ATOM     28  H   UNL     1      -8.427  -7.247  16.279  0.00  0.00    +0.123 HD
BRANCH   7  14
ATOM     14  C   UNL     1      -8.652  -9.014  17.257  0.00  0.00    +0.116 C 
BRANCH  14  15
ATOM     15  C   UNL     1      -7.271  -9.614  17.281  0.00  0.00    -0.033 A 
ATOM     17  C   UNL     1      -6.815 -10.267  18.426  0.00  0.00    +0.008 A 
ATOM     18  C   UNL     1      -6.449  -9.516  16.159  0.00  0.00    +0.008 A 
ATOM     21  C   UNL     1      -5.536 -10.822  18.448  0.00  0.00    +0.046 A 
ATOM     22  C   UNL     1      -5.170 -10.072  16.180  0.00  0.00    +0.046 A 
ATOM     23  C   UNL     1      -4.714 -10.725  17.325  0.00  0.00    +0.120 A 
BRANCH  23   6
ATOM      6  O   UNL     1      -3.465 -11.267  17.347  0.00  0.00    -0.495 OA
ATOM     27  C   UNL     1      -2.549 -10.829  16.345  0.00  0.00    +0.277 C 
ENDBRANCH  23   6
ENDBRANCH  14  15
ENDBRANCH   7  14
ENDBRANCH   9   7
BRANCH  11  13
ATOM     13  C   UNL     1     -12.367  -5.370  14.208  0.00  0.00    +0.140 C 
BRANCH  13   8
ATOM      8  N   UNL     1     -13.241  -5.711  13.069  0.00  0.00    -0.187 NA
ATOM     30  H   UNL     1     -13.208  -6.690  12.758  0.00  0.00    +0.148 HD
BRANCH   8   1
ATOM      1  S   UNL     1     -13.669  -4.516  11.936  0.00  0.00    +0.058 S 
ATOM      4  O   UNL     1     -13.548  -3.207  12.548  0.00  0.00    -0.153 OA
ATOM      5  O   UNL     1     -14.905  -4.906  11.283  0.00  0.00    -0.153 OA
BRANCH   1  16
ATOM     16  C   UNL     1     -12.380  -4.677  10.736  0.00  0.00    +0.105 A 
ATOM     19  C   UNL     1     -11.810  -3.537  10.169  0.00  0.00    +0.028 A 
ATOM     20  C   UNL     1     -11.934  -5.943  10.358  0.00  0.00    +0.028 A 
ATOM     24  C   UNL     1     -10.793  -3.664   9.222  0.00  0.00    +0.002 A 
ATOM     25  C   UNL     1     -10.916  -6.070   9.412  0.00  0.00    +0.002 A 
ATOM     26  C   UNL     1     -10.346  -4.930   8.844  0.00  0.00    +0.000 A 
ENDBRANCH   1  16
ENDBRANCH   8   1
ENDBRANCH  13   8
ENDBRANCH  11  13
TORSDOF 9
ENDMDL
MODEL 9
REMARK VINA RESULT:      -5.6      3.519      6.224
REMARK  Name = 75536684
REMARK  10 active torsions:
REMARK  status: ('A' for Active; 'I' for Inactive)
REMARK    1  A    between atoms: S_1  and  N_8
REMARK    2  A    between atoms: S_1  and  C_16
REMARK    3  A    between atoms: O_3  and  C_10
REMARK    4  A    between atoms: O_6  and  C_23
REMARK    5  A    between atoms: O_6  and  C_27
REMARK    6  A    between atoms: N_7  and  C_9
REMARK    7  A    between atoms: N_7  and  C_14
REMARK    8  A    between atoms: N_8  and  C_13
REMARK    9  A    between atoms: C_11  and  C_13
REMARK   10  A    between atoms: C_14  and  C_15
REMARK                            x       y       z     vdW  Elec       q    Type
REMARK                         _______ _______ _______ _____ _____    ______ ____
ROOT
ATOM      2  O   UNL     1      11.903  14.585  25.586  0.00  0.00    -0.371 OA
ATOM      9  C   UNL     1      10.861  12.527  25.021  0.00  0.00    +0.111 C 
ATOM     10  C   UNL     1      12.364  12.321  25.084  0.00  0.00    +0.164 C 
ATOM     11  C   UNL     1      12.787  13.508  25.938  0.00  0.00    +0.164 C 
ATOM     12  C   UNL     1      10.771  14.038  24.888  0.00  0.00    +0.181 C 
ENDROOT
BRANCH  10   3
ATOM      3  O   UNL     1      12.721  11.088  25.680  0.00  0.00    -0.388 OA
ATOM     29  H   UNL     1      12.438  10.369  25.090  0.00  0.00    +0.210 HD
ENDBRANCH  10   3
BRANCH   9   7
ATOM      7  N   UNL     1      10.222  11.822  23.922  0.00  0.00    -0.305 NA
ATOM     28  H   UNL     1       9.287  12.205  23.779  0.00  0.00    +0.123 HD
BRANCH   7  14
ATOM     14  C   UNL     1      10.985  11.969  22.688  0.00  0.00    +0.116 C 
BRANCH  14  15
ATOM     15  C   UNL     1      11.221  10.645  22.013  0.00  0.00    -0.033 A 
ATOM     17  C   UNL     1      10.860   9.461  22.656  0.00  0.00    +0.008 A 
ATOM     18  C   UNL     1      11.800  10.602  20.745  0.00  0.00    +0.008 A 
ATOM     21  C   UNL     1      11.079   8.233  22.030  0.00  0.00    +0.046 A 
ATOM     22  C   UNL     1      12.019   9.375  20.119  0.00  0.00    +0.046 A 
ATOM     23  C   UNL     1      11.658   8.191  20.762  0.00  0.00    +0.120 A 
BRANCH  23   6
ATOM      6  O   UNL     1      11.873   6.992  20.151  0.00  0.00    -0.495 OA
ATOM     27  C   UNL     1      12.589   7.011  18.918  0.00  0.00    +0.277 C 
ENDBRANCH  23   6
ENDBRANCH  14  15
ENDBRANCH   7  14
ENDBRANCH   9   7
BRANCH  11  13
ATOM     13  C   UNL     1      14.228  13.930  25.707  0.00  0.00    +0.140 C 
BRANCH  13   8
ATOM      8  N   UNL     1      14.868  13.004  24.754  0.00  0.00    -0.187 NA
ATOM     30  H   UNL     1      15.504  12.308  25.165  0.00  0.00    +0.148 HD
BRANCH   8   1
ATOM      1  S   UNL     1      15.131  13.486  23.144  0.00  0.00    +0.058 S 
ATOM      4  O   UNL     1      16.423  14.137  23.041  0.00  0.00    -0.153 OA
ATOM      5  O   UNL     1      13.939  14.148  22.649  0.00  0.00    -0.153 OA
BRANCH   1  16
ATOM     16  C   UNL     1      15.239  11.929  22.313  0.00  0.00    +0.105 A 
ATOM     19  C   UNL     1      14.920  10.753  22.992  0.00  0.00    +0.028 A 
ATOM     20  C   UNL     1      15.641  11.877  20.979  0.00  0.00    +0.028 A 
ATOM     24  C   UNL     1      15.006   9.524  22.336  0.00  0.00    +0.002 A 
ATOM     25  C   UNL     1      15.726  10.649  20.323  0.00  0.00    +0.002 A 
ATOM     26  C   UNL     1      15.407   9.472  21.003  0.00  0.00    +0.000 A 
ENDBRANCH   1  16
ENDBRANCH   8   1
ENDBRANCH  13   8
ENDBRANCH  11  13
TORSDOF 9
ENDMDL
MODEL 10
REMARK VINA RESULT:      -5.6      1.982      2.599
REMARK  Name = 75536684
REMARK  10 active torsions:
REMARK  status: ('A' for Active; 'I' for Inactive)
REMARK    1  A    between atoms: S_1  and  N_8
REMARK    2  A    between atoms: S_1  and  C_16
REMARK    3  A    between atoms: O_3  and  C_10
REMARK    4  A    between atoms: O_6  and  C_23
REMARK    5  A    between atoms: O_6  and  C_27
REMARK    6  A    between atoms: N_7  and  C_9
REMARK    7  A    between atoms: N_7  and  C_14
REMARK    8  A    between atoms: N_8  and  C_13
REMARK    9  A    between atoms: C_11  and  C_13
REMARK   10  A    between atoms: C_14  and  C_15
REMARK                            x       y       z     vdW  Elec       q    Type
REMARK                         _______ _______ _______ _____ _____    ______ ____
ROOT
ATOM      2  O   UNL     1      12.347   8.803  19.284  0.00  0.00    -0.371 OA
ATOM      9  C   UNL     1      13.396   6.825  20.076  0.00  0.00    +0.111 C 
ATOM     10  C   UNL     1      12.668   7.494  21.227  0.00  0.00    +0.164 C 
ATOM     11  C   UNL     1      11.673   8.367  20.476  0.00  0.00    +0.164 C 
ATOM     12  C   UNL     1      13.501   7.969  19.081  0.00  0.00    +0.181 C 
ENDROOT
BRANCH  10   3
ATOM      3  O   UNL     1      12.019   6.565  22.075  0.00  0.00    -0.388 OA
ATOM     29  H   UNL     1      11.185   6.960  22.382  0.00  0.00    +0.210 HD
ENDBRANCH  10   3
BRANCH   9   7
ATOM      7  N   UNL     1      14.690   6.275  20.445  0.00  0.00    -0.305 NA
ATOM     28  H   UNL     1      14.635   5.256  20.434  0.00  0.00    +0.123 HD
BRANCH   7  14
ATOM     14  C   UNL     1      15.728   6.701  19.513  0.00  0.00    +0.116 C 
BRANCH  14  15
ATOM     15  C   UNL     1      17.041   6.943  20.208  0.00  0.00    -0.033 A 
ATOM     17  C   UNL     1      17.172   8.007  21.101  0.00  0.00    +0.008 A 
ATOM     18  C   UNL     1      18.127   6.104  19.960  0.00  0.00    +0.008 A 
ATOM     21  C   UNL     1      18.388   8.232  21.744  0.00  0.00    +0.046 A 
ATOM     22  C   UNL     1      19.344   6.328  20.603  0.00  0.00    +0.046 A 
ATOM     23  C   UNL     1      19.474   7.392  21.495  0.00  0.00    +0.120 A 
BRANCH  23   6
ATOM      6  O   UNL     1      20.662   7.613  22.123  0.00  0.00    -0.495 OA
ATOM     27  C   UNL     1      20.680   7.477  23.543  0.00  0.00    +0.277 C 
ENDBRANCH  23   6
ENDBRANCH  14  15
ENDBRANCH   7  14
ENDBRANCH   9   7
BRANCH  11  13
ATOM     13  C   UNL     1      11.211   9.574  21.275  0.00  0.00    +0.140 C 
BRANCH  13   8
ATOM      8  N   UNL     1      12.019   9.693  22.504  0.00  0.00    -0.187 NA
ATOM     30  H   UNL     1      11.598   9.299  23.355  0.00  0.00    +0.148 HD
BRANCH   8   1
ATOM      1  S   UNL     1      13.137  10.965  22.669  0.00  0.00    +0.058 S 
ATOM      4  O   UNL     1      14.313  10.677  21.870  0.00  0.00    -0.153 OA
ATOM      5  O   UNL     1      13.272  11.295  24.075  0.00  0.00    -0.153 OA
BRANCH   1  16
ATOM     16  C   UNL     1      12.275  12.306  21.904  0.00  0.00    +0.105 A 
ATOM     19  C   UNL     1      12.728  12.825  20.691  0.00  0.00    +0.028 A 
ATOM     20  C   UNL     1      11.143  12.845  22.515  0.00  0.00    +0.028 A 
ATOM     24  C   UNL     1      12.047  13.884  20.089  0.00  0.00    +0.002 A 
ATOM     25  C   UNL     1      10.462  13.904  21.912  0.00  0.00    +0.002 A 
ATOM     26  C   UNL     1      10.915  14.422  20.698  0.00  0.00    +0.000 A 
ENDBRANCH   1  16
ENDBRANCH   8   1
ENDBRANCH  13   8
ENDBRANCH  11  13
TORSDOF 9
ENDMDL
