MODEL 1
REMARK VINA RESULT:      -8.0      0.000      0.000
REMARK  Name = 7142358
REMARK  6 active torsions:
REMARK  status: ('A' for Active; 'I' for Inactive)
REMARK    1  A    between atoms: C_13  and  C_14
REMARK    2  A    between atoms: C_13  and  C_19
REMARK    3  A    between atoms: C_13  and  C_20
REMARK    4  A    between atoms: C_13  and  C_21
REMARK    5  A    between atoms: C_14  and  C_15
REMARK    6  A    between atoms: C_25  and  C_27
REMARK                            x       y       z     vdW  Elec       q    Type
REMARK                         _______ _______ _______ _____ _____    ______ ____
ROOT
ATOM      1  O   UNL     1      24.150   6.272  21.950  0.00  0.00    -0.276 OA
ATOM      2  O   UNL     1      20.465   7.018  23.151  0.00  0.00    -0.273 OA
ATOM      3  O   UNL     1      17.448   4.953  19.334  0.00  0.00    -0.270 OA
ATOM      6  N   UNL     1      22.112   5.405  21.242  0.00  0.00    -0.298 N 
ATOM      7  N   UNL     1      19.389   5.759  20.301  0.00  0.00    -0.283 N 
ATOM      8  N   UNL     1      18.444   7.682  22.342  0.00  0.00    -0.283 N 
ATOM      9  C   UNL     1      20.166   6.902  20.758  0.00  0.00    +0.180 C 
ATOM     10  C   UNL     1      21.678   6.673  20.647  0.00  0.00    +0.139 C 
ATOM     11  C   UNL     1      21.182   4.277  21.144  0.00  0.00    +0.127 C 
ATOM     12  C   UNL     1      20.106   4.500  20.092  0.00  0.00    +0.128 C 
ATOM     15  C   UNL     1      23.360   5.329  21.863  0.00  0.00    +0.216 C 
ATOM     16  C   UNL     1      19.714   7.168  22.185  0.00  0.00    +0.239 C 
ATOM     17  C   UNL     1      18.061   5.861  19.897  0.00  0.00    +0.249 C 
ATOM     18  C   UNL     1      17.317   7.118  20.180  0.00  0.00    +0.059 A 
ATOM     22  C   UNL     1      17.451   7.869  21.358  0.00  0.00    +0.046 A 
ATOM     23  C   UNL     1      16.298   7.445  19.267  0.00  0.00    +0.023 A 
ATOM     24  C   UNL     1      16.517   8.884  21.628  0.00  0.00    +0.024 A 
ATOM     25  C   UNL     1      15.410   8.488  19.526  0.00  0.00    -0.017 A 
ATOM     26  C   UNL     1      15.511   9.199  20.715  0.00  0.00    +0.010 A 
ATOM     34  H   UNL     1      18.237   8.060  23.263  0.00  0.00    +0.155 HD
ENDROOT
BRANCH  25  27
ATOM      4  O   UNL     1      11.121   7.670  17.308  0.00  0.00    -0.453 OA
ATOM      5  O   UNL     1      11.354   9.618  15.908  0.00  0.00    -0.453 OA
ATOM     27  C   UNL     1      14.372   8.813  18.574  0.00  0.00    -0.014 A 
ATOM     28  C   UNL     1      13.243   7.995  18.472  0.00  0.00    +0.058 A 
ATOM     29  C   UNL     1      14.506   9.949  17.756  0.00  0.00    +0.012 A 
ATOM     30  C   UNL     1      12.279   8.344  17.547  0.00  0.00    +0.167 A 
ATOM     31  C   UNL     1      12.412   9.456  16.749  0.00  0.00    +0.166 A 
ATOM     32  C   UNL     1      13.516  10.280  16.828  0.00  0.00    +0.050 A 
ATOM     33  C   UNL     1      10.540   8.483  16.269  0.00  0.00    +0.466 C 
ENDBRANCH  25  27
BRANCH  15  14
ATOM     14  C   UNL     1      23.731   3.989  22.447  0.00  0.00    +0.102 C 
BRANCH  14  13
ATOM     13  C   UNL     1      24.624   3.155  21.511  0.00  0.00    -0.029 C 
ATOM     19  C   UNL     1      24.703   3.786  20.111  0.00  0.00    +0.011 C 
ATOM     20  C   UNL     1      24.109   1.710  21.392  0.00  0.00    +0.011 C 
ATOM     21  C   UNL     1      26.041   3.124  22.116  0.00  0.00    +0.011 C 
ENDBRANCH  14  13
ENDBRANCH  15  14
TORSDOF 3
ENDMDL
MODEL 2
REMARK VINA RESULT:      -7.7      2.760      3.483
REMARK  Name = 7142358
REMARK  6 active torsions:
REMARK  status: ('A' for Active; 'I' for Inactive)
REMARK    1  A    between atoms: C_13  and  C_14
REMARK    2  A    between atoms: C_13  and  C_19
REMARK    3  A    between atoms: C_13  and  C_20
REMARK    4  A    between atoms: C_13  and  C_21
REMARK    5  A    between atoms: C_14  and  C_15
REMARK    6  A    between atoms: C_25  and  C_27
REMARK                            x       y       z     vdW  Elec       q    Type
REMARK                         _______ _______ _______ _____ _____    ______ ____
ROOT
ATOM      1  O   UNL     1      24.072   3.603  22.917  0.00  0.00    -0.276 OA
ATOM      2  O   UNL     1      21.452   4.457  20.092  0.00  0.00    -0.273 OA
ATOM      3  O   UNL     1      19.711   9.274  21.394  0.00  0.00    -0.270 OA
ATOM      6  N   UNL     1      23.090   5.621  22.310  0.00  0.00    -0.298 N 
ATOM      7  N   UNL     1      20.748   7.233  21.724  0.00  0.00    -0.283 N 
ATOM      8  N   UNL     1      19.408   5.417  19.810  0.00  0.00    -0.283 N 
ATOM      9  C   UNL     1      20.623   5.796  21.922  0.00  0.00    +0.180 C 
ATOM     10  C   UNL     1      21.760   5.215  22.773  0.00  0.00    +0.139 C 
ATOM     11  C   UNL     1      23.207   6.963  21.733  0.00  0.00    +0.127 C 
ATOM     12  C   UNL     1      22.024   7.853  22.084  0.00  0.00    +0.128 C 
ATOM     15  C   UNL     1      24.161   4.735  22.433  0.00  0.00    +0.216 C 
ATOM     16  C   UNL     1      20.562   5.188  20.530  0.00  0.00    +0.239 C 
ATOM     17  C   UNL     1      19.669   8.044  21.381  0.00  0.00    +0.249 C 
ATOM     18  C   UNL     1      18.399   7.405  20.946  0.00  0.00    +0.059 A 
ATOM     22  C   UNL     1      18.324   6.256  20.142  0.00  0.00    +0.046 A 
ATOM     23  C   UNL     1      17.223   8.126  21.226  0.00  0.00    +0.023 A 
ATOM     24  C   UNL     1      17.087   5.897  19.580  0.00  0.00    +0.024 A 
ATOM     25  C   UNL     1      15.995   7.728  20.701  0.00  0.00    -0.017 A 
ATOM     26  C   UNL     1      15.929   6.620  19.865  0.00  0.00    +0.010 A 
ATOM     34  H   UNL     1      19.283   4.831  18.988  0.00  0.00    +0.155 HD
ENDROOT
BRANCH  25  27
ATOM      4  O   UNL     1      11.442   8.149  22.456  0.00  0.00    -0.453 OA
ATOM      5  O   UNL     1      11.337  10.494  21.913  0.00  0.00    -0.453 OA
ATOM     27  C   UNL     1      14.797   8.479  21.004  0.00  0.00    -0.014 A 
ATOM     28  C   UNL     1      13.711   7.840  21.608  0.00  0.00    +0.058 A 
ATOM     29  C   UNL     1      14.734   9.847  20.688  0.00  0.00    +0.012 A 
ATOM     30  C   UNL     1      12.589   8.598  21.877  0.00  0.00    +0.167 A 
ATOM     31  C   UNL     1      12.529   9.936  21.567  0.00  0.00    +0.166 A 
ATOM     32  C   UNL     1      13.587  10.593  20.971  0.00  0.00    +0.050 A 
ATOM     33  C   UNL     1      10.654   9.356  22.476  0.00  0.00    +0.466 C 
ENDBRANCH  25  27
BRANCH  15  14
ATOM     14  C   UNL     1      25.495   5.231  21.934  0.00  0.00    +0.102 C 
BRANCH  14  13
ATOM     13  C   UNL     1      25.991   4.465  20.695  0.00  0.00    -0.029 C 
ATOM     19  C   UNL     1      26.730   3.177  21.096  0.00  0.00    +0.011 C 
ATOM     20  C   UNL     1      26.920   5.341  19.835  0.00  0.00    +0.011 C 
ATOM     21  C   UNL     1      24.759   4.083  19.853  0.00  0.00    +0.011 C 
ENDBRANCH  14  13
ENDBRANCH  15  14
TORSDOF 3
ENDMDL
MODEL 3
REMARK VINA RESULT:      -7.6     27.774     31.686
REMARK  Name = 7142358
REMARK  6 active torsions:
REMARK  status: ('A' for Active; 'I' for Inactive)
REMARK    1  A    between atoms: C_13  and  C_14
REMARK    2  A    between atoms: C_13  and  C_19
REMARK    3  A    between atoms: C_13  and  C_20
REMARK    4  A    between atoms: C_13  and  C_21
REMARK    5  A    between atoms: C_14  and  C_15
REMARK    6  A    between atoms: C_25  and  C_27
REMARK                            x       y       z     vdW  Elec       q    Type
REMARK                         _______ _______ _______ _____ _____    ______ ____
ROOT
ATOM      1  O   UNL     1      -1.447  -9.580  12.260  0.00  0.00    -0.276 OA
ATOM      2  O   UNL     1      -5.256  -8.833  11.549  0.00  0.00    -0.273 OA
ATOM      3  O   UNL     1      -6.268 -11.525   7.114  0.00  0.00    -0.270 OA
ATOM      6  N   UNL     1      -2.964 -10.621  10.838  0.00  0.00    -0.298 N 
ATOM      7  N   UNL     1      -4.957 -10.514   8.729  0.00  0.00    -0.283 N 
ATOM      8  N   UNL     1      -6.676  -8.371   9.830  0.00  0.00    -0.283 N 
ATOM      9  C   UNL     1      -4.443  -9.287   9.321  0.00  0.00    +0.180 C 
ATOM     10  C   UNL     1      -3.050  -9.466   9.940  0.00  0.00    +0.139 C 
ATOM     11  C   UNL     1      -3.777 -11.790  10.490  0.00  0.00    +0.127 C 
ATOM     12  C   UNL     1      -4.253 -11.758   9.046  0.00  0.00    +0.128 C 
ATOM     15  C   UNL     1      -2.135 -10.559  11.959  0.00  0.00    +0.216 C 
ATOM     16  C   UNL     1      -5.485  -8.848  10.338  0.00  0.00    +0.239 C 
ATOM     17  C   UNL     1      -5.955 -10.523   7.759  0.00  0.00    +0.249 C 
ATOM     18  C   UNL     1      -6.714  -9.272   7.495  0.00  0.00    +0.059 A 
ATOM     22  C   UNL     1      -7.110  -8.362   8.488  0.00  0.00    +0.046 A 
ATOM     23  C   UNL     1      -7.201  -9.116   6.185  0.00  0.00    +0.023 A 
ATOM     24  C   UNL     1      -8.040  -7.360   8.161  0.00  0.00    +0.024 A 
ATOM     25  C   UNL     1      -8.084  -8.085   5.866  0.00  0.00    -0.017 A 
ATOM     26  C   UNL     1      -8.515  -7.215   6.858  0.00  0.00    +0.010 A 
ATOM     34  H   UNL     1      -7.267  -7.879  10.495  0.00  0.00    +0.155 HD
ENDROOT
BRANCH  25  27
ATOM      4  O   UNL     1      -7.996  -9.083   1.072  0.00  0.00    -0.453 OA
ATOM      5  O   UNL     1      -9.849  -7.608   0.624  0.00  0.00    -0.453 OA
ATOM     27  C   UNL     1      -8.570  -7.938   4.512  0.00  0.00    -0.014 A 
ATOM     28  C   UNL     1      -7.962  -8.651   3.475  0.00  0.00    +0.058 A 
ATOM     29  C   UNL     1      -9.651  -7.078   4.249  0.00  0.00    +0.012 A 
ATOM     30  C   UNL     1      -8.460  -8.477   2.199  0.00  0.00    +0.167 A 
ATOM     31  C   UNL     1      -9.517  -7.636   1.943  0.00  0.00    +0.166 A 
ATOM     32  C   UNL     1     -10.136  -6.920   2.948  0.00  0.00    +0.050 A 
ATOM     33  C   UNL     1      -8.881  -8.528   0.078  0.00  0.00    +0.466 C 
ENDBRANCH  25  27
BRANCH  15  14
ATOM     14  C   UNL     1      -2.102 -11.790  12.830  0.00  0.00    +0.102 C 
BRANCH  14  13
ATOM     13  C   UNL     1      -2.750 -11.564  14.208  0.00  0.00    -0.029 C 
ATOM     19  C   UNL     1      -3.952 -10.610  14.107  0.00  0.00    +0.011 C 
ATOM     20  C   UNL     1      -1.732 -10.999  15.214  0.00  0.00    +0.011 C 
ATOM     21  C   UNL     1      -3.247 -12.928  14.724  0.00  0.00    +0.011 C 
ENDBRANCH  14  13
ENDBRANCH  15  14
TORSDOF 3
ENDMDL
MODEL 4
REMARK VINA RESULT:      -7.5     27.942     33.088
REMARK  Name = 7142358
REMARK  6 active torsions:
REMARK  status: ('A' for Active; 'I' for Inactive)
REMARK    1  A    between atoms: C_13  and  C_14
REMARK    2  A    between atoms: C_13  and  C_19
REMARK    3  A    between atoms: C_13  and  C_20
REMARK    4  A    between atoms: C_13  and  C_21
REMARK    5  A    between atoms: C_14  and  C_15
REMARK    6  A    between atoms: C_25  and  C_27
REMARK                            x       y       z     vdW  Elec       q    Type
REMARK                         _______ _______ _______ _____ _____    ______ ____
ROOT
ATOM      1  O   UNL     1     -13.281 -13.095  19.909  0.00  0.00    -0.276 OA
ATOM      2  O   UNL     1      -9.445 -12.639  20.717  0.00  0.00    -0.273 OA
ATOM      3  O   UNL     1      -7.913  -8.780  17.447  0.00  0.00    -0.270 OA
ATOM      6  N   UNL     1     -11.803 -11.384  19.367  0.00  0.00    -0.298 N 
ATOM      7  N   UNL     1      -9.288 -10.457  18.252  0.00  0.00    -0.283 N 
ATOM      8  N   UNL     1      -7.450 -12.285  19.678  0.00  0.00    -0.283 N 
ATOM      9  C   UNL     1      -9.536 -11.881  18.427  0.00  0.00    +0.180 C 
ATOM     10  C   UNL     1     -11.032 -12.223  18.444  0.00  0.00    +0.139 C 
ATOM     11  C   UNL     1     -11.358  -9.997  19.527  0.00  0.00    +0.127 C 
ATOM     12  C   UNL     1     -10.428  -9.552  18.408  0.00  0.00    +0.128 C 
ATOM     15  C   UNL     1     -12.899 -11.929  20.037  0.00  0.00    +0.216 C 
ATOM     16  C   UNL     1      -8.829 -12.271  19.715  0.00  0.00    +0.239 C 
ATOM     17  C   UNL     1      -8.079  -9.954  17.779  0.00  0.00    +0.249 C 
ATOM     18  C   UNL     1      -6.906 -10.864  17.692  0.00  0.00    +0.059 A 
ATOM     22  C   UNL     1      -6.601 -11.855  18.639  0.00  0.00    +0.046 A 
ATOM     23  C   UNL     1      -5.972 -10.565  16.684  0.00  0.00    +0.023 A 
ATOM     24  C   UNL     1      -5.339 -12.472  18.595  0.00  0.00    +0.024 A 
ATOM     25  C   UNL     1      -4.744 -11.223  16.624  0.00  0.00    -0.017 A 
ATOM     26  C   UNL     1      -4.421 -12.168  17.590  0.00  0.00    +0.010 A 
ATOM     34  H   UNL     1      -6.999 -12.755  20.459  0.00  0.00    +0.155 HD
ENDROOT
BRANCH  25  27
ATOM      4  O   UNL     1      -3.529 -10.415  11.949  0.00  0.00    -0.453 OA
ATOM      5  O   UNL     1      -1.219 -10.016  12.509  0.00  0.00    -0.453 OA
ATOM     27  C   UNL     1      -3.799 -10.905  15.577  0.00  0.00    -0.014 A 
ATOM     28  C   UNL     1      -4.232 -10.832  14.250  0.00  0.00    +0.058 A 
ATOM     29  C   UNL     1      -2.451 -10.672  15.902  0.00  0.00    +0.012 A 
ATOM     30  C   UNL     1      -3.293 -10.527  13.285  0.00  0.00    +0.167 A 
ATOM     31  C   UNL     1      -1.975 -10.298  13.604  0.00  0.00    +0.166 A 
ATOM     32  C   UNL     1      -1.521 -10.364  14.906  0.00  0.00    +0.050 A 
ATOM     33  C   UNL     1      -2.211 -10.091  11.464  0.00  0.00    +0.466 C 
ENDBRANCH  25  27
BRANCH  15  14
ATOM     14  C   UNL     1     -13.639 -10.999  20.966  0.00  0.00    +0.102 C 
BRANCH  14  13
ATOM     13  C   UNL     1     -14.984 -10.525  20.389  0.00  0.00    -0.029 C 
ATOM     19  C   UNL     1     -16.148 -11.380  20.917  0.00  0.00    +0.011 C 
ATOM     20  C   UNL     1     -14.975 -10.568  18.851  0.00  0.00    +0.011 C 
ATOM     21  C   UNL     1     -15.201  -9.067  20.839  0.00  0.00    +0.011 C 
ENDBRANCH  14  13
ENDBRANCH  15  14
TORSDOF 3
ENDMDL
MODEL 5
REMARK VINA RESULT:      -7.0     14.282     18.312
REMARK  Name = 7142358
REMARK  6 active torsions:
REMARK  status: ('A' for Active; 'I' for Inactive)
REMARK    1  A    between atoms: C_13  and  C_14
REMARK    2  A    between atoms: C_13  and  C_19
REMARK    3  A    between atoms: C_13  and  C_20
REMARK    4  A    between atoms: C_13  and  C_21
REMARK    5  A    between atoms: C_14  and  C_15
REMARK    6  A    between atoms: C_25  and  C_27
REMARK                            x       y       z     vdW  Elec       q    Type
REMARK                         _______ _______ _______ _____ _____    ______ ____
ROOT
ATOM      1  O   UNL     1       8.668  11.744   8.945  0.00  0.00    -0.276 OA
ATOM      2  O   UNL     1       9.329   7.883   8.463  0.00  0.00    -0.273 OA
ATOM      3  O   UNL     1      13.376   7.705   5.069  0.00  0.00    -0.270 OA
ATOM      6  N   UNL     1      10.481  10.611   8.031  0.00  0.00    -0.298 N 
ATOM      7  N   UNL     1      11.594   8.655   6.197  0.00  0.00    -0.283 N 
ATOM      8  N   UNL     1       9.835   6.365   6.844  0.00  0.00    -0.283 N 
ATOM      9  C   UNL     1      10.153   8.765   6.373  0.00  0.00    +0.180 C 
ATOM     10  C   UNL     1       9.720  10.152   6.865  0.00  0.00    +0.139 C 
ATOM     11  C   UNL     1      11.887  10.203   8.105  0.00  0.00    +0.127 C 
ATOM     12  C   UNL     1      12.423   9.719   6.766  0.00  0.00    +0.128 C 
ATOM     15  C   UNL     1       9.850  11.395   8.998  0.00  0.00    +0.216 C 
ATOM     16  C   UNL     1       9.765   7.653   7.334  0.00  0.00    +0.239 C 
ATOM     17  C   UNL     1      12.184   7.697   5.378  0.00  0.00    +0.249 C 
ATOM     18  C   UNL     1      11.349   6.578   4.864  0.00  0.00    +0.059 A 
ATOM     22  C   UNL     1      10.349   5.930   5.605  0.00  0.00    +0.046 A 
ATOM     23  C   UNL     1      11.736   6.047   3.619  0.00  0.00    +0.023 A 
ATOM     24  C   UNL     1       9.810   4.727   5.117  0.00  0.00    +0.024 A 
ATOM     25  C   UNL     1      11.156   4.880   3.126  0.00  0.00    -0.017 A 
ATOM     26  C   UNL     1      10.202   4.211   3.882  0.00  0.00    +0.010 A 
ATOM     34  H   UNL     1       9.369   5.659   7.408  0.00  0.00    +0.155 HD
ENDROOT
BRANCH  25  27
ATOM      4  O   UNL     1      10.454   3.976  -1.636  0.00  0.00    -0.453 OA
ATOM      5  O   UNL     1      12.597   2.894  -1.854  0.00  0.00    -0.453 OA
ATOM     27  C   UNL     1      11.563   4.352   1.842  0.00  0.00    -0.014 A 
ATOM     28  C   UNL     1      10.713   4.472   0.740  0.00  0.00    +0.058 A 
ATOM     29  C   UNL     1      12.813   3.721   1.713  0.00  0.00    +0.012 A 
ATOM     30  C   UNL     1      11.144   3.952  -0.463  0.00  0.00    +0.167 A 
ATOM     31  C   UNL     1      12.367   3.336  -0.588  0.00  0.00    +0.166 A 
ATOM     32  C   UNL     1      13.227   3.203   0.484  0.00  0.00    +0.050 A 
ATOM     33  C   UNL     1      11.381   3.304  -2.513  0.00  0.00    +0.466 C 
ENDBRANCH  25  27
BRANCH  15  14
ATOM     14  C   UNL     1      10.703  11.827  10.165  0.00  0.00    +0.102 C 
BRANCH  14  13
ATOM     13  C   UNL     1      11.040  13.329  10.135  0.00  0.00    -0.029 C 
ATOM     19  C   UNL     1       9.969  14.152  10.868  0.00  0.00    +0.011 C 
ATOM     20  C   UNL     1      11.177  13.839   8.689  0.00  0.00    +0.011 C 
ATOM     21  C   UNL     1      12.388  13.523  10.855  0.00  0.00    +0.011 C 
ENDBRANCH  14  13
ENDBRANCH  15  14
TORSDOF 3
ENDMDL
MODEL 6
REMARK VINA RESULT:      -6.9     30.583     35.249
REMARK  Name = 7142358
REMARK  6 active torsions:
REMARK  status: ('A' for Active; 'I' for Inactive)
REMARK    1  A    between atoms: C_13  and  C_14
REMARK    2  A    between atoms: C_13  and  C_19
REMARK    3  A    between atoms: C_13  and  C_20
REMARK    4  A    between atoms: C_13  and  C_21
REMARK    5  A    between atoms: C_14  and  C_15
REMARK    6  A    between atoms: C_25  and  C_27
REMARK                            x       y       z     vdW  Elec       q    Type
REMARK                         _______ _______ _______ _____ _____    ______ ____
ROOT
ATOM      1  O   UNL     1     -15.988  -5.674  10.429  0.00  0.00    -0.276 OA
ATOM      2  O   UNL     1     -15.789  -6.434  14.297  0.00  0.00    -0.273 OA
ATOM      3  O   UNL     1     -10.702  -5.631  15.484  0.00  0.00    -0.270 OA
ATOM      6  N   UNL     1     -14.338  -5.189  11.994  0.00  0.00    -0.298 N 
ATOM      7  N   UNL     1     -12.526  -6.002  14.112  0.00  0.00    -0.283 N 
ATOM      8  N   UNL     1     -14.450  -7.451  15.831  0.00  0.00    -0.283 N 
ATOM      9  C   UNL     1     -13.529  -6.927  13.604  0.00  0.00    +0.180 C 
ATOM     10  C   UNL     1     -13.968  -6.596  12.172  0.00  0.00    +0.139 C 
ATOM     11  C   UNL     1     -13.595  -4.206  12.787  0.00  0.00    +0.127 C 
ATOM     12  C   UNL     1     -12.300  -4.772  13.351  0.00  0.00    +0.128 C 
ATOM     15  C   UNL     1     -15.357  -4.854  11.101  0.00  0.00    +0.216 C 
ATOM     16  C   UNL     1     -14.679  -6.879  14.597  0.00  0.00    +0.239 C 
ATOM     17  C   UNL     1     -11.673  -6.317  15.166  0.00  0.00    +0.249 C 
ATOM     18  C   UNL     1     -11.953  -7.530  15.980  0.00  0.00    +0.059 A 
ATOM     22  C   UNL     1     -13.239  -7.959  16.345  0.00  0.00    +0.046 A 
ATOM     23  C   UNL     1     -10.830  -8.158  16.549  0.00  0.00    +0.023 A 
ATOM     24  C   UNL     1     -13.370  -8.958  17.325  0.00  0.00    +0.024 A 
ATOM     25  C   UNL     1     -10.978  -9.182  17.483  0.00  0.00    -0.017 A 
ATOM     26  C   UNL     1     -12.250  -9.573  17.882  0.00  0.00    +0.010 A 
ATOM     34  H   UNL     1     -15.279  -7.613  16.397  0.00  0.00    +0.155 HD
ENDROOT
BRANCH  25  27
ATOM      4  O   UNL     1      -6.170 -10.088  17.688  0.00  0.00    -0.453 OA
ATOM      5  O   UNL     1      -6.421 -11.564  19.576  0.00  0.00    -0.453 OA
ATOM     27  C   UNL     1      -9.812  -9.819  18.054  0.00  0.00    -0.014 A 
ATOM     28  C   UNL     1      -8.549  -9.574  17.507  0.00  0.00    +0.058 A 
ATOM     29  C   UNL     1      -9.957 -10.680  19.156  0.00  0.00    +0.012 A 
ATOM     30  C   UNL     1      -7.466 -10.205  18.084  0.00  0.00    +0.167 A 
ATOM     31  C   UNL     1      -7.610 -11.047  19.163  0.00  0.00    +0.166 A 
ATOM     32  C   UNL     1      -8.844 -11.306  19.723  0.00  0.00    +0.050 A 
ATOM     33  C   UNL     1      -5.513 -10.952  18.638  0.00  0.00    +0.466 C 
ENDBRANCH  25  27
BRANCH  15  14
ATOM     14  C   UNL     1     -15.675  -3.384  10.976  0.00  0.00    +0.102 C 
BRANCH  14  13
ATOM     13  C   UNL     1     -15.410  -2.834   9.563  0.00  0.00    -0.029 C 
ATOM     19  C   UNL     1     -16.422  -3.395   8.551  0.00  0.00    +0.011 C 
ATOM     20  C   UNL     1     -13.982  -3.166   9.096  0.00  0.00    +0.011 C 
ATOM     21  C   UNL     1     -15.566  -1.303   9.618  0.00  0.00    +0.011 C 
ENDBRANCH  14  13
ENDBRANCH  15  14
TORSDOF 3
ENDMDL
MODEL 7
REMARK VINA RESULT:      -6.6     28.238     33.226
REMARK  Name = 7142358
REMARK  6 active torsions:
REMARK  status: ('A' for Active; 'I' for Inactive)
REMARK    1  A    between atoms: C_13  and  C_14
REMARK    2  A    between atoms: C_13  and  C_19
REMARK    3  A    between atoms: C_13  and  C_20
REMARK    4  A    between atoms: C_13  and  C_21
REMARK    5  A    between atoms: C_14  and  C_15
REMARK    6  A    between atoms: C_25  and  C_27
REMARK                            x       y       z     vdW  Elec       q    Type
REMARK                         _______ _______ _______ _____ _____    ______ ____
ROOT
ATOM      1  O   UNL     1     -10.303  -7.322   4.973  0.00  0.00    -0.276 OA
ATOM      2  O   UNL     1      -6.707  -8.758   5.737  0.00  0.00    -0.273 OA
ATOM      3  O   UNL     1      -7.472 -11.945   9.884  0.00  0.00    -0.270 OA
ATOM      6  N   UNL     1      -9.628  -9.123   6.280  0.00  0.00    -0.298 N 
ATOM      7  N   UNL     1      -7.979 -10.261   8.381  0.00  0.00    -0.283 N 
ATOM      8  N   UNL     1      -5.341  -9.262   7.487  0.00  0.00    -0.283 N 
ATOM      9  C   UNL     1      -7.743  -8.903   7.913  0.00  0.00    +0.180 C 
ATOM     10  C   UNL     1      -8.991  -8.268   7.287  0.00  0.00    +0.139 C 
ATOM     11  C   UNL     1      -9.568 -10.569   6.509  0.00  0.00    +0.127 C 
ATOM     12  C   UNL     1      -9.214 -10.916   7.948  0.00  0.00    +0.128 C 
ATOM     15  C   UNL     1     -10.247  -8.538   5.175  0.00  0.00    +0.216 C 
ATOM     16  C   UNL     1      -6.579  -8.994   6.940  0.00  0.00    +0.239 C 
ATOM     17  C   UNL     1      -7.182 -10.878   9.341  0.00  0.00    +0.249 C 
ATOM     18  C   UNL     1      -5.892 -10.243   9.722  0.00  0.00    +0.059 A 
ATOM     22  C   UNL     1      -5.031  -9.598   8.821  0.00  0.00    +0.046 A 
ATOM     23  C   UNL     1      -5.459 -10.479  11.040  0.00  0.00    +0.023 A 
ATOM     24  C   UNL     1      -3.730  -9.268   9.240  0.00  0.00    +0.024 A 
ATOM     25  C   UNL     1      -4.182 -10.100  11.454  0.00  0.00    -0.017 A 
ATOM     26  C   UNL     1      -3.312  -9.506  10.548  0.00  0.00    +0.010 A 
ATOM     34  H   UNL     1      -4.548  -9.102   6.870  0.00  0.00    +0.155 HD
ENDROOT
BRANCH  25  27
ATOM      4  O   UNL     1      -5.035 -10.898  16.210  0.00  0.00    -0.453 OA
ATOM      5  O   UNL     1      -2.682 -11.047  16.714  0.00  0.00    -0.453 OA
ATOM     27  C   UNL     1      -3.757 -10.347  12.813  0.00  0.00    -0.014 A 
ATOM     28  C   UNL     1      -4.711 -10.496  13.823  0.00  0.00    +0.058 A 
ATOM     29  C   UNL     1      -2.385 -10.433  13.109  0.00  0.00    +0.012 A 
ATOM     30  C   UNL     1      -4.257 -10.729  15.106  0.00  0.00    +0.167 A 
ATOM     31  C   UNL     1      -2.914 -10.815  15.393  0.00  0.00    +0.166 A 
ATOM     32  C   UNL     1      -1.951 -10.671  14.416  0.00  0.00    +0.050 A 
ATOM     33  C   UNL     1      -4.030 -11.099  17.225  0.00  0.00    +0.466 C 
ENDBRANCH  25  27
BRANCH  15  14
ATOM     14  C   UNL     1     -10.880  -9.488   4.188  0.00  0.00    +0.102 C 
BRANCH  14  13
ATOM     13  C   UNL     1     -10.175  -9.483   2.820  0.00  0.00    -0.029 C 
ATOM     19  C   UNL     1      -8.647  -9.418   2.982  0.00  0.00    +0.011 C 
ATOM     20  C   UNL     1     -10.648  -8.303   1.954  0.00  0.00    +0.011 C 
ATOM     21  C   UNL     1     -10.536 -10.797   2.100  0.00  0.00    +0.011 C 
ENDBRANCH  14  13
ENDBRANCH  15  14
TORSDOF 3
ENDMDL
MODEL 8
REMARK VINA RESULT:      -6.6     33.105     35.931
REMARK  Name = 7142358
REMARK  6 active torsions:
REMARK  status: ('A' for Active; 'I' for Inactive)
REMARK    1  A    between atoms: C_13  and  C_14
REMARK    2  A    between atoms: C_13  and  C_19
REMARK    3  A    between atoms: C_13  and  C_20
REMARK    4  A    between atoms: C_13  and  C_21
REMARK    5  A    between atoms: C_14  and  C_15
REMARK    6  A    between atoms: C_25  and  C_27
REMARK                            x       y       z     vdW  Elec       q    Type
REMARK                         _______ _______ _______ _____ _____    ______ ____
ROOT
ATOM      1  O   UNL     1      -7.564  -8.561  -0.768  0.00  0.00    -0.276 OA
ATOM      2  O   UNL     1      -7.456  -9.487   3.067  0.00  0.00    -0.273 OA
ATOM      3  O   UNL     1     -12.192  -7.983   4.866  0.00  0.00    -0.270 OA
ATOM      6  N   UNL     1      -9.266  -8.730   0.807  0.00  0.00    -0.298 N 
ATOM      7  N   UNL     1     -10.413  -8.069   3.390  0.00  0.00    -0.283 N 
ATOM      8  N   UNL     1      -8.074  -8.672   5.099  0.00  0.00    -0.283 N 
ATOM      9  C   UNL     1      -9.050  -7.674   3.066  0.00  0.00    +0.180 C 
ATOM     10  C   UNL     1      -8.811  -7.555   1.555  0.00  0.00    +0.139 C 
ATOM     11  C   UNL     1     -10.454  -9.419   1.317  0.00  0.00    +0.127 C 
ATOM     12  C   UNL     1     -11.248  -8.564   2.294  0.00  0.00    +0.128 C 
ATOM     15  C   UNL     1      -8.565  -9.134  -0.330  0.00  0.00    +0.216 C 
ATOM     16  C   UNL     1      -8.150  -8.709   3.723  0.00  0.00    +0.239 C 
ATOM     17  C   UNL     1     -10.992  -7.831   4.634  0.00  0.00    +0.249 C 
ATOM     18  C   UNL     1     -10.124  -7.398   5.761  0.00  0.00    +0.059 A 
ATOM     22  C   UNL     1      -8.828  -7.883   5.994  0.00  0.00    +0.046 A 
ATOM     23  C   UNL     1     -10.740  -6.587   6.731  0.00  0.00    +0.023 A 
ATOM     24  C   UNL     1      -8.207  -7.603   7.223  0.00  0.00    +0.024 A 
ATOM     25  C   UNL     1     -10.090  -6.277   7.925  0.00  0.00    -0.017 A 
ATOM     26  C   UNL     1      -8.827  -6.798   8.177  0.00  0.00    +0.010 A 
ATOM     34  H   UNL     1      -7.313  -9.208   5.509  0.00  0.00    +0.155 HD
ENDROOT
BRANCH  25  27
ATOM      4  O   UNL     1     -12.885  -5.563  11.882  0.00  0.00    -0.453 OA
ATOM      5  O   UNL     1     -12.631  -3.170  11.760  0.00  0.00    -0.453 OA
ATOM     27  C   UNL     1     -10.737  -5.438   8.909  0.00  0.00    -0.014 A 
ATOM     28  C   UNL     1     -11.505  -6.020   9.921  0.00  0.00    +0.058 A 
ATOM     29  C   UNL     1     -10.590  -4.041   8.839  0.00  0.00    +0.012 A 
ATOM     30  C   UNL     1     -12.105  -5.178  10.836  0.00  0.00    +0.167 A 
ATOM     31  C   UNL     1     -11.959  -3.813  10.766  0.00  0.00    +0.166 A 
ATOM     32  C   UNL     1     -11.207  -3.211   9.778  0.00  0.00    +0.050 A 
ATOM     33  C   UNL     1     -13.215  -4.285  12.463  0.00  0.00    +0.466 C 
ENDBRANCH  25  27
BRANCH  15  14
ATOM     14  C   UNL     1      -9.099 -10.352  -1.043  0.00  0.00    +0.102 C 
BRANCH  14  13
ATOM     13  C   UNL     1      -9.705 -10.020  -2.419  0.00  0.00    -0.029 C 
ATOM     19  C   UNL     1     -10.150  -8.550  -2.490  0.00  0.00    +0.011 C 
ATOM     20  C   UNL     1     -10.904 -10.932  -2.733  0.00  0.00    +0.011 C 
ATOM     21  C   UNL     1      -8.616 -10.256  -3.482  0.00  0.00    +0.011 C 
ENDBRANCH  14  13
ENDBRANCH  15  14
TORSDOF 3
ENDMDL
MODEL 9
REMARK VINA RESULT:      -6.5     21.796     27.329
REMARK  Name = 7142358
REMARK  6 active torsions:
REMARK  status: ('A' for Active; 'I' for Inactive)
REMARK    1  A    between atoms: C_13  and  C_14
REMARK    2  A    between atoms: C_13  and  C_19
REMARK    3  A    between atoms: C_13  and  C_20
REMARK    4  A    between atoms: C_13  and  C_21
REMARK    5  A    between atoms: C_14  and  C_15
REMARK    6  A    between atoms: C_25  and  C_27
REMARK                            x       y       z     vdW  Elec       q    Type
REMARK                         _______ _______ _______ _____ _____    ______ ____
ROOT
ATOM      1  O   UNL     1      -0.192  12.582   9.214  0.00  0.00    -0.276 OA
ATOM      2  O   UNL     1      -0.707   9.623   6.654  0.00  0.00    -0.273 OA
ATOM      3  O   UNL     1      -5.086  10.974   4.021  0.00  0.00    -0.270 OA
ATOM      6  N   UNL     1      -1.536  12.420   7.323  0.00  0.00    -0.298 N 
ATOM      7  N   UNL     1      -3.539  11.039   5.739  0.00  0.00    -0.283 N 
ATOM      8  N   UNL     1      -2.351   8.330   5.756  0.00  0.00    -0.283 N 
ATOM      9  C   UNL     1      -2.973  10.410   6.924  0.00  0.00    +0.180 C 
ATOM     10  C   UNL     1      -2.428  11.429   7.932  0.00  0.00    +0.139 C 
ATOM     11  C   UNL     1      -1.842  12.828   5.949  0.00  0.00    +0.127 C 
ATOM     12  C   UNL     1      -3.260  12.462   5.536  0.00  0.00    +0.128 C 
ATOM     15  C   UNL     1      -0.459  12.919   8.057  0.00  0.00    +0.216 C 
ATOM     16  C   UNL     1      -1.905   9.455   6.417  0.00  0.00    +0.239 C 
ATOM     17  C   UNL     1      -4.457  10.400   4.911  0.00  0.00    +0.249 C 
ATOM     18  C   UNL     1      -4.681   8.939   5.076  0.00  0.00    +0.059 A 
ATOM     22  C   UNL     1      -3.668   8.011   5.367  0.00  0.00    +0.046 A 
ATOM     23  C   UNL     1      -5.965   8.474   4.738  0.00  0.00    +0.023 A 
ATOM     24  C   UNL     1      -3.946   6.639   5.242  0.00  0.00    +0.024 A 
ATOM     25  C   UNL     1      -6.237   7.108   4.668  0.00  0.00    -0.017 A 
ATOM     26  C   UNL     1      -5.223   6.190   4.906  0.00  0.00    +0.010 A 
ATOM     34  H   UNL     1      -1.656   7.599   5.621  0.00  0.00    +0.155 HD
ENDROOT
BRANCH  25  27
ATOM      4  O   UNL     1     -10.423   7.382   2.139  0.00  0.00    -0.453 OA
ATOM      5  O   UNL     1     -11.344   5.453   3.253  0.00  0.00    -0.453 OA
ATOM     27  C   UNL     1      -7.565   6.649   4.323  0.00  0.00    -0.014 A 
ATOM     28  C   UNL     1      -8.302   7.327   3.348  0.00  0.00    +0.058 A 
ATOM     29  C   UNL     1      -8.103   5.524   4.972  0.00  0.00    +0.012 A 
ATOM     30  C   UNL     1      -9.564   6.853   3.054  0.00  0.00    +0.167 A 
ATOM     31  C   UNL     1     -10.090   5.752   3.689  0.00  0.00    +0.166 A 
ATOM     32  C   UNL     1      -9.384   5.064   4.655  0.00  0.00    +0.050 A 
ATOM     33  C   UNL     1     -11.548   6.490   2.271  0.00  0.00    +0.466 C 
ENDBRANCH  25  27
BRANCH  15  14
ATOM     14  C   UNL     1       0.409  13.935   7.357  0.00  0.00    +0.102 C 
BRANCH  14  13
ATOM     13  C   UNL     1       1.809  13.393   7.018  0.00  0.00    -0.029 C 
ATOM     19  C   UNL     1       1.724  12.203   6.048  0.00  0.00    +0.011 C 
ATOM     20  C   UNL     1       2.561  12.963   8.290  0.00  0.00    +0.011 C 
ATOM     21  C   UNL     1       2.601  14.526   6.339  0.00  0.00    +0.011 C 
ENDBRANCH  14  13
ENDBRANCH  15  14
TORSDOF 3
ENDMDL
MODEL 10
REMARK VINA RESULT:      -6.5     24.561     25.951
REMARK  Name = 7142358
REMARK  6 active torsions:
REMARK  status: ('A' for Active; 'I' for Inactive)
REMARK    1  A    between atoms: C_13  and  C_14
REMARK    2  A    between atoms: C_13  and  C_19
REMARK    3  A    between atoms: C_13  and  C_20
REMARK    4  A    between atoms: C_13  and  C_21
REMARK    5  A    between atoms: C_14  and  C_15
REMARK    6  A    between atoms: C_25  and  C_27
REMARK                            x       y       z     vdW  Elec       q    Type
REMARK                         _______ _______ _______ _____ _____    ______ ____
ROOT
ATOM      1  O   UNL     1      24.459  -5.796  -0.087  0.00  0.00    -0.276 OA
ATOM      2  O   UNL     1      20.735  -4.517   0.175  0.00  0.00    -0.273 OA
ATOM      3  O   UNL     1      17.916  -8.347  -2.132  0.00  0.00    -0.270 OA
ATOM      6  N   UNL     1      22.441  -6.913  -0.380  0.00  0.00    -0.298 N 
ATOM      7  N   UNL     1      19.815  -7.139  -1.598  0.00  0.00    -0.283 N 
ATOM      8  N   UNL     1      18.813  -4.411  -1.040  0.00  0.00    -0.283 N 
ATOM      9  C   UNL     1      20.609  -5.932  -1.777  0.00  0.00    +0.180 C 
ATOM     10  C   UNL     1      22.113  -6.183  -1.609  0.00  0.00    +0.139 C 
ATOM     11  C   UNL     1      21.468  -7.910   0.075  0.00  0.00    +0.127 C 
ATOM     12  C   UNL     1      20.485  -8.304  -1.018  0.00  0.00    +0.128 C 
ATOM     15  C   UNL     1      23.634  -6.633   0.288  0.00  0.00    +0.216 C 
ATOM     16  C   UNL     1      20.066  -4.925  -0.776  0.00  0.00    +0.239 C 
ATOM     17  C   UNL     1      18.527  -7.278  -2.108  0.00  0.00    +0.249 C 
ATOM     18  C   UNL     1      17.826  -6.074  -2.628  0.00  0.00    +0.059 A 
ATOM     22  C   UNL     1      17.907  -4.798  -2.049  0.00  0.00    +0.046 A 
ATOM     23  C   UNL     1      16.894  -6.305  -3.657  0.00  0.00    +0.023 A 
ATOM     24  C   UNL     1      17.005  -3.803  -2.464  0.00  0.00    +0.024 A 
ATOM     25  C   UNL     1      16.040  -5.292  -4.092  0.00  0.00    -0.017 A 
ATOM     26  C   UNL     1      16.086  -4.044  -3.485  0.00  0.00    +0.010 A 
ATOM     34  H   UNL     1      18.557  -3.588  -0.501  0.00  0.00    +0.155 HD
ENDROOT
BRANCH  25  27
ATOM      4  O   UNL     1      12.876  -8.136  -6.518  0.00  0.00    -0.453 OA
ATOM      5  O   UNL     1      12.387  -6.404  -8.121  0.00  0.00    -0.453 OA
ATOM     27  C   UNL     1      15.092  -5.548  -5.154  0.00  0.00    -0.014 A 
ATOM     28  C   UNL     1      14.469  -6.795  -5.243  0.00  0.00    +0.058 A 
ATOM     29  C   UNL     1      14.806  -4.539  -6.090  0.00  0.00    +0.012 A 
ATOM     30  C   UNL     1      13.573  -6.993  -6.274  0.00  0.00    +0.167 A 
ATOM     31  C   UNL     1      13.293  -6.004  -7.189  0.00  0.00    +0.166 A 
ATOM     32  C   UNL     1      13.894  -4.763  -7.125  0.00  0.00    +0.050 A 
ATOM     33  C   UNL     1      12.126  -7.756  -7.690  0.00  0.00    +0.466 C 
ENDBRANCH  25  27
BRANCH  15  14
ATOM     14  C   UNL     1      23.896  -7.429   1.542  0.00  0.00    +0.102 C 
BRANCH  14  13
ATOM     13  C   UNL     1      23.885  -6.562   2.813  0.00  0.00    -0.029 C 
ATOM     19  C   UNL     1      22.744  -5.531   2.772  0.00  0.00    +0.011 C 
ATOM     20  C   UNL     1      25.226  -5.832   2.999  0.00  0.00    +0.011 C 
ATOM     21  C   UNL     1      23.661  -7.495   4.018  0.00  0.00    +0.011 C 
ENDBRANCH  14  13
ENDBRANCH  15  14
TORSDOF 3
ENDMDL
