MODEL 1
REMARK VINA RESULT:      -6.4      0.000      0.000
REMARK  Name = 75368641
REMARK  6 active torsions:
REMARK  status: ('A' for Active; 'I' for Inactive)
REMARK    1  A    between atoms: O_3  and  C_26
REMARK    2  A    between atoms: O_3  and  C_27
REMARK    3  A    between atoms: N_5  and  C_14
REMARK    4  A    between atoms: N_6  and  C_15
REMARK    5  A    between atoms: C_14  and  C_16
REMARK    6  A    between atoms: C_15  and  C_17
REMARK                            x       y       z     vdW  Elec       q    Type
REMARK                         _______ _______ _______ _____ _____    ______ ____
ROOT
ATOM      2  O   UNL     1      -1.249 -10.708  15.062  0.00  0.00    -0.252 OA
ATOM      4  N   UNL     1      -3.535 -10.774  15.599  0.00  0.00    -0.278 N 
ATOM      5  N   UNL     1      -5.891 -11.486  16.959  0.00  0.00    -0.295 NA
ATOM      6  N   UNL     1      -2.945 -10.918  13.437  0.00  0.00    -0.279 N 
ATOM      8  C   UNL     1      -4.791 -10.766  14.879  0.00  0.00    +0.109 C 
ATOM      9  C   UNL     1      -5.774 -11.750  15.511  0.00  0.00    +0.109 C 
ATOM     10  C   UNL     1      -4.387 -11.094  13.443  0.00  0.00    +0.133 C 
ATOM     11  C   UNL     1      -3.545 -10.671  17.044  0.00  0.00    +0.125 C 
ATOM     12  C   UNL     1      -4.584 -11.630  17.630  0.00  0.00    +0.104 C 
ATOM     13  C   UNL     1      -2.427 -10.786  14.741  0.00  0.00    +0.305 C 
ENDROOT
BRANCH   5  14
ATOM     14  C   UNL     1      -6.876 -12.384  17.562  0.00  0.00    +0.122 C 
BRANCH  14  16
ATOM      1  F   UNL     1      -8.027 -13.006  20.093  0.00  0.00    -0.204 F 
ATOM      7  N   UNL     1     -10.197 -10.232  19.236  0.00  0.00    -0.260 NA
ATOM     16  C   UNL     1      -8.037 -11.634  18.149  0.00  0.00    +0.005 A 
ATOM     20  C   UNL     1      -8.548 -11.993  19.391  0.00  0.00    +0.146 A 
ATOM     21  C   UNL     1      -8.604 -10.574  17.449  0.00  0.00    +0.027 A 
ATOM     24  C   UNL     1      -9.619 -11.266  19.886  0.00  0.00    +0.149 A 
ATOM     25  C   UNL     1      -9.673  -9.912  18.031  0.00  0.00    +0.111 A 
ENDBRANCH  14  16
ENDBRANCH   5  14
BRANCH   6  15
ATOM     15  C   UNL     1      -2.165 -11.028  12.225  0.00  0.00    +0.144 C 
BRANCH  15  17
ATOM     17  C   UNL     1      -2.967 -10.677  11.005  0.00  0.00    -0.030 A 
ATOM     18  C   UNL     1      -3.610 -11.680  10.280  0.00  0.00    +0.009 A 
ATOM     19  C   UNL     1      -3.068  -9.348  10.597  0.00  0.00    +0.009 A 
ATOM     22  C   UNL     1      -4.356 -11.353   9.148  0.00  0.00    +0.046 A 
ATOM     23  C   UNL     1      -3.814  -9.021   9.465  0.00  0.00    +0.046 A 
ATOM     26  C   UNL     1      -4.457 -10.024   8.740  0.00  0.00    +0.120 A 
BRANCH  26   3
ATOM      3  O   UNL     1      -5.185  -9.705   7.636  0.00  0.00    -0.495 OA
ATOM     27  C   UNL     1      -5.407 -10.743   6.681  0.00  0.00    +0.277 C 
ENDBRANCH  26   3
ENDBRANCH  15  17
ENDBRANCH   6  15
TORSDOF 5
ENDMDL
MODEL 2
REMARK VINA RESULT:      -6.4      4.643      8.269
REMARK  Name = 75368641
REMARK  6 active torsions:
REMARK  status: ('A' for Active; 'I' for Inactive)
REMARK    1  A    between atoms: O_3  and  C_26
REMARK    2  A    between atoms: O_3  and  C_27
REMARK    3  A    between atoms: N_5  and  C_14
REMARK    4  A    between atoms: N_6  and  C_15
REMARK    5  A    between atoms: C_14  and  C_16
REMARK    6  A    between atoms: C_15  and  C_17
REMARK                            x       y       z     vdW  Elec       q    Type
REMARK                         _______ _______ _______ _____ _____    ______ ____
ROOT
ATOM      2  O   UNL     1      -9.578 -10.760  20.231  0.00  0.00    -0.252 OA
ATOM      4  N   UNL     1      -7.984 -10.982  18.520  0.00  0.00    -0.278 N 
ATOM      5  N   UNL     1      -5.486 -10.884  17.232  0.00  0.00    -0.295 NA
ATOM      6  N   UNL     1      -9.975 -10.077  18.009  0.00  0.00    -0.279 N 
ATOM      8  C   UNL     1      -7.941 -10.796  17.084  0.00  0.00    +0.109 C 
ATOM      9  C   UNL     1      -6.627 -10.133  16.673  0.00  0.00    +0.109 C 
ATOM     10  C   UNL     1      -9.195  -9.977  16.787  0.00  0.00    +0.133 C 
ATOM     11  C   UNL     1      -6.847 -11.576  19.192  0.00  0.00    +0.125 C 
ATOM     12  C   UNL     1      -5.551 -10.923  18.706  0.00  0.00    +0.104 C 
ATOM     13  C   UNL     1      -9.224 -10.627  19.067  0.00  0.00    +0.305 C 
ENDROOT
BRANCH   5  14
ATOM     14  C   UNL     1      -4.222 -10.292  16.793  0.00  0.00    +0.122 C 
BRANCH  14  16
ATOM      1  F   UNL     1      -1.534  -9.810  15.983  0.00  0.00    -0.204 F 
ATOM      7  N   UNL     1      -2.032 -12.927  14.201  0.00  0.00    -0.260 NA
ATOM     16  C   UNL     1      -3.455 -11.211  15.887  0.00  0.00    +0.005 A 
ATOM     20  C   UNL     1      -2.144 -10.913  15.532  0.00  0.00    +0.146 A 
ATOM     21  C   UNL     1      -4.056 -12.367  15.399  0.00  0.00    +0.027 A 
ATOM     24  C   UNL     1      -1.482 -11.796  14.695  0.00  0.00    +0.149 A 
ATOM     25  C   UNL     1      -3.308 -13.184  14.567  0.00  0.00    +0.111 A 
ENDBRANCH  14  16
ENDBRANCH   5  14
BRANCH   6  15
ATOM     15  C   UNL     1     -11.306  -9.523  18.116  0.00  0.00    +0.144 C 
BRANCH  15  17
ATOM     17  C   UNL     1     -11.539  -8.422  17.123  0.00  0.00    -0.030 A 
ATOM     18  C   UNL     1     -10.761  -7.264  17.170  0.00  0.00    +0.009 A 
ATOM     19  C   UNL     1     -12.533  -8.554  16.154  0.00  0.00    +0.009 A 
ATOM     22  C   UNL     1     -10.977  -6.241  16.247  0.00  0.00    +0.046 A 
ATOM     23  C   UNL     1     -12.749  -7.531  15.231  0.00  0.00    +0.046 A 
ATOM     26  C   UNL     1     -11.971  -6.374  15.278  0.00  0.00    +0.120 A 
BRANCH  26   3
ATOM      3  O   UNL     1     -12.181  -5.377  14.377  0.00  0.00    -0.495 OA
ATOM     27  C   UNL     1     -12.960  -5.695  13.225  0.00  0.00    +0.277 C 
ENDBRANCH  26   3
ENDBRANCH  15  17
ENDBRANCH   6  15
TORSDOF 5
ENDMDL
MODEL 3
REMARK VINA RESULT:      -6.3     27.980     30.434
REMARK  Name = 75368641
REMARK  6 active torsions:
REMARK  status: ('A' for Active; 'I' for Inactive)
REMARK    1  A    between atoms: O_3  and  C_26
REMARK    2  A    between atoms: O_3  and  C_27
REMARK    3  A    between atoms: N_5  and  C_14
REMARK    4  A    between atoms: N_6  and  C_15
REMARK    5  A    between atoms: C_14  and  C_16
REMARK    6  A    between atoms: C_15  and  C_17
REMARK                            x       y       z     vdW  Elec       q    Type
REMARK                         _______ _______ _______ _____ _____    ______ ____
ROOT
ATOM      2  O   UNL     1      18.772   5.007  19.441  0.00  0.00    -0.252 OA
ATOM      4  N   UNL     1      17.416   6.662  20.409  0.00  0.00    -0.278 N 
ATOM      5  N   UNL     1      15.343   8.548  20.646  0.00  0.00    -0.295 NA
ATOM      6  N   UNL     1      19.642   6.838  20.647  0.00  0.00    -0.279 N 
ATOM      8  C   UNL     1      17.599   7.800  21.286  0.00  0.00    +0.109 C 
ATOM      9  C   UNL     1      16.746   8.977  20.815  0.00  0.00    +0.109 C 
ATOM     10  C   UNL     1      19.106   8.045  21.251  0.00  0.00    +0.133 C 
ATOM     11  C   UNL     1      16.074   6.247  20.057  0.00  0.00    +0.125 C 
ATOM     12  C   UNL     1      15.239   7.464  19.649  0.00  0.00    +0.104 C 
ATOM     13  C   UNL     1      18.627   6.036  20.087  0.00  0.00    +0.305 C 
ENDROOT
BRANCH   5  14
ATOM     14  C   UNL     1      14.507   9.683  20.254  0.00  0.00    +0.122 C 
BRANCH  14  16
ATOM      1  F   UNL     1      13.720   9.560  17.518  0.00  0.00    -0.204 F 
ATOM      7  N   UNL     1      10.599   8.433  18.977  0.00  0.00    -0.260 NA
ATOM     16  C   UNL     1      13.142   9.246  19.805  0.00  0.00    +0.005 A 
ATOM     20  C   UNL     1      12.827   9.211  18.452  0.00  0.00    +0.146 A 
ATOM     21  C   UNL     1      12.187   8.876  20.746  0.00  0.00    +0.027 A 
ATOM     24  C   UNL     1      11.553   8.800  18.092  0.00  0.00    +0.149 A 
ATOM     25  C   UNL     1      10.942   8.480  20.283  0.00  0.00    +0.111 A 
ENDBRANCH  14  16
ENDBRANCH   5  14
BRANCH   6  15
ATOM     15  C   UNL     1      21.064   6.609  20.524  0.00  0.00    +0.144 C 
BRANCH  15  17
ATOM     17  C   UNL     1      21.557   5.592  21.513  0.00  0.00    -0.030 A 
ATOM     18  C   UNL     1      21.887   5.983  22.811  0.00  0.00    +0.009 A 
ATOM     19  C   UNL     1      21.686   4.256  21.134  0.00  0.00    +0.009 A 
ATOM     22  C   UNL     1      22.344   5.038  23.729  0.00  0.00    +0.046 A 
ATOM     23  C   UNL     1      22.143   3.311  22.051  0.00  0.00    +0.046 A 
ATOM     26  C   UNL     1      22.473   3.702  23.350  0.00  0.00    +0.120 A 
BRANCH  26   3
ATOM      3  O   UNL     1      22.918   2.780  24.245  0.00  0.00    -0.495 OA
ATOM     27  C   UNL     1      24.247   2.943  24.739  0.00  0.00    +0.277 C 
ENDBRANCH  26   3
ENDBRANCH  15  17
ENDBRANCH   6  15
TORSDOF 5
ENDMDL
MODEL 4
REMARK VINA RESULT:      -6.3      6.496      8.753
REMARK  Name = 75368641
REMARK  6 active torsions:
REMARK  status: ('A' for Active; 'I' for Inactive)
REMARK    1  A    between atoms: O_3  and  C_26
REMARK    2  A    between atoms: O_3  and  C_27
REMARK    3  A    between atoms: N_5  and  C_14
REMARK    4  A    between atoms: N_6  and  C_15
REMARK    5  A    between atoms: C_14  and  C_16
REMARK    6  A    between atoms: C_15  and  C_17
REMARK                            x       y       z     vdW  Elec       q    Type
REMARK                         _______ _______ _______ _____ _____    ______ ____
ROOT
ATOM      2  O   UNL     1     -13.137  -8.110  13.363  0.00  0.00    -0.252 OA
ATOM      4  N   UNL     1     -11.165  -8.095  14.637  0.00  0.00    -0.278 N 
ATOM      5  N   UNL     1      -9.195  -8.987  16.436  0.00  0.00    -0.295 NA
ATOM      6  N   UNL     1     -12.403  -6.223  14.572  0.00  0.00    -0.279 N 
ATOM      8  C   UNL     1     -10.383  -7.117  15.365  0.00  0.00    +0.109 C 
ATOM      9  C   UNL     1      -9.888  -7.707  16.685  0.00  0.00    +0.109 C 
ATOM     10  C   UNL     1     -11.334  -5.929  15.509  0.00  0.00    +0.133 C 
ATOM     11  C   UNL     1     -10.641  -9.434  14.464  0.00  0.00    +0.125 C 
ATOM     12  C   UNL     1     -10.102  -9.962  15.797  0.00  0.00    +0.104 C 
ATOM     13  C   UNL     1     -12.334  -7.547  14.095  0.00  0.00    +0.305 C 
ENDROOT
BRANCH   5  14
ATOM     14  C   UNL     1      -8.665  -9.530  17.687  0.00  0.00    +0.122 C 
BRANCH  14  16
ATOM      1  F   UNL     1      -7.179 -10.754  19.788  0.00  0.00    -0.204 F 
ATOM      7  N   UNL     1      -4.499 -10.531  17.357  0.00  0.00    -0.260 NA
ATOM     16  C   UNL     1      -7.209  -9.881  17.574  0.00  0.00    +0.005 A 
ATOM     20  C   UNL     1      -6.546 -10.477  18.641  0.00  0.00    +0.146 A 
ATOM     21  C   UNL     1      -6.518  -9.608  16.398  0.00  0.00    +0.027 A 
ATOM     24  C   UNL     1      -5.204 -10.780  18.483  0.00  0.00    +0.149 A 
ATOM     25  C   UNL     1      -5.176  -9.951  16.341  0.00  0.00    +0.111 A 
ENDBRANCH  14  16
ENDBRANCH   5  14
BRANCH   6  15
ATOM     15  C   UNL     1     -13.474  -5.286  14.313  0.00  0.00    +0.144 C 
BRANCH  15  17
ATOM     17  C   UNL     1     -13.399  -4.716  12.926  0.00  0.00    -0.030 A 
ATOM     18  C   UNL     1     -12.233  -4.082  12.495  0.00  0.00    +0.009 A 
ATOM     19  C   UNL     1     -14.494  -4.820  12.069  0.00  0.00    +0.009 A 
ATOM     22  C   UNL     1     -12.164  -3.553  11.206  0.00  0.00    +0.046 A 
ATOM     23  C   UNL     1     -14.424  -4.291  10.781  0.00  0.00    +0.046 A 
ATOM     26  C   UNL     1     -13.258  -3.657  10.349  0.00  0.00    +0.120 A 
BRANCH  26   3
ATOM      3  O   UNL     1     -13.190  -3.142   9.092  0.00  0.00    -0.495 OA
ATOM     27  C   UNL     1     -14.426  -2.843   8.444  0.00  0.00    +0.277 C 
ENDBRANCH  26   3
ENDBRANCH  15  17
ENDBRANCH   6  15
TORSDOF 5
ENDMDL
MODEL 5
REMARK VINA RESULT:      -6.2     25.648     28.628
REMARK  Name = 75368641
REMARK  6 active torsions:
REMARK  status: ('A' for Active; 'I' for Inactive)
REMARK    1  A    between atoms: O_3  and  C_26
REMARK    2  A    between atoms: O_3  and  C_27
REMARK    3  A    between atoms: N_5  and  C_14
REMARK    4  A    between atoms: N_6  and  C_15
REMARK    5  A    between atoms: C_14  and  C_16
REMARK    6  A    between atoms: C_15  and  C_17
REMARK                            x       y       z     vdW  Elec       q    Type
REMARK                         _______ _______ _______ _____ _____    ______ ____
ROOT
ATOM      2  O   UNL     1      15.371   8.814   2.912  0.00  0.00    -0.252 OA
ATOM      4  N   UNL     1      13.861   7.718   4.339  0.00  0.00    -0.278 N 
ATOM      5  N   UNL     1      11.403   6.812   5.362  0.00  0.00    -0.295 NA
ATOM      6  N   UNL     1      15.528   8.905   5.264  0.00  0.00    -0.279 N 
ATOM      8  C   UNL     1      13.742   7.465   5.760  0.00  0.00    +0.109 C 
ATOM      9  C   UNL     1      12.291   7.632   6.211  0.00  0.00    +0.109 C 
ATOM     10  C   UNL     1      14.726   8.452   6.387  0.00  0.00    +0.133 C 
ATOM     11  C   UNL     1      12.938   7.077   3.426  0.00  0.00    +0.125 C 
ATOM     12  C   UNL     1      11.505   7.217   3.946  0.00  0.00    +0.104 C 
ATOM     13  C   UNL     1      14.972   8.513   4.029  0.00  0.00    +0.305 C 
ENDROOT
BRANCH   5  14
ATOM     14  C   UNL     1      10.019   6.917   5.825  0.00  0.00    +0.122 C 
BRANCH  14  16
ATOM      1  F   UNL     1       8.967   7.937   8.268  0.00  0.00    -0.204 F 
ATOM      7  N   UNL     1       9.291   4.473   9.282  0.00  0.00    -0.260 NA
ATOM     16  C   UNL     1       9.764   6.065   7.034  0.00  0.00    +0.005 A 
ATOM     20  C   UNL     1       9.249   6.631   8.195  0.00  0.00    +0.146 A 
ATOM     21  C   UNL     1      10.044   4.703   6.996  0.00  0.00    +0.027 A 
ATOM     24  C   UNL     1       9.031   5.799   9.281  0.00  0.00    +0.149 A 
ATOM     25  C   UNL     1       9.791   3.958   8.137  0.00  0.00    +0.111 A 
ENDBRANCH  14  16
ENDBRANCH   5  14
BRANCH   6  15
ATOM     15  C   UNL     1      16.665   9.781   5.438  0.00  0.00    +0.144 C 
BRANCH  15  17
ATOM     17  C   UNL     1      17.963   9.027   5.423  0.00  0.00    -0.030 A 
ATOM     18  C   UNL     1      18.753   8.974   6.572  0.00  0.00    +0.009 A 
ATOM     19  C   UNL     1      18.381   8.380   4.260  0.00  0.00    +0.009 A 
ATOM     22  C   UNL     1      19.958   8.273   6.558  0.00  0.00    +0.046 A 
ATOM     23  C   UNL     1      19.586   7.680   4.246  0.00  0.00    +0.046 A 
ATOM     26  C   UNL     1      20.375   7.626   5.395  0.00  0.00    +0.120 A 
BRANCH  26   3
ATOM      3  O   UNL     1      21.551   6.942   5.381  0.00  0.00    -0.495 OA
ATOM     27  C   UNL     1      21.917   6.304   4.159  0.00  0.00    +0.277 C 
ENDBRANCH  26   3
ENDBRANCH  15  17
ENDBRANCH   6  15
TORSDOF 5
ENDMDL
MODEL 6
REMARK VINA RESULT:      -6.2     28.389     30.789
REMARK  Name = 75368641
REMARK  6 active torsions:
REMARK  status: ('A' for Active; 'I' for Inactive)
REMARK    1  A    between atoms: O_3  and  C_26
REMARK    2  A    between atoms: O_3  and  C_27
REMARK    3  A    between atoms: N_5  and  C_14
REMARK    4  A    between atoms: N_6  and  C_15
REMARK    5  A    between atoms: C_14  and  C_16
REMARK    6  A    between atoms: C_15  and  C_17
REMARK                            x       y       z     vdW  Elec       q    Type
REMARK                         _______ _______ _______ _____ _____    ______ ____
ROOT
ATOM      2  O   UNL     1      20.077   9.278  23.118  0.00  0.00    -0.252 OA
ATOM      4  N   UNL     1      18.482   8.323  21.683  0.00  0.00    -0.278 N 
ATOM      5  N   UNL     1      15.960   7.707  20.601  0.00  0.00    -0.295 NA
ATOM      6  N   UNL     1      20.155   7.023  22.428  0.00  0.00    -0.279 N 
ATOM      8  C   UNL     1      18.305   7.066  20.985  0.00  0.00    +0.109 C 
ATOM      9  C   UNL     1      16.846   6.618  21.058  0.00  0.00    +0.109 C 
ATOM     10  C   UNL     1      19.300   6.130  21.668  0.00  0.00    +0.133 C 
ATOM     11  C   UNL     1      17.569   9.415  21.417  0.00  0.00    +0.125 C 
ATOM     12  C   UNL     1      16.125   8.909  21.442  0.00  0.00    +0.104 C 
ATOM     13  C   UNL     1      19.630   8.330  22.487  0.00  0.00    +0.305 C 
ENDROOT
BRANCH   5  14
ATOM     14  C   UNL     1      14.565   7.266  20.610  0.00  0.00    +0.122 C 
BRANCH  14  16
ATOM      1  F   UNL     1      11.757   7.700  20.394  0.00  0.00    -0.204 F 
ATOM      7  N   UNL     1      12.590   8.125  16.892  0.00  0.00    -0.260 NA
ATOM     16  C   UNL     1      13.873   7.566  19.312  0.00  0.00    +0.005 A 
ATOM     20  C   UNL     1      12.497   7.767  19.281  0.00  0.00    +0.146 A 
ATOM     21  C   UNL     1      14.608   7.644  18.134  0.00  0.00    +0.027 A 
ATOM     24  C   UNL     1      11.909   8.042  18.057  0.00  0.00    +0.149 A 
ATOM     25  C   UNL     1      13.925   7.924  16.961  0.00  0.00    +0.111 A 
ENDBRANCH  14  16
ENDBRANCH   5  14
BRANCH   6  15
ATOM     15  C   UNL     1      21.315   6.547  23.148  0.00  0.00    +0.144 C 
BRANCH  15  17
ATOM     17  C   UNL     1      22.087   5.528  22.361  0.00  0.00    -0.030 A 
ATOM     18  C   UNL     1      22.039   4.182  22.725  0.00  0.00    +0.009 A 
ATOM     19  C   UNL     1      22.851   5.926  21.265  0.00  0.00    +0.009 A 
ATOM     22  C   UNL     1      22.755   3.236  21.993  0.00  0.00    +0.046 A 
ATOM     23  C   UNL     1      23.567   4.980  20.532  0.00  0.00    +0.046 A 
ATOM     26  C   UNL     1      23.520   3.634  20.897  0.00  0.00    +0.120 A 
BRANCH  26   3
ATOM      3  O   UNL     1      24.218   2.711  20.182  0.00  0.00    -0.495 OA
ATOM     27  C   UNL     1      25.213   3.201  19.285  0.00  0.00    +0.277 C 
ENDBRANCH  26   3
ENDBRANCH  15  17
ENDBRANCH   6  15
TORSDOF 5
ENDMDL
MODEL 7
REMARK VINA RESULT:      -6.2      5.587      7.925
REMARK  Name = 75368641
REMARK  6 active torsions:
REMARK  status: ('A' for Active; 'I' for Inactive)
REMARK    1  A    between atoms: O_3  and  C_26
REMARK    2  A    between atoms: O_3  and  C_27
REMARK    3  A    between atoms: N_5  and  C_14
REMARK    4  A    between atoms: N_6  and  C_15
REMARK    5  A    between atoms: C_14  and  C_16
REMARK    6  A    between atoms: C_15  and  C_17
REMARK                            x       y       z     vdW  Elec       q    Type
REMARK                         _______ _______ _______ _____ _____    ______ ____
ROOT
ATOM      2  O   UNL     1     -12.852  -9.319  14.524  0.00  0.00    -0.252 OA
ATOM      4  N   UNL     1     -10.667  -9.159  15.370  0.00  0.00    -0.278 N 
ATOM      5  N   UNL     1      -8.422  -9.730  16.965  0.00  0.00    -0.295 NA
ATOM      6  N   UNL     1     -11.809  -7.260  15.008  0.00  0.00    -0.279 N 
ATOM      8  C   UNL     1      -9.714  -8.104  15.645  0.00  0.00    +0.109 C 
ATOM      9  C   UNL     1      -8.993  -8.368  16.966  0.00  0.00    +0.109 C 
ATOM     10  C   UNL     1     -10.562  -6.834  15.619  0.00  0.00    +0.133 C 
ATOM     11  C   UNL     1     -10.248 -10.540  15.487  0.00  0.00    +0.125 C 
ATOM     12  C   UNL     1      -9.480 -10.746  16.795  0.00  0.00    +0.104 C 
ATOM     13  C   UNL     1     -11.896  -8.663  14.914  0.00  0.00    +0.305 C 
ENDROOT
BRANCH   5  14
ATOM     14  C   UNL     1      -7.678  -9.971  18.202  0.00  0.00    +0.122 C 
BRANCH  14  16
ATOM      1  F   UNL     1      -6.157 -11.514  20.052  0.00  0.00    -0.204 F 
ATOM      7  N   UNL     1      -3.668 -11.305  17.425  0.00  0.00    -0.260 NA
ATOM     16  C   UNL     1      -6.277 -10.438  17.932  0.00  0.00    +0.005 A 
ATOM     20  C   UNL     1      -5.593 -11.188  18.883  0.00  0.00    +0.146 A 
ATOM     21  C   UNL     1      -5.658 -10.120  16.728  0.00  0.00    +0.027 A 
ATOM     24  C   UNL     1      -4.303 -11.595  18.583  0.00  0.00    +0.149 A 
ATOM     25  C   UNL     1      -4.364 -10.574  16.526  0.00  0.00    +0.111 A 
ENDBRANCH  14  16
ENDBRANCH   5  14
BRANCH   6  15
ATOM     15  C   UNL     1     -12.867  -6.325  14.693  0.00  0.00    +0.144 C 
BRANCH  15  17
ATOM     17  C   UNL     1     -12.658  -5.667  13.360  0.00  0.00    -0.030 A 
ATOM     18  C   UNL     1     -12.656  -6.436  12.195  0.00  0.00    +0.009 A 
ATOM     19  C   UNL     1     -12.465  -4.288  13.286  0.00  0.00    +0.009 A 
ATOM     22  C   UNL     1     -12.462  -5.824  10.957  0.00  0.00    +0.046 A 
ATOM     23  C   UNL     1     -12.271  -3.677  12.048  0.00  0.00    +0.046 A 
ATOM     26  C   UNL     1     -12.269  -4.445  10.883  0.00  0.00    +0.120 A 
BRANCH  26   3
ATOM      3  O   UNL     1     -12.081  -3.848   9.675  0.00  0.00    -0.495 OA
ATOM     27  C   UNL     1     -10.746  -3.801   9.174  0.00  0.00    +0.277 C 
ENDBRANCH  26   3
ENDBRANCH  15  17
ENDBRANCH   6  15
TORSDOF 5
ENDMDL
MODEL 8
REMARK VINA RESULT:      -6.1     23.868     28.059
REMARK  Name = 75368641
REMARK  6 active torsions:
REMARK  status: ('A' for Active; 'I' for Inactive)
REMARK    1  A    between atoms: O_3  and  C_26
REMARK    2  A    between atoms: O_3  and  C_27
REMARK    3  A    between atoms: N_5  and  C_14
REMARK    4  A    between atoms: N_6  and  C_15
REMARK    5  A    between atoms: C_14  and  C_16
REMARK    6  A    between atoms: C_15  and  C_17
REMARK                            x       y       z     vdW  Elec       q    Type
REMARK                         _______ _______ _______ _____ _____    ______ ____
ROOT
ATOM      2  O   UNL     1       8.769   7.219   3.393  0.00  0.00    -0.252 OA
ATOM      4  N   UNL     1      10.621   6.567   2.103  0.00  0.00    -0.278 N 
ATOM      5  N   UNL     1      12.336   4.891   0.633  0.00  0.00    -0.295 NA
ATOM      6  N   UNL     1      10.976   7.897   3.877  0.00  0.00    -0.279 N 
ATOM      8  C   UNL     1      12.031   6.888   2.040  0.00  0.00    +0.109 C 
ATOM      9  C   UNL     1      12.855   5.622   1.807  0.00  0.00    +0.109 C 
ATOM     10  C   UNL     1      12.302   7.595   3.367  0.00  0.00    +0.133 C 
ATOM     11  C   UNL     1      10.038   5.728   1.077  0.00  0.00    +0.125 C 
ATOM     12  C   UNL     1      10.925   4.504   0.835  0.00  0.00    +0.104 C 
ATOM     13  C   UNL     1       9.969   7.229   3.152  0.00  0.00    +0.305 C 
ENDROOT
BRANCH   5  14
ATOM     14  C   UNL     1      13.155   3.709   0.366  0.00  0.00    +0.122 C 
BRANCH  14  16
ATOM      1  F   UNL     1      15.865   3.486   1.218  0.00  0.00    -0.204 F 
ATOM      7  N   UNL     1      16.507   4.619  -2.164  0.00  0.00    -0.260 NA
ATOM     16  C   UNL     1      14.328   4.027  -0.516  0.00  0.00    +0.005 A 
ATOM     20  C   UNL     1      15.625   3.896  -0.033  0.00  0.00    +0.146 A 
ATOM     21  C   UNL     1      14.119   4.455  -1.823  0.00  0.00    +0.027 A 
ATOM     24  C   UNL     1      16.671   4.201  -0.889  0.00  0.00    +0.149 A 
ATOM     25  C   UNL     1      15.232   4.735  -2.599  0.00  0.00    +0.111 A 
ENDBRANCH  14  16
ENDBRANCH   5  14
BRANCH   6  15
ATOM     15  C   UNL     1      10.777   8.672   5.082  0.00  0.00    +0.144 C 
BRANCH  15  17
ATOM     17  C   UNL     1      10.367   7.812   6.242  0.00  0.00    -0.030 A 
ATOM     18  C   UNL     1      11.189   6.764   6.659  0.00  0.00    +0.009 A 
ATOM     19  C   UNL     1       9.165   8.060   6.904  0.00  0.00    +0.009 A 
ATOM     22  C   UNL     1      10.809   5.967   7.737  0.00  0.00    +0.046 A 
ATOM     23  C   UNL     1       8.785   7.262   7.982  0.00  0.00    +0.046 A 
ATOM     26  C   UNL     1       9.607   6.215   8.399  0.00  0.00    +0.120 A 
BRANCH  26   3
ATOM      3  O   UNL     1       9.236   5.437   9.452  0.00  0.00    -0.495 OA
ATOM     27  C   UNL     1       9.363   4.025   9.293  0.00  0.00    +0.277 C 
ENDBRANCH  26   3
ENDBRANCH  15  17
ENDBRANCH   6  15
TORSDOF 5
ENDMDL
MODEL 9
REMARK VINA RESULT:      -6.0      4.857      7.321
REMARK  Name = 75368641
REMARK  6 active torsions:
REMARK  status: ('A' for Active; 'I' for Inactive)
REMARK    1  A    between atoms: O_3  and  C_26
REMARK    2  A    between atoms: O_3  and  C_27
REMARK    3  A    between atoms: N_5  and  C_14
REMARK    4  A    between atoms: N_6  and  C_15
REMARK    5  A    between atoms: C_14  and  C_16
REMARK    6  A    between atoms: C_15  and  C_17
REMARK                            x       y       z     vdW  Elec       q    Type
REMARK                         _______ _______ _______ _____ _____    ______ ____
ROOT
ATOM      2  O   UNL     1      -5.605  -9.460   7.309  0.00  0.00    -0.252 OA
ATOM      4  N   UNL     1      -5.319  -9.739   9.624  0.00  0.00    -0.278 N 
ATOM      5  N   UNL     1      -4.493 -10.911  12.043  0.00  0.00    -0.295 NA
ATOM      6  N   UNL     1      -7.339  -9.112   8.870  0.00  0.00    -0.279 N 
ATOM      8  C   UNL     1      -6.094  -9.496  10.822  0.00  0.00    +0.109 C 
ATOM      9  C   UNL     1      -5.928 -10.653  11.807  0.00  0.00    +0.109 C 
ATOM     10  C   UNL     1      -7.516  -9.298  10.299  0.00  0.00    +0.133 C 
ATOM     11  C   UNL     1      -3.934 -10.146   9.746  0.00  0.00    +0.125 C 
ATOM     12  C   UNL     1      -3.806 -11.264  10.785  0.00  0.00    +0.104 C 
ATOM     13  C   UNL     1      -6.031  -9.436   8.456  0.00  0.00    +0.305 C 
ENDROOT
BRANCH   5  14
ATOM     14  C   UNL     1      -4.324 -11.977  13.031  0.00  0.00    +0.122 C 
BRANCH  14  16
ATOM      1  F   UNL     1      -1.479 -12.118  13.047  0.00  0.00    -0.204 F 
ATOM      7  N   UNL     1      -1.918 -10.716  16.360  0.00  0.00    -0.260 NA
ATOM     16  C   UNL     1      -3.481 -11.537  14.194  0.00  0.00    +0.005 A 
ATOM     20  C   UNL     1      -2.096 -11.635  14.132  0.00  0.00    +0.146 A 
ATOM     21  C   UNL     1      -4.087 -11.029  15.338  0.00  0.00    +0.027 A 
ATOM     24  C   UNL     1      -1.366 -11.214  15.232  0.00  0.00    +0.149 A 
ATOM     25  C   UNL     1      -3.267 -10.636  16.384  0.00  0.00    +0.111 A 
ENDBRANCH  14  16
ENDBRANCH   5  14
BRANCH   6  15
ATOM     15  C   UNL     1      -8.444  -8.781   7.997  0.00  0.00    +0.144 C 
BRANCH  15  17
ATOM     17  C   UNL     1      -9.050  -7.451   8.337  0.00  0.00    -0.030 A 
ATOM     18  C   UNL     1      -8.335  -6.276   8.099  0.00  0.00    +0.009 A 
ATOM     19  C   UNL     1     -10.328  -7.388   8.891  0.00  0.00    +0.009 A 
ATOM     22  C   UNL     1      -8.899  -5.041   8.414  0.00  0.00    +0.046 A 
ATOM     23  C   UNL     1     -10.892  -6.152   9.206  0.00  0.00    +0.046 A 
ATOM     26  C   UNL     1     -10.177  -4.978   8.968  0.00  0.00    +0.120 A 
BRANCH  26   3
ATOM      3  O   UNL     1     -10.727  -3.772   9.274  0.00  0.00    -0.495 OA
ATOM     27  C   UNL     1     -12.149  -3.670   9.202  0.00  0.00    +0.277 C 
ENDBRANCH  26   3
ENDBRANCH  15  17
ENDBRANCH   6  15
TORSDOF 5
ENDMDL
MODEL 10
REMARK VINA RESULT:      -6.0      3.513      8.864
REMARK  Name = 75368641
REMARK  6 active torsions:
REMARK  status: ('A' for Active; 'I' for Inactive)
REMARK    1  A    between atoms: O_3  and  C_26
REMARK    2  A    between atoms: O_3  and  C_27
REMARK    3  A    between atoms: N_5  and  C_14
REMARK    4  A    between atoms: N_6  and  C_15
REMARK    5  A    between atoms: C_14  and  C_16
REMARK    6  A    between atoms: C_15  and  C_17
REMARK                            x       y       z     vdW  Elec       q    Type
REMARK                         _______ _______ _______ _____ _____    ______ ____
ROOT
ATOM      2  O   UNL     1      -4.532 -13.333  17.723  0.00  0.00    -0.252 OA
ATOM      4  N   UNL     1      -4.502 -12.409  15.563  0.00  0.00    -0.278 N 
ATOM      5  N   UNL     1      -3.535 -11.738  13.009  0.00  0.00    -0.295 NA
ATOM      6  N   UNL     1      -5.297 -11.153  17.247  0.00  0.00    -0.279 N 
ATOM      8  C   UNL     1      -4.991 -11.207  14.921  0.00  0.00    +0.109 C 
ATOM      9  C   UNL     1      -3.952 -10.669  13.938  0.00  0.00    +0.109 C 
ATOM     10  C   UNL     1      -5.313 -10.277  16.089  0.00  0.00    +0.133 C 
ATOM     11  C   UNL     1      -3.931 -13.464  14.753  0.00  0.00    +0.125 C 
ATOM     12  C   UNL     1      -2.942 -12.874  13.744  0.00  0.00    +0.104 C 
ATOM     13  C   UNL     1      -4.752 -12.417  16.942  0.00  0.00    +0.305 C 
ENDROOT
BRANCH   5  14
ATOM     14  C   UNL     1      -2.585 -11.217  12.026  0.00  0.00    +0.122 C 
BRANCH  14  16
ATOM      1  F   UNL     1      -3.710 -12.985  10.096  0.00  0.00    -0.204 F 
ATOM      7  N   UNL     1      -4.549  -9.866   8.451  0.00  0.00    -0.260 NA
ATOM     16  C   UNL     1      -3.272 -10.747  10.776  0.00  0.00    +0.005 A 
ATOM     20  C   UNL     1      -3.798 -11.668   9.877  0.00  0.00    +0.146 A 
ATOM     21  C   UNL     1      -3.383  -9.386  10.514  0.00  0.00    +0.027 A 
ATOM     24  C   UNL     1      -4.422 -11.180   8.740  0.00  0.00    +0.149 A 
ATOM     25  C   UNL     1      -4.026  -9.001   9.348  0.00  0.00    +0.111 A 
ENDBRANCH  14  16
ENDBRANCH   5  14
BRANCH   6  15
ATOM     15  C   UNL     1      -5.664 -10.687  18.566  0.00  0.00    +0.144 C 
BRANCH  15  17
ATOM     17  C   UNL     1      -7.054 -11.108  18.945  0.00  0.00    -0.030 A 
ATOM     18  C   UNL     1      -7.253 -12.273  19.686  0.00  0.00    +0.009 A 
ATOM     19  C   UNL     1      -8.147 -10.334  18.557  0.00  0.00    +0.009 A 
ATOM     22  C   UNL     1      -8.544 -12.663  20.038  0.00  0.00    +0.046 A 
ATOM     23  C   UNL     1      -9.439 -10.724  18.909  0.00  0.00    +0.046 A 
ATOM     26  C   UNL     1      -9.637 -11.890  19.650  0.00  0.00    +0.120 A 
BRANCH  26   3
ATOM      3  O   UNL     1     -10.897 -12.270  19.995  0.00  0.00    -0.495 OA
ATOM     27  C   UNL     1     -11.187 -13.666  19.961  0.00  0.00    +0.277 C 
ENDBRANCH  26   3
ENDBRANCH  15  17
ENDBRANCH   6  15
TORSDOF 5
ENDMDL
