MODEL 1
REMARK VINA RESULT:      -7.3      0.000      0.000
REMARK  Name = 38029303
REMARK  14 active torsions:
REMARK  status: ('A' for Active; 'I' for Inactive)
REMARK    1  A    between atoms: S_1  and  N_5
REMARK    2  A    between atoms: S_1  and  C_21
REMARK    3  A    between atoms: N_5  and  C_15
REMARK    4  A    between atoms: N_6  and  C_22
REMARK    5  A    between atoms: C_8  and  C_12
REMARK    6  A    between atoms: C_9  and  C_15
REMARK    7  A    between atoms: C_11  and  C_16
REMARK    8  A    between atoms: C_12  and  C_17
REMARK    9  A    between atoms: C_12  and  C_18
REMARK   10  A    between atoms: C_13  and  C_19
REMARK   11  A    between atoms: C_16  and  C_20
REMARK   12  A    between atoms: C_21  and  C_23
REMARK   13  A    between atoms: C_22  and  C_24
REMARK   14  A    between atoms: C_34  and  C_35
REMARK                            x       y       z     vdW  Elec       q    Type
REMARK                         _______ _______ _______ _____ _____    ______ ____
ROOT
ATOM      8  C   UNL     1      -5.250 -10.470  10.773  0.00  0.00    +0.000 C 
ATOM      9  C   UNL     1      -4.696  -9.537   9.667  0.00  0.00    +0.030 C 
ATOM     10  C   UNL     1      -4.673 -10.078  12.143  0.00  0.00    +0.012 C 
ATOM     11  C   UNL     1      -3.135 -10.148  12.168  0.00  0.00    +0.023 C 
ATOM     13  C   UNL     1      -2.520  -9.477  10.958  0.00  0.00    -0.073 C 
ATOM     14  C   UNL     1      -3.237  -9.199   9.854  0.00  0.00    -0.023 C 
ATOM     19  C   UNL     1      -1.071  -9.087  11.062  0.00  0.00    +0.039 C 
ENDROOT
BRANCH   8  12
ATOM     12  C   UNL     1      -6.781 -10.443  10.828  0.00  0.00    -0.013 C 
ATOM     17  C   UNL     1      -7.281 -11.151  12.082  0.00  0.00    +0.007 C 
ATOM     18  C   UNL     1      -7.289  -9.005  10.778  0.00  0.00    +0.007 C 
ENDBRANCH   8  12
BRANCH   9  15
ATOM     15  C   UNL     1      -4.906 -10.145   8.276  0.00  0.00    +0.113 C 
BRANCH  15   5
ATOM      5  N   UNL     1      -5.611  -9.173   7.427  0.00  0.00    -0.194 NA
ATOM     36  H   UNL     1      -5.699  -8.239   7.850  0.00  0.00    +0.148 HD
BRANCH   5   1
ATOM      1  S   UNL     1      -6.952  -9.688   6.502  0.00  0.00    +0.033 S 
ATOM      3  O   UNL     1      -8.077  -9.957   7.377  0.00  0.00    -0.158 OA
ATOM      4  O   UNL     1      -6.500 -10.683   5.548  0.00  0.00    -0.158 OA
BRANCH   1  21
ATOM     21  C   UNL     1      -7.309  -8.204   5.591  0.00  0.00    +0.220 C 
BRANCH  21  23
ATOM     23  C   UNL     1      -8.366  -7.453   6.339  0.00  0.00    -0.025 A 
ATOM     25  C   UNL     1      -9.680  -7.443   5.869  0.00  0.00    +0.005 A 
ATOM     26  C   UNL     1      -8.039  -6.763   7.506  0.00  0.00    +0.005 A 
ATOM     29  C   UNL     1     -10.665  -6.742   6.566  0.00  0.00    +0.000 A 
ATOM     30  C   UNL     1      -9.024  -6.062   8.203  0.00  0.00    +0.000 A 
ATOM     31  C   UNL     1     -10.337  -6.052   7.732  0.00  0.00    +0.000 A 
ENDBRANCH  21  23
ENDBRANCH   1  21
ENDBRANCH   5   1
ENDBRANCH  15   5
ENDBRANCH   9  15
BRANCH  11  16
ATOM     16  C   UNL     1      -2.650 -11.597  12.297  0.00  0.00    +0.103 C 
BRANCH  16  20
ATOM      2  O   UNL     1      -1.843 -13.043  14.060  0.00  0.00    -0.276 OA
ATOM      6  N   UNL     1      -2.504 -10.875  14.571  0.00  0.00    -0.311 N 
ATOM     20  C   UNL     1      -2.280 -11.948  13.721  0.00  0.00    +0.214 C 
ATOM     37  H   UNL     1      -2.867 -10.005  14.195  0.00  0.00    +0.149 HD
BRANCH   6  22
ATOM     22  C   UNL     1      -2.241 -10.926  15.992  0.00  0.00    +0.139 C 
BRANCH  22  24
ATOM     24  C   UNL     1      -3.506 -10.914  16.798  0.00  0.00    -0.030 A 
ATOM     27  C   UNL     1      -4.643 -10.276  16.302  0.00  0.00    +0.006 A 
ATOM     28  C   UNL     1      -3.545 -11.541  18.044  0.00  0.00    +0.006 A 
ATOM     32  C   UNL     1      -5.819 -10.265  17.051  0.00  0.00    +0.019 A 
ATOM     33  C   UNL     1      -4.722 -11.530  18.793  0.00  0.00    +0.019 A 
ATOM     34  C   UNL     1      -5.859 -10.892  18.297  0.00  0.00    +0.052 A 
BRANCH  34  35
ATOM      7  N   UNL     1      -8.043 -10.872  19.688  0.00  0.00    -0.191 NA
ATOM     35  C   UNL     1      -7.064 -10.881  19.065  0.00  0.00    +0.099 C 
ENDBRANCH  34  35
ENDBRANCH  22  24
ENDBRANCH   6  22
ENDBRANCH  16  20
ENDBRANCH  11  16
TORSDOF 11
ENDMDL
MODEL 2
REMARK VINA RESULT:      -7.1      3.975      8.803
REMARK  Name = 38029303
REMARK  14 active torsions:
REMARK  status: ('A' for Active; 'I' for Inactive)
REMARK    1  A    between atoms: S_1  and  N_5
REMARK    2  A    between atoms: S_1  and  C_21
REMARK    3  A    between atoms: N_5  and  C_15
REMARK    4  A    between atoms: N_6  and  C_22
REMARK    5  A    between atoms: C_8  and  C_12
REMARK    6  A    between atoms: C_9  and  C_15
REMARK    7  A    between atoms: C_11  and  C_16
REMARK    8  A    between atoms: C_12  and  C_17
REMARK    9  A    between atoms: C_12  and  C_18
REMARK   10  A    between atoms: C_13  and  C_19
REMARK   11  A    between atoms: C_16  and  C_20
REMARK   12  A    between atoms: C_21  and  C_23
REMARK   13  A    between atoms: C_22  and  C_24
REMARK   14  A    between atoms: C_34  and  C_35
REMARK                            x       y       z     vdW  Elec       q    Type
REMARK                         _______ _______ _______ _____ _____    ______ ____
ROOT
ATOM      8  C   UNL     1      -5.758 -10.618  15.188  0.00  0.00    +0.000 C 
ATOM      9  C   UNL     1      -6.527 -10.494  16.527  0.00  0.00    +0.030 C 
ATOM     10  C   UNL     1      -4.858 -11.864  15.201  0.00  0.00    +0.012 C 
ATOM     11  C   UNL     1      -3.835 -11.831  16.351  0.00  0.00    +0.023 C 
ATOM     13  C   UNL     1      -4.479 -11.449  17.667  0.00  0.00    -0.073 C 
ATOM     14  C   UNL     1      -5.689 -10.865  17.727  0.00  0.00    -0.023 C 
ATOM     19  C   UNL     1      -3.721 -11.797  18.919  0.00  0.00    +0.039 C 
ENDROOT
BRANCH   8  12
ATOM     12  C   UNL     1      -6.709 -10.676  13.989  0.00  0.00    -0.013 C 
ATOM     17  C   UNL     1      -6.335  -9.612  12.962  0.00  0.00    +0.007 C 
ATOM     18  C   UNL     1      -6.687 -12.067  13.360  0.00  0.00    +0.007 C 
ENDBRANCH   8  12
BRANCH   9  15
ATOM     15  C   UNL     1      -7.088  -9.080  16.713  0.00  0.00    +0.113 C 
BRANCH  15   5
ATOM      5  N   UNL     1      -8.187  -9.123  17.691  0.00  0.00    -0.194 NA
ATOM     36  H   UNL     1      -8.032  -9.789  18.460  0.00  0.00    +0.148 HD
BRANCH   5   1
ATOM      1  S   UNL     1      -9.800  -8.997  17.141  0.00  0.00    +0.033 S 
ATOM      3  O   UNL     1      -9.900  -9.518  15.792  0.00  0.00    -0.158 OA
ATOM      4  O   UNL     1     -10.294  -7.671  17.464  0.00  0.00    -0.158 OA
BRANCH   1  21
ATOM     21  C   UNL     1     -10.606 -10.144  18.233  0.00  0.00    +0.220 C 
BRANCH  21  23
ATOM     23  C   UNL     1      -9.714 -11.337  18.383  0.00  0.00    -0.025 A 
ATOM     25  C   UNL     1      -9.020 -11.544  19.575  0.00  0.00    +0.005 A 
ATOM     26  C   UNL     1      -9.577 -12.242  17.330  0.00  0.00    +0.005 A 
ATOM     29  C   UNL     1      -8.188 -12.655  19.714  0.00  0.00    +0.000 A 
ATOM     30  C   UNL     1      -8.745 -13.353  17.469  0.00  0.00    +0.000 A 
ATOM     31  C   UNL     1      -8.050 -13.559  18.662  0.00  0.00    +0.000 A 
ENDBRANCH  21  23
ENDBRANCH   1  21
ENDBRANCH   5   1
ENDBRANCH  15   5
ENDBRANCH   9  15
BRANCH  11  16
ATOM     16  C   UNL     1      -2.663 -10.898  16.023  0.00  0.00    +0.103 C 
BRANCH  16  20
ATOM      2  O   UNL     1      -1.453 -12.349  14.510  0.00  0.00    -0.276 OA
ATOM      6  N   UNL     1      -2.073 -10.223  13.807  0.00  0.00    -0.311 N 
ATOM     20  C   UNL     1      -1.993 -11.266  14.717  0.00  0.00    +0.214 C 
ATOM     37  H   UNL     1      -2.543  -9.363  14.069  0.00  0.00    +0.149 HD
BRANCH   6  22
ATOM     22  C   UNL     1      -1.515 -10.294  12.475  0.00  0.00    +0.139 C 
BRANCH  22  24
ATOM     24  C   UNL     1      -2.580 -10.285  11.419  0.00  0.00    -0.030 A 
ATOM     27  C   UNL     1      -2.717  -9.181  10.576  0.00  0.00    +0.006 A 
ATOM     28  C   UNL     1      -3.435 -11.378  11.280  0.00  0.00    +0.006 A 
ATOM     32  C   UNL     1      -3.708  -9.172   9.595  0.00  0.00    +0.019 A 
ATOM     33  C   UNL     1      -4.426 -11.369  10.298  0.00  0.00    +0.019 A 
ATOM     34  C   UNL     1      -4.563 -10.265   9.455  0.00  0.00    +0.052 A 
BRANCH  34  35
ATOM      7  N   UNL     1      -6.401 -10.249   7.632  0.00  0.00    -0.191 NA
ATOM     35  C   UNL     1      -5.577 -10.256   8.449  0.00  0.00    +0.099 C 
ENDBRANCH  34  35
ENDBRANCH  22  24
ENDBRANCH   6  22
ENDBRANCH  16  20
ENDBRANCH  11  16
TORSDOF 11
ENDMDL
MODEL 3
REMARK VINA RESULT:      -7.1      4.424      7.893
REMARK  Name = 38029303
REMARK  14 active torsions:
REMARK  status: ('A' for Active; 'I' for Inactive)
REMARK    1  A    between atoms: S_1  and  N_5
REMARK    2  A    between atoms: S_1  and  C_21
REMARK    3  A    between atoms: N_5  and  C_15
REMARK    4  A    between atoms: N_6  and  C_22
REMARK    5  A    between atoms: C_8  and  C_12
REMARK    6  A    between atoms: C_9  and  C_15
REMARK    7  A    between atoms: C_11  and  C_16
REMARK    8  A    between atoms: C_12  and  C_17
REMARK    9  A    between atoms: C_12  and  C_18
REMARK   10  A    between atoms: C_13  and  C_19
REMARK   11  A    between atoms: C_16  and  C_20
REMARK   12  A    between atoms: C_21  and  C_23
REMARK   13  A    between atoms: C_22  and  C_24
REMARK   14  A    between atoms: C_34  and  C_35
REMARK                            x       y       z     vdW  Elec       q    Type
REMARK                         _______ _______ _______ _____ _____    ______ ____
ROOT
ATOM      8  C   UNL     1      -5.720 -10.635  15.219  0.00  0.00    +0.000 C 
ATOM      9  C   UNL     1      -6.576 -10.625  16.511  0.00  0.00    +0.030 C 
ATOM     10  C   UNL     1      -4.762 -11.837  15.221  0.00  0.00    +0.012 C 
ATOM     11  C   UNL     1      -3.815 -11.825  16.435  0.00  0.00    +0.023 C 
ATOM     13  C   UNL     1      -4.558 -11.551  17.727  0.00  0.00    -0.073 C 
ATOM     14  C   UNL     1      -5.797 -11.027  17.740  0.00  0.00    -0.023 C 
ATOM     19  C   UNL     1      -3.863 -11.937  19.003  0.00  0.00    +0.039 C 
ENDROOT
BRANCH   8  12
ATOM     12  C   UNL     1      -6.590 -10.666  13.960  0.00  0.00    -0.013 C 
ATOM     17  C   UNL     1      -6.055  -9.687  12.919  0.00  0.00    +0.007 C 
ATOM     18  C   UNL     1      -6.651 -12.081  13.390  0.00  0.00    +0.007 C 
ENDBRANCH   8  12
BRANCH   9  15
ATOM     15  C   UNL     1      -7.217  -9.251  16.739  0.00  0.00    +0.113 C 
BRANCH  15   5
ATOM      5  N   UNL     1      -8.125  -9.330  17.893  0.00  0.00    -0.194 NA
ATOM     36  H   UNL     1      -7.659  -9.599  18.770  0.00  0.00    +0.148 HD
BRANCH   5   1
ATOM      1  S   UNL     1      -9.700  -9.955  17.676  0.00  0.00    +0.033 S 
ATOM      3  O   UNL     1     -10.645  -9.186  18.461  0.00  0.00    -0.158 OA
ATOM      4  O   UNL     1      -9.643 -11.400  17.791  0.00  0.00    -0.158 OA
BRANCH   1  21
ATOM     21  C   UNL     1      -9.970  -9.570  15.962  0.00  0.00    +0.220 C 
BRANCH  21  23
ATOM     23  C   UNL     1     -10.886  -8.387  15.899  0.00  0.00    -0.025 A 
ATOM     25  C   UNL     1     -12.257  -8.575  15.719  0.00  0.00    +0.005 A 
ATOM     26  C   UNL     1     -10.370  -7.098  16.020  0.00  0.00    +0.005 A 
ATOM     29  C   UNL     1     -13.110  -7.473  15.660  0.00  0.00    +0.000 A 
ATOM     30  C   UNL     1     -11.224  -5.995  15.961  0.00  0.00    +0.000 A 
ATOM     31  C   UNL     1     -12.594  -6.184  15.781  0.00  0.00    +0.000 A 
ENDBRANCH  21  23
ENDBRANCH   1  21
ENDBRANCH   5   1
ENDBRANCH  15   5
ENDBRANCH   9  15
BRANCH  11  16
ATOM     16  C   UNL     1      -2.673 -10.822  16.237  0.00  0.00    +0.103 C 
BRANCH  16  20
ATOM      2  O   UNL     1      -1.157 -12.038  14.795  0.00  0.00    -0.276 OA
ATOM      6  N   UNL     1      -2.167 -10.097  14.016  0.00  0.00    -0.311 N 
ATOM     20  C   UNL     1      -1.907 -11.080  14.958  0.00  0.00    +0.214 C 
ATOM     37  H   UNL     1      -2.807  -9.341  14.242  0.00  0.00    +0.149 HD
BRANCH   6  22
ATOM     22  C   UNL     1      -1.570 -10.087  12.699  0.00  0.00    +0.139 C 
BRANCH  22  24
ATOM     24  C   UNL     1      -2.566 -10.422  11.628  0.00  0.00    -0.030 A 
ATOM     27  C   UNL     1      -2.917  -9.464  10.678  0.00  0.00    +0.006 A 
ATOM     28  C   UNL     1      -3.141 -11.692  11.584  0.00  0.00    +0.006 A 
ATOM     32  C   UNL     1      -3.843  -9.775   9.683  0.00  0.00    +0.019 A 
ATOM     33  C   UNL     1      -4.067 -12.004  10.588  0.00  0.00    +0.019 A 
ATOM     34  C   UNL     1      -4.419 -11.045   9.637  0.00  0.00    +0.052 A 
BRANCH  34  35
ATOM      7  N   UNL     1      -6.137 -11.625   7.789  0.00  0.00    -0.191 NA
ATOM     35  C   UNL     1      -5.367 -11.365   8.617  0.00  0.00    +0.099 C 
ENDBRANCH  34  35
ENDBRANCH  22  24
ENDBRANCH   6  22
ENDBRANCH  16  20
ENDBRANCH  11  16
TORSDOF 11
ENDMDL
MODEL 4
REMARK VINA RESULT:      -7.1     27.453     30.664
REMARK  Name = 38029303
REMARK  14 active torsions:
REMARK  status: ('A' for Active; 'I' for Inactive)
REMARK    1  A    between atoms: S_1  and  N_5
REMARK    2  A    between atoms: S_1  and  C_21
REMARK    3  A    between atoms: N_5  and  C_15
REMARK    4  A    between atoms: N_6  and  C_22
REMARK    5  A    between atoms: C_8  and  C_12
REMARK    6  A    between atoms: C_9  and  C_15
REMARK    7  A    between atoms: C_11  and  C_16
REMARK    8  A    between atoms: C_12  and  C_17
REMARK    9  A    between atoms: C_12  and  C_18
REMARK   10  A    between atoms: C_13  and  C_19
REMARK   11  A    between atoms: C_16  and  C_20
REMARK   12  A    between atoms: C_21  and  C_23
REMARK   13  A    between atoms: C_22  and  C_24
REMARK   14  A    between atoms: C_34  and  C_35
REMARK                            x       y       z     vdW  Elec       q    Type
REMARK                         _______ _______ _______ _____ _____    ______ ____
ROOT
ATOM      8  C   UNL     1      16.088   9.375  21.726  0.00  0.00    +0.000 C 
ATOM      9  C   UNL     1      15.205   8.271  21.092  0.00  0.00    +0.030 C 
ATOM     10  C   UNL     1      17.380   9.557  20.915  0.00  0.00    +0.012 C 
ATOM     11  C   UNL     1      18.204   8.259  20.833  0.00  0.00    +0.023 C 
ATOM     13  C   UNL     1      17.343   7.067  20.472  0.00  0.00    -0.073 C 
ATOM     14  C   UNL     1      16.002   7.095  20.581  0.00  0.00    -0.023 C 
ATOM     19  C   UNL     1      18.054   5.854  19.937  0.00  0.00    +0.039 C 
ENDROOT
BRANCH   8  12
ATOM     12  C   UNL     1      15.345  10.710  21.828  0.00  0.00    -0.013 C 
ATOM     17  C   UNL     1      15.369  11.225  23.263  0.00  0.00    +0.007 C 
ATOM     18  C   UNL     1      15.958  11.733  20.875  0.00  0.00    +0.007 C 
ENDBRANCH   8  12
BRANCH   9  15
ATOM     15  C   UNL     1      14.143   7.776  22.082  0.00  0.00    +0.113 C 
BRANCH  15   5
ATOM      5  N   UNL     1      12.888   8.505  21.844  0.00  0.00    -0.194 NA
ATOM     36  H   UNL     1      12.772   9.339  22.436  0.00  0.00    +0.148 HD
BRANCH   5   1
ATOM      1  S   UNL     1      11.458   7.625  21.528  0.00  0.00    +0.033 S 
ATOM      3  O   UNL     1      10.483   7.884  22.569  0.00  0.00    -0.158 OA
ATOM      4  O   UNL     1      11.821   6.266  21.173  0.00  0.00    -0.158 OA
BRANCH   1  21
ATOM     21  C   UNL     1      10.901   8.429  20.044  0.00  0.00    +0.220 C 
BRANCH  21  23
ATOM     23  C   UNL     1      12.096   8.658  19.173  0.00  0.00    -0.025 A 
ATOM     25  C   UNL     1      12.665   9.929  19.088  0.00  0.00    +0.005 A 
ATOM     26  C   UNL     1      12.642   7.601  18.445  0.00  0.00    +0.005 A 
ATOM     29  C   UNL     1      13.779  10.142  18.275  0.00  0.00    +0.000 A 
ATOM     30  C   UNL     1      13.756   7.813  17.633  0.00  0.00    +0.000 A 
ATOM     31  C   UNL     1      14.324   9.085  17.548  0.00  0.00    +0.000 A 
ENDBRANCH  21  23
ENDBRANCH   1  21
ENDBRANCH   5   1
ENDBRANCH  15   5
ENDBRANCH   9  15
BRANCH  11  16
ATOM     16  C   UNL     1      18.971   8.007  22.136  0.00  0.00    +0.103 C 
BRANCH  16  20
ATOM      2  O   UNL     1      21.246   8.669  22.630  0.00  0.00    -0.276 OA
ATOM      6  N   UNL     1      20.831   7.236  20.848  0.00  0.00    -0.311 N 
ATOM     20  C   UNL     1      20.469   8.028  21.927  0.00  0.00    +0.214 C 
ATOM     37  H   UNL     1      20.115   6.740  20.327  0.00  0.00    +0.149 HD
BRANCH   6  22
ATOM     22  C   UNL     1      22.201   7.070  20.415  0.00  0.00    +0.139 C 
BRANCH  22  24
ATOM     24  C   UNL     1      22.692   5.669  20.631  0.00  0.00    -0.030 A 
ATOM     27  C   UNL     1      24.043   5.369  20.456  0.00  0.00    +0.006 A 
ATOM     28  C   UNL     1      21.797   4.666  21.004  0.00  0.00    +0.006 A 
ATOM     32  C   UNL     1      24.500   4.067  20.656  0.00  0.00    +0.019 A 
ATOM     33  C   UNL     1      22.254   3.363  21.204  0.00  0.00    +0.019 A 
ATOM     34  C   UNL     1      23.606   3.063  21.031  0.00  0.00    +0.052 A 
BRANCH  34  35
ATOM      7  N   UNL     1      24.453   0.645  21.402  0.00  0.00    -0.191 NA
ATOM     35  C   UNL     1      24.073   1.729  21.236  0.00  0.00    +0.099 C 
ENDBRANCH  34  35
ENDBRANCH  22  24
ENDBRANCH   6  22
ENDBRANCH  16  20
ENDBRANCH  11  16
TORSDOF 11
ENDMDL
MODEL 5
REMARK VINA RESULT:      -6.9      2.263      3.536
REMARK  Name = 38029303
REMARK  14 active torsions:
REMARK  status: ('A' for Active; 'I' for Inactive)
REMARK    1  A    between atoms: S_1  and  N_5
REMARK    2  A    between atoms: S_1  and  C_21
REMARK    3  A    between atoms: N_5  and  C_15
REMARK    4  A    between atoms: N_6  and  C_22
REMARK    5  A    between atoms: C_8  and  C_12
REMARK    6  A    between atoms: C_9  and  C_15
REMARK    7  A    between atoms: C_11  and  C_16
REMARK    8  A    between atoms: C_12  and  C_17
REMARK    9  A    between atoms: C_12  and  C_18
REMARK   10  A    between atoms: C_13  and  C_19
REMARK   11  A    between atoms: C_16  and  C_20
REMARK   12  A    between atoms: C_21  and  C_23
REMARK   13  A    between atoms: C_22  and  C_24
REMARK   14  A    between atoms: C_34  and  C_35
REMARK                            x       y       z     vdW  Elec       q    Type
REMARK                         _______ _______ _______ _____ _____    ______ ____
ROOT
ATOM      8  C   UNL     1      -5.140 -10.596  10.923  0.00  0.00    +0.000 C 
ATOM      9  C   UNL     1      -4.588  -9.682   9.799  0.00  0.00    +0.030 C 
ATOM     10  C   UNL     1      -4.575 -10.167  12.286  0.00  0.00    +0.012 C 
ATOM     11  C   UNL     1      -3.037 -10.222  12.323  0.00  0.00    +0.023 C 
ATOM     13  C   UNL     1      -2.421  -9.572  11.101  0.00  0.00    -0.073 C 
ATOM     14  C   UNL     1      -3.134  -9.326   9.987  0.00  0.00    -0.023 C 
ATOM     19  C   UNL     1      -0.976  -9.166  11.205  0.00  0.00    +0.039 C 
ENDROOT
BRANCH   8  12
ATOM     12  C   UNL     1      -6.671 -10.582  10.968  0.00  0.00    -0.013 C 
ATOM     17  C   UNL     1      -7.176 -11.410  12.144  0.00  0.00    +0.007 C 
ATOM     18  C   UNL     1      -7.188  -9.149  11.053  0.00  0.00    +0.007 C 
ENDBRANCH   8  12
BRANCH   9  15
ATOM     15  C   UNL     1      -4.783 -10.324   8.421  0.00  0.00    +0.113 C 
BRANCH  15   5
ATOM      5  N   UNL     1      -5.541  -9.399   7.563  0.00  0.00    -0.194 NA
ATOM     36  H   UNL     1      -5.795  -8.516   8.027  0.00  0.00    +0.148 HD
BRANCH   5   1
ATOM      1  S   UNL     1      -6.709 -10.026   6.486  0.00  0.00    +0.033 S 
ATOM      3  O   UNL     1      -6.457  -9.530   5.147  0.00  0.00    -0.158 OA
ATOM      4  O   UNL     1      -8.019  -9.888   7.094  0.00  0.00    -0.158 OA
BRANCH   1  21
ATOM     21  C   UNL     1      -6.289 -11.753   6.518  0.00  0.00    +0.220 C 
BRANCH  21  23
ATOM     23  C   UNL     1      -5.527 -12.061   5.267  0.00  0.00    -0.025 A 
ATOM     25  C   UNL     1      -6.210 -12.409   4.102  0.00  0.00    +0.005 A 
ATOM     26  C   UNL     1      -4.133 -12.000   5.266  0.00  0.00    +0.005 A 
ATOM     29  C   UNL     1      -5.499 -12.696   2.936  0.00  0.00    +0.000 A 
ATOM     30  C   UNL     1      -3.423 -12.287   4.100  0.00  0.00    +0.000 A 
ATOM     31  C   UNL     1      -4.107 -12.635   2.935  0.00  0.00    +0.000 A 
ENDBRANCH  21  23
ENDBRANCH   1  21
ENDBRANCH   5   1
ENDBRANCH  15   5
ENDBRANCH   9  15
BRANCH  11  16
ATOM     16  C   UNL     1      -2.538 -11.662  12.487  0.00  0.00    +0.103 C 
BRANCH  16  20
ATOM      2  O   UNL     1      -2.008 -13.140  14.328  0.00  0.00    -0.276 OA
ATOM      6  N   UNL     1      -2.320 -10.874  14.733  0.00  0.00    -0.311 N 
ATOM     20  C   UNL     1      -2.256 -12.005  13.933  0.00  0.00    +0.214 C 
ATOM     37  H   UNL     1      -2.530  -9.973  14.313  0.00  0.00    +0.149 HD
BRANCH   6  22
ATOM     22  C   UNL     1      -2.094 -10.903  16.161  0.00  0.00    +0.139 C 
BRANCH  22  24
ATOM     24  C   UNL     1      -3.381 -10.916  16.932  0.00  0.00    -0.030 A 
ATOM     27  C   UNL     1      -3.453 -11.579  18.157  0.00  0.00    +0.006 A 
ATOM     28  C   UNL     1      -4.506 -10.266  16.423  0.00  0.00    +0.006 A 
ATOM     32  C   UNL     1      -4.649 -11.591  18.874  0.00  0.00    +0.019 A 
ATOM     33  C   UNL     1      -5.702 -10.279  17.140  0.00  0.00    +0.019 A 
ATOM     34  C   UNL     1      -5.774 -10.941  18.366  0.00  0.00    +0.052 A 
BRANCH  34  35
ATOM      7  N   UNL     1      -7.995 -10.964  19.697  0.00  0.00    -0.191 NA
ATOM     35  C   UNL     1      -7.000 -10.954  19.101  0.00  0.00    +0.099 C 
ENDBRANCH  34  35
ENDBRANCH  22  24
ENDBRANCH   6  22
ENDBRANCH  16  20
ENDBRANCH  11  16
TORSDOF 11
ENDMDL
MODEL 6
REMARK VINA RESULT:      -6.8     27.548     30.688
REMARK  Name = 38029303
REMARK  14 active torsions:
REMARK  status: ('A' for Active; 'I' for Inactive)
REMARK    1  A    between atoms: S_1  and  N_5
REMARK    2  A    between atoms: S_1  and  C_21
REMARK    3  A    between atoms: N_5  and  C_15
REMARK    4  A    between atoms: N_6  and  C_22
REMARK    5  A    between atoms: C_8  and  C_12
REMARK    6  A    between atoms: C_9  and  C_15
REMARK    7  A    between atoms: C_11  and  C_16
REMARK    8  A    between atoms: C_12  and  C_17
REMARK    9  A    between atoms: C_12  and  C_18
REMARK   10  A    between atoms: C_13  and  C_19
REMARK   11  A    between atoms: C_16  and  C_20
REMARK   12  A    between atoms: C_21  and  C_23
REMARK   13  A    between atoms: C_22  and  C_24
REMARK   14  A    between atoms: C_34  and  C_35
REMARK                            x       y       z     vdW  Elec       q    Type
REMARK                         _______ _______ _______ _____ _____    ______ ____
ROOT
ATOM      8  C   UNL     1      12.560  11.740  23.731  0.00  0.00    +0.000 C 
ATOM      9  C   UNL     1      11.599  11.312  22.593  0.00  0.00    +0.030 C 
ATOM     10  C   UNL     1      13.603  12.738  23.203  0.00  0.00    +0.012 C 
ATOM     11  C   UNL     1      14.440  12.151  22.051  0.00  0.00    +0.023 C 
ATOM     13  C   UNL     1      13.571  11.469  21.014  0.00  0.00    -0.073 C 
ATOM     14  C   UNL     1      12.299  11.114  21.271  0.00  0.00    -0.023 C 
ATOM     19  C   UNL     1      14.183  11.246  19.659  0.00  0.00    +0.039 C 
ENDROOT
BRANCH   8  12
ATOM     12  C   UNL     1      11.805  12.355  24.913  0.00  0.00    -0.013 C 
ATOM     17  C   UNL     1      12.783  12.976  25.904  0.00  0.00    +0.007 C 
ATOM     18  C   UNL     1      10.801  13.393  24.420  0.00  0.00    +0.007 C 
ENDBRANCH   8  12
BRANCH   9  15
ATOM     15  C   UNL     1      10.838  10.034  22.965  0.00  0.00    +0.113 C 
BRANCH  15   5
ATOM      5  N   UNL     1      11.594   8.867  22.484  0.00  0.00    -0.194 NA
ATOM     36  H   UNL     1      12.561   9.084  22.205  0.00  0.00    +0.148 HD
BRANCH   5   1
ATOM      1  S   UNL     1      10.801   7.692  21.530  0.00  0.00    +0.033 S 
ATOM      3  O   UNL     1      10.638   8.188  20.178  0.00  0.00    -0.158 OA
ATOM      4  O   UNL     1       9.666   7.182  22.276  0.00  0.00    -0.158 OA
BRANCH   1  21
ATOM     21  C   UNL     1      12.034   6.412  21.499  0.00  0.00    +0.220 C 
BRANCH  21  23
ATOM     23  C   UNL     1      13.260   6.974  20.849  0.00  0.00    -0.025 A 
ATOM     25  C   UNL     1      14.305   7.461  21.635  0.00  0.00    +0.005 A 
ATOM     26  C   UNL     1      13.358   7.012  19.459  0.00  0.00    +0.005 A 
ATOM     29  C   UNL     1      15.447   7.985  21.029  0.00  0.00    +0.000 A 
ATOM     30  C   UNL     1      14.500   7.536  18.853  0.00  0.00    +0.000 A 
ATOM     31  C   UNL     1      15.545   8.023  19.640  0.00  0.00    +0.000 A 
ENDBRANCH  21  23
ENDBRANCH   1  21
ENDBRANCH   5   1
ENDBRANCH  15   5
ENDBRANCH   9  15
BRANCH  11  16
ATOM     16  C   UNL     1      15.515  11.194  22.580  0.00  0.00    +0.103 C 
BRANCH  16  20
ATOM      2  O   UNL     1      17.105  12.407  21.218  0.00  0.00    -0.276 OA
ATOM      6  N   UNL     1      17.764  10.446  22.275  0.00  0.00    -0.311 N 
ATOM     20  C   UNL     1      16.862  11.443  21.939  0.00  0.00    +0.214 C 
ATOM     37  H   UNL     1      17.471   9.687  22.883  0.00  0.00    +0.149 HD
BRANCH   6  22
ATOM     22  C   UNL     1      19.131  10.426  21.802  0.00  0.00    +0.139 C 
BRANCH  22  24
ATOM     24  C   UNL     1      19.625   9.028  21.573  0.00  0.00    -0.030 A 
ATOM     27  C   UNL     1      20.924   8.814  21.113  0.00  0.00    +0.006 A 
ATOM     28  C   UNL     1      18.784   7.941  21.817  0.00  0.00    +0.006 A 
ATOM     32  C   UNL     1      21.383   7.514  20.899  0.00  0.00    +0.019 A 
ATOM     33  C   UNL     1      19.243   6.642  21.603  0.00  0.00    +0.019 A 
ATOM     34  C   UNL     1      20.543   6.428  21.144  0.00  0.00    +0.052 A 
BRANCH  34  35
ATOM      7  N   UNL     1      21.395   4.015  20.747  0.00  0.00    -0.191 NA
ATOM     35  C   UNL     1      21.013   5.097  20.925  0.00  0.00    +0.099 C 
ENDBRANCH  34  35
ENDBRANCH  22  24
ENDBRANCH   6  22
ENDBRANCH  16  20
ENDBRANCH  11  16
TORSDOF 11
ENDMDL
MODEL 7
REMARK VINA RESULT:      -6.6     28.475     32.470
REMARK  Name = 38029303
REMARK  14 active torsions:
REMARK  status: ('A' for Active; 'I' for Inactive)
REMARK    1  A    between atoms: S_1  and  N_5
REMARK    2  A    between atoms: S_1  and  C_21
REMARK    3  A    between atoms: N_5  and  C_15
REMARK    4  A    between atoms: N_6  and  C_22
REMARK    5  A    between atoms: C_8  and  C_12
REMARK    6  A    between atoms: C_9  and  C_15
REMARK    7  A    between atoms: C_11  and  C_16
REMARK    8  A    between atoms: C_12  and  C_17
REMARK    9  A    between atoms: C_12  and  C_18
REMARK   10  A    between atoms: C_13  and  C_19
REMARK   11  A    between atoms: C_16  and  C_20
REMARK   12  A    between atoms: C_21  and  C_23
REMARK   13  A    between atoms: C_22  and  C_24
REMARK   14  A    between atoms: C_34  and  C_35
REMARK                            x       y       z     vdW  Elec       q    Type
REMARK                         _______ _______ _______ _____ _____    ______ ____
ROOT
ATOM      8  C   UNL     1      21.194   6.640  22.523  0.00  0.00    +0.000 C 
ATOM      9  C   UNL     1      21.378   5.460  21.536  0.00  0.00    +0.030 C 
ATOM     10  C   UNL     1      19.716   6.778  22.921  0.00  0.00    +0.012 C 
ATOM     11  C   UNL     1      18.804   7.012  21.703  0.00  0.00    +0.023 C 
ATOM     13  C   UNL     1      19.112   6.050  20.575  0.00  0.00    -0.073 C 
ATOM     14  C   UNL     1      20.263   5.354  20.525  0.00  0.00    -0.023 C 
ATOM     19  C   UNL     1      18.047   5.868  19.529  0.00  0.00    +0.039 C 
ENDROOT
BRANCH   8  12
ATOM     12  C   UNL     1      22.057   6.474  23.777  0.00  0.00    -0.013 C 
ATOM     17  C   UNL     1      23.225   7.455  23.753  0.00  0.00    +0.007 C 
ATOM     18  C   UNL     1      21.212   6.669  25.033  0.00  0.00    +0.007 C 
ENDBRANCH   8  12
BRANCH   9  15
ATOM     15  C   UNL     1      22.723   5.556  20.806  0.00  0.00    +0.113 C 
BRANCH  15   5
ATOM      5  N   UNL     1      22.920   4.340  20.000  0.00  0.00    -0.194 NA
ATOM     36  H   UNL     1      22.054   3.976  19.579  0.00  0.00    +0.148 HD
BRANCH   5   1
ATOM      1  S   UNL     1      24.032   3.157  20.531  0.00  0.00    +0.033 S 
ATOM      3  O   UNL     1      25.257   3.256  19.761  0.00  0.00    -0.158 OA
ATOM      4  O   UNL     1      23.335   1.892  20.658  0.00  0.00    -0.158 OA
BRANCH   1  21
ATOM     21  C   UNL     1      24.371   3.743  22.175  0.00  0.00    +0.220 C 
BRANCH  21  23
ATOM     23  C   UNL     1      23.983   2.661  23.134  0.00  0.00    -0.025 A 
ATOM     25  C   UNL     1      24.844   1.588  23.362  0.00  0.00    +0.005 A 
ATOM     26  C   UNL     1      22.759   2.726  23.801  0.00  0.00    +0.005 A 
ATOM     29  C   UNL     1      24.482   0.580  24.256  0.00  0.00    +0.000 A 
ATOM     30  C   UNL     1      22.397   1.718  24.695  0.00  0.00    +0.000 A 
ATOM     31  C   UNL     1      23.259   0.645  24.922  0.00  0.00    +0.000 A 
ENDBRANCH  21  23
ENDBRANCH   1  21
ENDBRANCH   5   1
ENDBRANCH  15   5
ENDBRANCH   9  15
BRANCH  11  16
ATOM     16  C   UNL     1      18.885   8.465  21.222  0.00  0.00    +0.103 C 
BRANCH  16  20
ATOM      2  O   UNL     1      17.496  10.440  21.373  0.00  0.00    -0.276 OA
ATOM      6  N   UNL     1      16.579   8.357  21.841  0.00  0.00    -0.311 N 
ATOM     20  C   UNL     1      17.600   9.222  21.477  0.00  0.00    +0.214 C 
ATOM     37  H   UNL     1      16.762   7.360  21.897  0.00  0.00    +0.149 HD
BRANCH   6  22
ATOM     22  C   UNL     1      15.239   8.804  22.146  0.00  0.00    +0.139 C 
BRANCH  22  24
ATOM     24  C   UNL     1      14.314   8.646  20.976  0.00  0.00    -0.030 A 
ATOM     27  C   UNL     1      13.522   9.718  20.563  0.00  0.00    +0.006 A 
ATOM     28  C   UNL     1      14.244   7.427  20.301  0.00  0.00    +0.006 A 
ATOM     32  C   UNL     1      12.662   9.572  19.475  0.00  0.00    +0.019 A 
ATOM     33  C   UNL     1      13.383   7.281  19.213  0.00  0.00    +0.019 A 
ATOM     34  C   UNL     1      12.592   8.353  18.799  0.00  0.00    +0.052 A 
BRANCH  34  35
ATOM      7  N   UNL     1      10.996   8.081  16.779  0.00  0.00    -0.191 NA
ATOM     35  C   UNL     1      11.711   8.203  17.684  0.00  0.00    +0.099 C 
ENDBRANCH  34  35
ENDBRANCH  22  24
ENDBRANCH   6  22
ENDBRANCH  16  20
ENDBRANCH  11  16
TORSDOF 11
ENDMDL
MODEL 8
REMARK VINA RESULT:      -6.6     22.685     26.443
REMARK  Name = 38029303
REMARK  14 active torsions:
REMARK  status: ('A' for Active; 'I' for Inactive)
REMARK    1  A    between atoms: S_1  and  N_5
REMARK    2  A    between atoms: S_1  and  C_21
REMARK    3  A    between atoms: N_5  and  C_15
REMARK    4  A    between atoms: N_6  and  C_22
REMARK    5  A    between atoms: C_8  and  C_12
REMARK    6  A    between atoms: C_9  and  C_15
REMARK    7  A    between atoms: C_11  and  C_16
REMARK    8  A    between atoms: C_12  and  C_17
REMARK    9  A    between atoms: C_12  and  C_18
REMARK   10  A    between atoms: C_13  and  C_19
REMARK   11  A    between atoms: C_16  and  C_20
REMARK   12  A    between atoms: C_21  and  C_23
REMARK   13  A    between atoms: C_22  and  C_24
REMARK   14  A    between atoms: C_34  and  C_35
REMARK                            x       y       z     vdW  Elec       q    Type
REMARK                         _______ _______ _______ _____ _____    ______ ____
ROOT
ATOM      8  C   UNL     1       9.070   8.414   5.078  0.00  0.00    +0.000 C 
ATOM      9  C   UNL     1       8.811   9.114   6.436  0.00  0.00    +0.030 C 
ATOM     10  C   UNL     1       8.474   6.997   5.083  0.00  0.00    +0.012 C 
ATOM     11  C   UNL     1       9.063   6.122   6.205  0.00  0.00    +0.023 C 
ATOM     13  C   UNL     1       9.089   6.850   7.533  0.00  0.00    -0.073 C 
ATOM     14  C   UNL     1       8.960   8.186   7.618  0.00  0.00    -0.023 C 
ATOM     19  C   UNL     1       9.217   6.002   8.768  0.00  0.00    +0.039 C 
ENDROOT
BRANCH   8  12
ATOM     12  C   UNL     1       8.496   9.215   3.906  0.00  0.00    -0.013 C 
ATOM     17  C   UNL     1       8.611   8.418   2.610  0.00  0.00    +0.007 C 
ATOM     18  C   UNL     1       7.043   9.594   4.181  0.00  0.00    +0.007 C 
ENDBRANCH   8  12
BRANCH   9  15
ATOM     15  C   UNL     1       9.732  10.326   6.618  0.00  0.00    +0.113 C 
BRANCH  15   5
ATOM      5  N   UNL     1      10.954   9.900   7.317  0.00  0.00    -0.194 NA
ATOM     36  H   UNL     1      11.008  10.223   8.292  0.00  0.00    +0.148 HD
BRANCH   5   1
ATOM      1  S   UNL     1      12.436   9.874   6.468  0.00  0.00    +0.033 S 
ATOM      3  O   UNL     1      13.425  10.656   7.185  0.00  0.00    -0.158 OA
ATOM      4  O   UNL     1      12.169  10.124   5.064  0.00  0.00    -0.158 OA
BRANCH   1  21
ATOM     21  C   UNL     1      12.874   8.159   6.628  0.00  0.00    +0.220 C 
BRANCH  21  23
ATOM     23  C   UNL     1      13.702   7.786   5.438  0.00  0.00    -0.025 A 
ATOM     25  C   UNL     1      13.083   7.384   4.255  0.00  0.00    +0.005 A 
ATOM     26  C   UNL     1      15.094   7.840   5.512  0.00  0.00    +0.005 A 
ATOM     29  C   UNL     1      13.856   7.036   3.146  0.00  0.00    +0.000 A 
ATOM     30  C   UNL     1      15.867   7.493   4.404  0.00  0.00    +0.000 A 
ATOM     31  C   UNL     1      15.246   7.090   3.221  0.00  0.00    +0.000 A 
ENDBRANCH  21  23
ENDBRANCH   1  21
ENDBRANCH   5   1
ENDBRANCH  15   5
ENDBRANCH   9  15
BRANCH  11  16
ATOM     16  C   UNL     1      10.460   5.612   5.833  0.00  0.00    +0.103 C 
BRANCH  16  20
ATOM      2  O   UNL     1       9.873   3.341   5.239  0.00  0.00    -0.276 OA
ATOM      6  N   UNL     1      11.017   4.664   3.710  0.00  0.00    -0.311 N 
ATOM     20  C   UNL     1      10.400   4.404   4.924  0.00  0.00    +0.214 C 
ATOM     37  H   UNL     1      11.425   5.579   3.540  0.00  0.00    +0.149 HD
BRANCH   6  22
ATOM     22  C   UNL     1      11.111   3.688   2.648  0.00  0.00    +0.139 C 
BRANCH  22  24
ATOM     24  C   UNL     1      12.208   4.018   1.678  0.00  0.00    -0.030 A 
ATOM     27  C   UNL     1      13.425   3.340   1.745  0.00  0.00    +0.006 A 
ATOM     28  C   UNL     1      12.011   5.004   0.711  0.00  0.00    +0.006 A 
ATOM     32  C   UNL     1      14.445   3.647   0.845  0.00  0.00    +0.019 A 
ATOM     33  C   UNL     1      13.031   5.311  -0.190  0.00  0.00    +0.019 A 
ATOM     34  C   UNL     1      14.248   4.632  -0.124  0.00  0.00    +0.052 A 
BRANCH  34  35
ATOM      7  N   UNL     1      16.140   5.201  -1.796  0.00  0.00    -0.191 NA
ATOM     35  C   UNL     1      15.293   4.946  -1.047  0.00  0.00    +0.099 C 
ENDBRANCH  34  35
ENDBRANCH  22  24
ENDBRANCH   6  22
ENDBRANCH  16  20
ENDBRANCH  11  16
TORSDOF 11
ENDMDL
MODEL 9
REMARK VINA RESULT:      -6.5      3.663     10.008
REMARK  Name = 38029303
REMARK  14 active torsions:
REMARK  status: ('A' for Active; 'I' for Inactive)
REMARK    1  A    between atoms: S_1  and  N_5
REMARK    2  A    between atoms: S_1  and  C_21
REMARK    3  A    between atoms: N_5  and  C_15
REMARK    4  A    between atoms: N_6  and  C_22
REMARK    5  A    between atoms: C_8  and  C_12
REMARK    6  A    between atoms: C_9  and  C_15
REMARK    7  A    between atoms: C_11  and  C_16
REMARK    8  A    between atoms: C_12  and  C_17
REMARK    9  A    between atoms: C_12  and  C_18
REMARK   10  A    between atoms: C_13  and  C_19
REMARK   11  A    between atoms: C_16  and  C_20
REMARK   12  A    between atoms: C_21  and  C_23
REMARK   13  A    between atoms: C_22  and  C_24
REMARK   14  A    between atoms: C_34  and  C_35
REMARK                            x       y       z     vdW  Elec       q    Type
REMARK                         _______ _______ _______ _____ _____    ______ ____
ROOT
ATOM      8  C   UNL     1      -3.091 -13.050  12.513  0.00  0.00    +0.000 C 
ATOM      9  C   UNL     1      -1.985 -11.997  12.774  0.00  0.00    +0.030 C 
ATOM     10  C   UNL     1      -3.460 -13.080  11.022  0.00  0.00    +0.012 C 
ATOM     11  C   UNL     1      -3.957 -11.713  10.517  0.00  0.00    +0.023 C 
ATOM     13  C   UNL     1      -3.054 -10.583  10.967  0.00  0.00    -0.073 C 
ATOM     14  C   UNL     1      -2.168 -10.733  11.968  0.00  0.00    -0.023 C 
ATOM     19  C   UNL     1      -3.157  -9.290  10.207  0.00  0.00    +0.039 C 
ENDROOT
BRANCH   8  12
ATOM     12  C   UNL     1      -2.666 -14.448  12.972  0.00  0.00    -0.013 C 
ATOM     17  C   UNL     1      -3.819 -15.147  13.684  0.00  0.00    +0.007 C 
ATOM     18  C   UNL     1      -2.184 -15.274  11.782  0.00  0.00    +0.007 C 
ENDBRANCH   8  12
BRANCH   9  15
ATOM     15  C   UNL     1      -1.897 -11.645  14.263  0.00  0.00    +0.113 C 
BRANCH  15   5
ATOM      5  N   UNL     1      -2.821 -10.538  14.551  0.00  0.00    -0.194 NA
ATOM     36  H   UNL     1      -2.359  -9.696  14.921  0.00  0.00    +0.148 HD
BRANCH   5   1
ATOM      1  S   UNL     1      -4.358 -10.884  15.214  0.00  0.00    +0.033 S 
ATOM      3  O   UNL     1      -4.407 -12.269  15.641  0.00  0.00    -0.158 OA
ATOM      4  O   UNL     1      -5.374 -10.342  14.331  0.00  0.00    -0.158 OA
BRANCH   1  21
ATOM     21  C   UNL     1      -4.322  -9.864  16.669  0.00  0.00    +0.220 C 
BRANCH  21  23
ATOM     23  C   UNL     1      -5.361 -10.380  17.615  0.00  0.00    -0.025 A 
ATOM     25  C   UNL     1      -4.979 -11.110  18.741  0.00  0.00    +0.005 A 
ATOM     26  C   UNL     1      -6.711 -10.132  17.371  0.00  0.00    +0.005 A 
ATOM     29  C   UNL     1      -5.948 -11.591  19.622  0.00  0.00    +0.000 A 
ATOM     30  C   UNL     1      -7.680 -10.614  18.252  0.00  0.00    +0.000 A 
ATOM     31  C   UNL     1      -7.297 -11.344  19.378  0.00  0.00    +0.000 A 
ENDBRANCH  21  23
ENDBRANCH   1  21
ENDBRANCH   5   1
ENDBRANCH  15   5
ENDBRANCH   9  15
BRANCH  11  16
ATOM     16  C   UNL     1      -5.407 -11.459  10.946  0.00  0.00    +0.103 C 
BRANCH  16  20
ATOM      2  O   UNL     1      -7.589 -11.795   9.954  0.00  0.00    -0.276 OA
ATOM      6  N   UNL     1      -5.720 -11.636   8.583  0.00  0.00    -0.311 N 
ATOM     20  C   UNL     1      -6.380 -11.649   9.802  0.00  0.00    +0.214 C 
ATOM     37  H   UNL     1      -4.714 -11.505   8.557  0.00  0.00    +0.149 HD
BRANCH   6  22
ATOM     22  C   UNL     1      -6.400 -11.798   7.317  0.00  0.00    +0.139 C 
BRANCH  22  24
ATOM     24  C   UNL     1      -5.438 -12.025   6.188  0.00  0.00    -0.030 A 
ATOM     27  C   UNL     1      -4.113 -12.368   6.460  0.00  0.00    +0.006 A 
ATOM     28  C   UNL     1      -5.867 -11.894   4.868  0.00  0.00    +0.006 A 
ATOM     32  C   UNL     1      -3.218 -12.579   5.411  0.00  0.00    +0.019 A 
ATOM     33  C   UNL     1      -4.973 -12.106   3.819  0.00  0.00    +0.019 A 
ATOM     34  C   UNL     1      -3.647 -12.449   4.090  0.00  0.00    +0.052 A 
BRANCH  34  35
ATOM      7  N   UNL     1      -1.987 -12.842   2.143  0.00  0.00    -0.191 NA
ATOM     35  C   UNL     1      -2.731 -12.665   3.016  0.00  0.00    +0.099 C 
ENDBRANCH  34  35
ENDBRANCH  22  24
ENDBRANCH   6  22
ENDBRANCH  16  20
ENDBRANCH  11  16
TORSDOF 11
ENDMDL
MODEL 10
REMARK VINA RESULT:      -6.5     28.629     32.595
REMARK  Name = 38029303
REMARK  14 active torsions:
REMARK  status: ('A' for Active; 'I' for Inactive)
REMARK    1  A    between atoms: S_1  and  N_5
REMARK    2  A    between atoms: S_1  and  C_21
REMARK    3  A    between atoms: N_5  and  C_15
REMARK    4  A    between atoms: N_6  and  C_22
REMARK    5  A    between atoms: C_8  and  C_12
REMARK    6  A    between atoms: C_9  and  C_15
REMARK    7  A    between atoms: C_11  and  C_16
REMARK    8  A    between atoms: C_12  and  C_17
REMARK    9  A    between atoms: C_12  and  C_18
REMARK   10  A    between atoms: C_13  and  C_19
REMARK   11  A    between atoms: C_16  and  C_20
REMARK   12  A    between atoms: C_21  and  C_23
REMARK   13  A    between atoms: C_22  and  C_24
REMARK   14  A    between atoms: C_34  and  C_35
REMARK                            x       y       z     vdW  Elec       q    Type
REMARK                         _______ _______ _______ _____ _____    ______ ____
ROOT
ATOM      8  C   UNL     1      20.879   7.213  22.277  0.00  0.00    +0.000 C 
ATOM      9  C   UNL     1      21.261   6.146  21.221  0.00  0.00    +0.030 C 
ATOM     10  C   UNL     1      19.437   6.993  22.763  0.00  0.00    +0.012 C 
ATOM     11  C   UNL     1      18.418   7.057  21.610  0.00  0.00    +0.023 C 
ATOM     13  C   UNL     1      18.863   6.236  20.418  0.00  0.00    -0.073 C 
ATOM     14  C   UNL     1      20.135   5.825  20.268  0.00  0.00    -0.023 C 
ATOM     19  C   UNL     1      17.801   5.855  19.423  0.00  0.00    +0.039 C 
ENDROOT
BRANCH   8  12
ATOM     12  C   UNL     1      21.837   7.202  23.472  0.00  0.00    -0.013 C 
ATOM     17  C   UNL     1      21.266   8.028  24.619  0.00  0.00    +0.007 C 
ATOM     18  C   UNL     1      22.110   5.769  23.921  0.00  0.00    +0.007 C 
ENDBRANCH   8  12
BRANCH   9  15
ATOM     15  C   UNL     1      22.499   6.575  20.425  0.00  0.00    +0.113 C 
BRANCH  15   5
ATOM      5  N   UNL     1      23.345   5.397  20.179  0.00  0.00    -0.194 NA
ATOM     36  H   UNL     1      22.859   4.501  20.317  0.00  0.00    +0.148 HD
BRANCH   5   1
ATOM      1  S   UNL     1      24.982   5.429  20.666  0.00  0.00    +0.033 S 
ATOM      3  O   UNL     1      25.080   5.103  22.076  0.00  0.00    -0.158 OA
ATOM      4  O   UNL     1      25.598   6.631  20.138  0.00  0.00    -0.158 OA
BRANCH   1  21
ATOM     21  C   UNL     1      25.623   4.053  19.741  0.00  0.00    +0.220 C 
BRANCH  21  23
ATOM     23  C   UNL     1      25.554   2.841  20.618  0.00  0.00    -0.025 A 
ATOM     25  C   UNL     1      24.391   2.071  20.653  0.00  0.00    +0.005 A 
ATOM     26  C   UNL     1      26.652   2.481  21.399  0.00  0.00    +0.005 A 
ATOM     29  C   UNL     1      24.327   0.942  21.470  0.00  0.00    +0.000 A 
ATOM     30  C   UNL     1      26.588   1.352  22.216  0.00  0.00    +0.000 A 
ATOM     31  C   UNL     1      25.424   0.583  22.251  0.00  0.00    +0.000 A 
ENDBRANCH  21  23
ENDBRANCH   1  21
ENDBRANCH   5   1
ENDBRANCH  15   5
ENDBRANCH   9  15
BRANCH  11  16
ATOM     16  C   UNL     1      18.137   8.508  21.201  0.00  0.00    +0.103 C 
BRANCH  16  20
ATOM      2  O   UNL     1      16.344  10.089  21.580  0.00  0.00    -0.276 OA
ATOM      6  N   UNL     1      15.908   7.811  21.710  0.00  0.00    -0.311 N 
ATOM     20  C   UNL     1      16.715   8.920  21.513  0.00  0.00    +0.214 C 
ATOM     37  H   UNL     1      16.306   6.880  21.631  0.00  0.00    +0.149 HD
BRANCH   6  22
ATOM     22  C   UNL     1      14.500   7.904  22.025  0.00  0.00    +0.139 C 
BRANCH  22  24
ATOM     24  C   UNL     1      13.656   8.031  20.791  0.00  0.00    -0.030 A 
ATOM     27  C   UNL     1      14.045   7.395  19.611  0.00  0.00    +0.006 A 
ATOM     28  C   UNL     1      12.482   8.785  20.822  0.00  0.00    +0.006 A 
ATOM     32  C   UNL     1      13.261   7.513  18.464  0.00  0.00    +0.019 A 
ATOM     33  C   UNL     1      11.698   8.902  19.674  0.00  0.00    +0.019 A 
ATOM     34  C   UNL     1      12.087   8.266  18.495  0.00  0.00    +0.052 A 
BRANCH  34  35
ATOM      7  N   UNL     1      10.631   8.485  16.365  0.00  0.00    -0.191 NA
ATOM     35  C   UNL     1      11.284   8.387  17.320  0.00  0.00    +0.099 C 
ENDBRANCH  34  35
ENDBRANCH  22  24
ENDBRANCH   6  22
ENDBRANCH  16  20
ENDBRANCH  11  16
TORSDOF 11
ENDMDL
