MODEL 1
REMARK VINA RESULT:      -6.2      0.000      0.000
REMARK  Name = 45783996
REMARK  13 active torsions:
REMARK  status: ('A' for Active; 'I' for Inactive)
REMARK    1  A    between atoms: O_2  and  C_23
REMARK    2  A    between atoms: N_3  and  C_10
REMARK    3  A    between atoms: C_6  and  C_11
REMARK    4  A    between atoms: C_7  and  C_10
REMARK    5  A    between atoms: C_9  and  C_19
REMARK    6  A    between atoms: C_11  and  C_20
REMARK    7  A    between atoms: C_11  and  C_21
REMARK    8  A    between atoms: C_13  and  C_22
REMARK    9  A    between atoms: C_16  and  C_23
REMARK   10  A    between atoms: C_19  and  C_24
REMARK   11  A    between atoms: C_25  and  C_26
REMARK   12  A    between atoms: C_26  and  C_27
REMARK   13  A    between atoms: C_27  and  C_28
REMARK                            x       y       z     vdW  Elec       q    Type
REMARK                         _______ _______ _______ _____ _____    ______ ____
ROOT
ATOM      6  C   UNL     1      14.311  10.539  20.813  0.00  0.00    +0.000 C 
ATOM      7  C   UNL     1      12.938  10.623  20.106  0.00  0.00    +0.029 C 
ATOM      8  C   UNL     1      14.766   9.078  20.932  0.00  0.00    +0.012 C 
ATOM      9  C   UNL     1      14.842   8.348  19.574  0.00  0.00    +0.024 C 
ATOM     12  C   UNL     1      12.852   9.723  18.899  0.00  0.00    -0.023 C 
ATOM     13  C   UNL     1      13.699   8.710  18.638  0.00  0.00    -0.073 C 
ATOM     22  C   UNL     1      13.574   7.929  17.358  0.00  0.00    +0.039 C 
ENDROOT
BRANCH   6  11
ATOM     11  C   UNL     1      15.365  11.391  20.093  0.00  0.00    -0.013 C 
ATOM     20  C   UNL     1      14.894  12.838  19.981  0.00  0.00    +0.007 C 
ATOM     21  C   UNL     1      16.702  11.311  20.822  0.00  0.00    +0.007 C 
ENDBRANCH   6  11
BRANCH   7  10
ATOM     10  C   UNL     1      11.788  10.295  21.062  0.00  0.00    +0.092 C 
BRANCH  10   3
ATOM      3  N   UNL     1      11.731  11.266  22.155  0.00  0.00    -0.302 NA
ATOM     14  C   UNL     1      11.206  12.551  21.674  0.00  0.00    +0.085 C 
ATOM     15  C   UNL     1      10.922  10.744  23.265  0.00  0.00    +0.085 C 
ATOM     16  C   UNL     1      10.387  13.104  24.002  0.00  0.00    +0.017 C 
ATOM     17  C   UNL     1      11.191  13.594  22.793  0.00  0.00    +0.021 C 
ATOM     18  C   UNL     1      10.897  11.726  24.438  0.00  0.00    +0.021 C 
BRANCH  16  23
ATOM     23  C   UNL     1      10.458  14.104  25.152  0.00  0.00    +0.159 C 
BRANCH  23   2
ATOM      2  O   UNL     1      10.730  13.398  26.348  0.00  0.00    -0.395 OA
ATOM     29  H   UNL     1      11.148  14.024  26.963  0.00  0.00    +0.209 HD
ENDBRANCH  23   2
ENDBRANCH  16  23
ENDBRANCH  10   3
ENDBRANCH   7  10
BRANCH   9  19
ATOM     19  C   UNL     1      14.945   6.840  19.833  0.00  0.00    +0.105 C 
BRANCH  19  24
ATOM      1  O   UNL     1      17.254   6.659  20.603  0.00  0.00    -0.425 OA
ATOM      4  N   UNL     1      16.857   5.637  18.654  0.00  0.00    -0.112 NA
ATOM      5  N   UNL     1      18.190   5.455  18.968  0.00  0.00    -0.112 NA
ATOM     24  C   UNL     1      16.349   6.345  19.636  0.00  0.00    +0.218 A 
ATOM     25  C   UNL     1      18.378   6.068  20.113  0.00  0.00    +0.217 A 
BRANCH  25  26
ATOM     26  C   UNL     1      19.600   6.198  20.916  0.00  0.00    +0.097 C 
BRANCH  26  27
ATOM     27  C   UNL     1      20.788   5.396  20.342  0.00  0.00    +0.006 C 
ATOM     28  C   UNL     1      21.190   4.226  21.226  0.00  0.00    +0.004 C 
ENDBRANCH  26  27
ENDBRANCH  25  26
ENDBRANCH  19  24
ENDBRANCH   9  19
TORSDOF 9
ENDMDL
MODEL 2
REMARK VINA RESULT:      -6.2     27.333     29.467
REMARK  Name = 45783996
REMARK  13 active torsions:
REMARK  status: ('A' for Active; 'I' for Inactive)
REMARK    1  A    between atoms: O_2  and  C_23
REMARK    2  A    between atoms: N_3  and  C_10
REMARK    3  A    between atoms: C_6  and  C_11
REMARK    4  A    between atoms: C_7  and  C_10
REMARK    5  A    between atoms: C_9  and  C_19
REMARK    6  A    between atoms: C_11  and  C_20
REMARK    7  A    between atoms: C_11  and  C_21
REMARK    8  A    between atoms: C_13  and  C_22
REMARK    9  A    between atoms: C_16  and  C_23
REMARK   10  A    between atoms: C_19  and  C_24
REMARK   11  A    between atoms: C_25  and  C_26
REMARK   12  A    between atoms: C_26  and  C_27
REMARK   13  A    between atoms: C_27  and  C_28
REMARK                            x       y       z     vdW  Elec       q    Type
REMARK                         _______ _______ _______ _____ _____    ______ ____
ROOT
ATOM      6  C   UNL     1      -5.023 -11.889  15.161  0.00  0.00    +0.000 C 
ATOM      7  C   UNL     1      -4.760 -10.979  16.383  0.00  0.00    +0.029 C 
ATOM      8  C   UNL     1      -4.262 -11.372  13.932  0.00  0.00    +0.012 C 
ATOM      9  C   UNL     1      -2.740 -11.248  14.162  0.00  0.00    +0.024 C 
ATOM     12  C   UNL     1      -3.307 -10.599  16.521  0.00  0.00    -0.023 C 
ATOM     13  C   UNL     1      -2.388 -10.724  15.545  0.00  0.00    -0.073 C 
ATOM     22  C   UNL     1      -0.945 -10.396  15.817  0.00  0.00    +0.039 C 
ENDROOT
BRANCH   6  11
ATOM     11  C   UNL     1      -4.662 -13.350  15.462  0.00  0.00    -0.013 C 
ATOM     20  C   UNL     1      -5.499 -13.876  16.625  0.00  0.00    +0.007 C 
ATOM     21  C   UNL     1      -4.858 -14.214  14.221  0.00  0.00    +0.007 C 
ENDBRANCH   6  11
BRANCH   7  10
ATOM     10  C   UNL     1      -5.611  -9.706  16.335  0.00  0.00    +0.092 C 
BRANCH  10   3
ATOM      3  N   UNL     1      -6.740  -9.804  17.259  0.00  0.00    -0.302 NA
ATOM     14  C   UNL     1      -7.979 -10.101  16.526  0.00  0.00    +0.085 C 
ATOM     15  C   UNL     1      -6.477 -10.819  18.288  0.00  0.00    +0.085 C 
ATOM     16  C   UNL     1      -8.962 -11.173  18.595  0.00  0.00    +0.017 C 
ATOM     17  C   UNL     1      -9.180 -10.152  17.473  0.00  0.00    +0.021 C 
ATOM     18  C   UNL     1      -7.626 -10.896  19.294  0.00  0.00    +0.021 C 
BRANCH  16  23
ATOM     23  C   UNL     1     -10.117 -11.150  19.591  0.00  0.00    +0.159 C 
BRANCH  23   2
ATOM      2  O   UNL     1      -9.836 -10.182  20.586  0.00  0.00    -0.395 OA
ATOM     29  H   UNL     1      -9.873 -10.635  21.445  0.00  0.00    +0.209 HD
ENDBRANCH  23   2
ENDBRANCH  16  23
ENDBRANCH  10   3
ENDBRANCH   7  10
BRANCH   9  19
ATOM     19  C   UNL     1      -2.142 -10.401  13.032  0.00  0.00    +0.105 C 
BRANCH  19  24
ATOM      1  O   UNL     1      -3.311  -9.565  11.060  0.00  0.00    -0.425 OA
ATOM      4  N   UNL     1      -3.076 -11.789  11.111  0.00  0.00    -0.112 NA
ATOM      5  N   UNL     1      -3.749 -11.456   9.950  0.00  0.00    -0.112 NA
ATOM     24  C   UNL     1      -2.841 -10.654  11.728  0.00  0.00    +0.218 A 
ATOM     25  C   UNL     1      -3.864 -10.149   9.962  0.00  0.00    +0.217 A 
BRANCH  25  26
ATOM     26  C   UNL     1      -4.488  -9.256   8.979  0.00  0.00    +0.097 C 
BRANCH  26  27
ATOM     27  C   UNL     1      -5.533  -8.305   9.603  0.00  0.00    +0.006 C 
ATOM     28  C   UNL     1      -6.670  -9.048  10.284  0.00  0.00    +0.004 C 
ENDBRANCH  26  27
ENDBRANCH  25  26
ENDBRANCH  19  24
ENDBRANCH   9  19
TORSDOF 9
ENDMDL
MODEL 3
REMARK VINA RESULT:      -5.9     28.747     30.489
REMARK  Name = 45783996
REMARK  13 active torsions:
REMARK  status: ('A' for Active; 'I' for Inactive)
REMARK    1  A    between atoms: O_2  and  C_23
REMARK    2  A    between atoms: N_3  and  C_10
REMARK    3  A    between atoms: C_6  and  C_11
REMARK    4  A    between atoms: C_7  and  C_10
REMARK    5  A    between atoms: C_9  and  C_19
REMARK    6  A    between atoms: C_11  and  C_20
REMARK    7  A    between atoms: C_11  and  C_21
REMARK    8  A    between atoms: C_13  and  C_22
REMARK    9  A    between atoms: C_16  and  C_23
REMARK   10  A    between atoms: C_19  and  C_24
REMARK   11  A    between atoms: C_25  and  C_26
REMARK   12  A    between atoms: C_26  and  C_27
REMARK   13  A    between atoms: C_27  and  C_28
REMARK                            x       y       z     vdW  Elec       q    Type
REMARK                         _______ _______ _______ _____ _____    ______ ____
ROOT
ATOM      6  C   UNL     1      -7.620 -11.962  17.153  0.00  0.00    +0.000 C 
ATOM      7  C   UNL     1      -7.654 -11.940  18.699  0.00  0.00    +0.029 C 
ATOM      8  C   UNL     1      -6.500 -11.055  16.626  0.00  0.00    +0.012 C 
ATOM      9  C   UNL     1      -5.105 -11.423  17.175  0.00  0.00    +0.024 C 
ATOM     12  C   UNL     1      -6.278 -12.036  19.309  0.00  0.00    -0.023 C 
ATOM     13  C   UNL     1      -5.128 -11.821  18.642  0.00  0.00    -0.073 C 
ATOM     22  C   UNL     1      -3.805 -12.029  19.327  0.00  0.00    +0.039 C 
ENDROOT
BRANCH   6  11
ATOM     11  C   UNL     1      -7.474 -13.393  16.617  0.00  0.00    -0.013 C 
ATOM     20  C   UNL     1      -8.615 -14.270  17.122  0.00  0.00    +0.007 C 
ATOM     21  C   UNL     1      -7.431 -13.388  15.092  0.00  0.00    +0.007 C 
ENDBRANCH   6  11
BRANCH   7  10
ATOM     10  C   UNL     1      -8.355 -10.687  19.232  0.00  0.00    +0.092 C 
BRANCH  10   3
ATOM      3  N   UNL     1      -9.530 -11.050  20.024  0.00  0.00    -0.302 NA
ATOM     14  C   UNL     1     -10.720 -10.342  19.532  0.00  0.00    +0.085 C 
ATOM     15  C   UNL     1      -9.734 -12.505  20.005  0.00  0.00    +0.085 C 
ATOM     16  C   UNL     1     -12.204 -12.179  20.435  0.00  0.00    +0.017 C 
ATOM     17  C   UNL     1     -11.947 -10.668  20.384  0.00  0.00    +0.021 C 
ATOM     18  C   UNL     1     -10.928 -12.906  20.872  0.00  0.00    +0.021 C 
BRANCH  16  23
ATOM     23  C   UNL     1     -13.368 -12.507  21.365  0.00  0.00    +0.159 C 
BRANCH  23   2
ATOM      2  O   UNL     1     -12.896 -12.495  22.700  0.00  0.00    -0.395 OA
ATOM     29  H   UNL     1     -13.600 -12.111  23.250  0.00  0.00    +0.209 HD
ENDBRANCH  23   2
ENDBRANCH  16  23
ENDBRANCH  10   3
ENDBRANCH   7  10
BRANCH   9  19
ATOM     19  C   UNL     1      -4.143 -10.265  16.886  0.00  0.00    +0.105 C 
BRANCH  19  24
ATOM      1  O   UNL     1      -3.345 -10.828  14.649  0.00  0.00    -0.425 OA
ATOM      4  N   UNL     1      -1.777 -10.953  16.239  0.00  0.00    -0.112 NA
ATOM      5  N   UNL     1      -1.192 -11.294  15.034  0.00  0.00    -0.112 NA
ATOM     24  C   UNL     1      -3.034 -10.689  15.967  0.00  0.00    +0.218 A 
ATOM     25  C   UNL     1      -2.144 -11.207  14.135  0.00  0.00    +0.217 A 
BRANCH  25  26
ATOM     26  C   UNL     1      -2.090 -11.454  12.689  0.00  0.00    +0.097 C 
BRANCH  26  27
ATOM     27  C   UNL     1      -1.763 -10.185  11.871  0.00  0.00    +0.006 C 
ATOM     28  C   UNL     1      -2.847  -9.838  10.864  0.00  0.00    +0.004 C 
ENDBRANCH  26  27
ENDBRANCH  25  26
ENDBRANCH  19  24
ENDBRANCH   9  19
TORSDOF 9
ENDMDL
MODEL 4
REMARK VINA RESULT:      -5.9     27.479     29.646
REMARK  Name = 45783996
REMARK  13 active torsions:
REMARK  status: ('A' for Active; 'I' for Inactive)
REMARK    1  A    between atoms: O_2  and  C_23
REMARK    2  A    between atoms: N_3  and  C_10
REMARK    3  A    between atoms: C_6  and  C_11
REMARK    4  A    between atoms: C_7  and  C_10
REMARK    5  A    between atoms: C_9  and  C_19
REMARK    6  A    between atoms: C_11  and  C_20
REMARK    7  A    between atoms: C_11  and  C_21
REMARK    8  A    between atoms: C_13  and  C_22
REMARK    9  A    between atoms: C_16  and  C_23
REMARK   10  A    between atoms: C_19  and  C_24
REMARK   11  A    between atoms: C_25  and  C_26
REMARK   12  A    between atoms: C_26  and  C_27
REMARK   13  A    between atoms: C_27  and  C_28
REMARK                            x       y       z     vdW  Elec       q    Type
REMARK                         _______ _______ _______ _____ _____    ______ ____
ROOT
ATOM      6  C   UNL     1      -3.967 -12.175  14.094  0.00  0.00    +0.000 C 
ATOM      7  C   UNL     1      -2.702 -11.506  14.678  0.00  0.00    +0.029 C 
ATOM      8  C   UNL     1      -4.681 -11.224  13.123  0.00  0.00    +0.012 C 
ATOM      9  C   UNL     1      -3.779 -10.737  11.969  0.00  0.00    +0.024 C 
ATOM     12  C   UNL     1      -1.896 -10.778  13.631  0.00  0.00    -0.023 C 
ATOM     13  C   UNL     1      -2.355 -10.438  12.412  0.00  0.00    -0.073 C 
ATOM     22  C   UNL     1      -1.437  -9.790  11.411  0.00  0.00    +0.039 C 
ENDROOT
BRANCH   6  11
ATOM     11  C   UNL     1      -3.632 -13.510  13.415  0.00  0.00    -0.013 C 
ATOM     20  C   UNL     1      -2.768 -14.372  14.332  0.00  0.00    +0.007 C 
ATOM     21  C   UNL     1      -4.910 -14.247  13.027  0.00  0.00    +0.007 C 
ENDBRANCH   6  11
BRANCH   7  10
ATOM     10  C   UNL     1      -3.048 -10.535  15.811  0.00  0.00    +0.092 C 
BRANCH  10   3
ATOM      3  N   UNL     1      -4.170 -11.042  16.601  0.00  0.00    -0.302 NA
ATOM     14  C   UNL     1      -3.695 -11.568  17.888  0.00  0.00    +0.085 C 
ATOM     15  C   UNL     1      -5.177  -9.991  16.797  0.00  0.00    +0.085 C 
ATOM     16  C   UNL     1      -5.958 -11.116  18.923  0.00  0.00    +0.017 C 
ATOM     17  C   UNL     1      -4.850 -12.152  18.704  0.00  0.00    +0.021 C 
ATOM     18  C   UNL     1      -6.382 -10.520  17.576  0.00  0.00    +0.021 C 
BRANCH  16  23
ATOM     23  C   UNL     1      -7.150 -11.731  19.651  0.00  0.00    +0.159 C 
BRANCH  23   2
ATOM      2  O   UNL     1      -8.103 -10.713  19.896  0.00  0.00    -0.395 OA
ATOM     29  H   UNL     1      -8.622 -10.986  20.671  0.00  0.00    +0.209 HD
ENDBRANCH  23   2
ENDBRANCH  16  23
ENDBRANCH  10   3
ENDBRANCH   7  10
BRANCH   9  19
ATOM     19  C   UNL     1      -4.456  -9.542  11.289  0.00  0.00    +0.105 C 
BRANCH  19  24
ATOM      1  O   UNL     1      -4.294 -11.012   9.347  0.00  0.00    -0.425 OA
ATOM      4  N   UNL     1      -5.270  -9.044   8.926  0.00  0.00    -0.112 NA
ATOM      5  N   UNL     1      -5.246  -9.769   7.750  0.00  0.00    -0.112 NA
ATOM     24  C   UNL     1      -4.704  -9.808   9.832  0.00  0.00    +0.218 A 
ATOM     25  C   UNL     1      -4.668 -10.910   8.043  0.00  0.00    +0.217 A 
BRANCH  25  26
ATOM     26  C   UNL     1      -4.380 -12.062   7.179  0.00  0.00    +0.097 C 
BRANCH  26  27
ATOM     27  C   UNL     1      -4.477 -11.728   5.675  0.00  0.00    +0.006 C 
ATOM     28  C   UNL     1      -3.355 -12.351   4.860  0.00  0.00    +0.004 C 
ENDBRANCH  26  27
ENDBRANCH  25  26
ENDBRANCH  19  24
ENDBRANCH   9  19
TORSDOF 9
ENDMDL
MODEL 5
REMARK VINA RESULT:      -5.8      3.050      8.985
REMARK  Name = 45783996
REMARK  13 active torsions:
REMARK  status: ('A' for Active; 'I' for Inactive)
REMARK    1  A    between atoms: O_2  and  C_23
REMARK    2  A    between atoms: N_3  and  C_10
REMARK    3  A    between atoms: C_6  and  C_11
REMARK    4  A    between atoms: C_7  and  C_10
REMARK    5  A    between atoms: C_9  and  C_19
REMARK    6  A    between atoms: C_11  and  C_20
REMARK    7  A    between atoms: C_11  and  C_21
REMARK    8  A    between atoms: C_13  and  C_22
REMARK    9  A    between atoms: C_16  and  C_23
REMARK   10  A    between atoms: C_19  and  C_24
REMARK   11  A    between atoms: C_25  and  C_26
REMARK   12  A    between atoms: C_26  and  C_27
REMARK   13  A    between atoms: C_27  and  C_28
REMARK                            x       y       z     vdW  Elec       q    Type
REMARK                         _______ _______ _______ _____ _____    ______ ____
ROOT
ATOM      6  C   UNL     1      16.744   7.252  21.019  0.00  0.00    +0.000 C 
ATOM      7  C   UNL     1      18.073   8.041  20.989  0.00  0.00    +0.029 C 
ATOM      8  C   UNL     1      15.708   7.974  21.892  0.00  0.00    +0.012 C 
ATOM      9  C   UNL     1      15.433   9.425  21.442  0.00  0.00    +0.024 C 
ATOM     12  C   UNL     1      17.862   9.524  20.809  0.00  0.00    -0.023 C 
ATOM     13  C   UNL     1      16.688  10.158  20.995  0.00  0.00    -0.073 C 
ATOM     22  C   UNL     1      16.568  11.629  20.703  0.00  0.00    +0.039 C 
ENDROOT
BRANCH   6  11
ATOM     11  C   UNL     1      16.203   7.011  19.603  0.00  0.00    -0.013 C 
ATOM     20  C   UNL     1      16.991   5.900  18.915  0.00  0.00    +0.007 C 
ATOM     21  C   UNL     1      14.718   6.669  19.651  0.00  0.00    +0.007 C 
ENDBRANCH   6  11
BRANCH   7  10
ATOM     10  C   UNL     1      18.903   7.801  22.253  0.00  0.00    +0.092 C 
BRANCH  10   3
ATOM      3  N   UNL     1      19.707   6.586  22.120  0.00  0.00    -0.302 NA
ATOM     14  C   UNL     1      20.115   6.390  20.722  0.00  0.00    +0.085 C 
ATOM     15  C   UNL     1      20.875   6.641  23.010  0.00  0.00    +0.085 C 
ATOM     16  C   UNL     1      22.133   5.069  21.481  0.00  0.00    +0.017 C 
ATOM     17  C   UNL     1      20.911   5.094  20.557  0.00  0.00    +0.021 C 
ATOM     18  C   UNL     1      21.697   5.355  22.922  0.00  0.00    +0.021 C 
BRANCH  16  23
ATOM     23  C   UNL     1      22.867   3.735  21.385  0.00  0.00    +0.159 C 
BRANCH  23   2
ATOM      2  O   UNL     1      22.514   2.944  22.505  0.00  0.00    -0.395 OA
ATOM     29  H   UNL     1      23.293   2.902  23.084  0.00  0.00    +0.209 HD
ENDBRANCH  23   2
ENDBRANCH  16  23
ENDBRANCH  10   3
ENDBRANCH   7  10
BRANCH   9  19
ATOM     19  C   UNL     1      14.686  10.153  22.565  0.00  0.00    +0.105 C 
BRANCH  19  24
ATOM      1  O   UNL     1      12.779   8.707  22.086  0.00  0.00    -0.425 OA
ATOM      4  N   UNL     1      12.221  10.790  22.681  0.00  0.00    -0.112 NA
ATOM      5  N   UNL     1      11.055  10.087  22.442  0.00  0.00    -0.112 NA
ATOM     24  C   UNL     1      13.202   9.945  22.461  0.00  0.00    +0.218 A 
ATOM     25  C   UNL     1      11.429   8.877  22.098  0.00  0.00    +0.217 A 
BRANCH  25  26
ATOM     26  C   UNL     1      10.611   7.712  21.737  0.00  0.00    +0.097 C 
BRANCH  26  27
ATOM     27  C   UNL     1      11.451   6.508  21.260  0.00  0.00    +0.006 C 
ATOM     28  C   UNL     1      10.879   5.175  21.714  0.00  0.00    +0.004 C 
ENDBRANCH  26  27
ENDBRANCH  25  26
ENDBRANCH  19  24
ENDBRANCH   9  19
TORSDOF 9
ENDMDL
MODEL 6
REMARK VINA RESULT:      -5.7     27.591     30.189
REMARK  Name = 45783996
REMARK  13 active torsions:
REMARK  status: ('A' for Active; 'I' for Inactive)
REMARK    1  A    between atoms: O_2  and  C_23
REMARK    2  A    between atoms: N_3  and  C_10
REMARK    3  A    between atoms: C_6  and  C_11
REMARK    4  A    between atoms: C_7  and  C_10
REMARK    5  A    between atoms: C_9  and  C_19
REMARK    6  A    between atoms: C_11  and  C_20
REMARK    7  A    between atoms: C_11  and  C_21
REMARK    8  A    between atoms: C_13  and  C_22
REMARK    9  A    between atoms: C_16  and  C_23
REMARK   10  A    between atoms: C_19  and  C_24
REMARK   11  A    between atoms: C_25  and  C_26
REMARK   12  A    between atoms: C_26  and  C_27
REMARK   13  A    between atoms: C_27  and  C_28
REMARK                            x       y       z     vdW  Elec       q    Type
REMARK                         _______ _______ _______ _____ _____    ______ ____
ROOT
ATOM      6  C   UNL     1      -3.564 -10.615  15.405  0.00  0.00    +0.000 C 
ATOM      7  C   UNL     1      -4.598 -11.501  14.673  0.00  0.00    +0.029 C 
ATOM      8  C   UNL     1      -4.112 -10.157  16.764  0.00  0.00    +0.012 C 
ATOM      9  C   UNL     1      -4.527 -11.327  17.682  0.00  0.00    +0.024 C 
ATOM     12  C   UNL     1      -5.245 -12.512  15.587  0.00  0.00    -0.023 C 
ATOM     13  C   UNL     1      -5.213 -12.458  16.932  0.00  0.00    -0.073 C 
ATOM     22  C   UNL     1      -5.817 -13.568  17.749  0.00  0.00    +0.039 C 
ENDROOT
BRANCH   6  11
ATOM     11  C   UNL     1      -2.220 -11.339  15.565  0.00  0.00    -0.013 C 
ATOM     20  C   UNL     1      -1.923 -12.189  14.333  0.00  0.00    +0.007 C 
ATOM     21  C   UNL     1      -1.100 -10.335  15.812  0.00  0.00    +0.007 C 
ENDBRANCH   6  11
BRANCH   7  10
ATOM     10  C   UNL     1      -5.689 -10.660  14.001  0.00  0.00    +0.092 C 
BRANCH  10   3
ATOM      3  N   UNL     1      -5.194 -10.070  12.758  0.00  0.00    -0.302 NA
ATOM     14  C   UNL     1      -4.647 -11.111  11.877  0.00  0.00    +0.085 C 
ATOM     15  C   UNL     1      -6.260  -9.314  12.088  0.00  0.00    +0.085 C 
ATOM     16  C   UNL     1      -5.128  -9.671   9.855  0.00  0.00    +0.017 C 
ATOM     17  C   UNL     1      -4.075 -10.503  10.595  0.00  0.00    +0.021 C 
ATOM     18  C   UNL     1      -5.744  -8.645  10.813  0.00  0.00    +0.021 C 
BRANCH  16  23
ATOM     23  C   UNL     1      -4.526  -8.987   8.631  0.00  0.00    +0.159 C 
BRANCH  23   2
ATOM      2  O   UNL     1      -5.354  -9.253   7.513  0.00  0.00    -0.395 OA
ATOM     29  H   UNL     1      -6.234  -8.895   7.716  0.00  0.00    +0.209 HD
ENDBRANCH  23   2
ENDBRANCH  16  23
ENDBRANCH  10   3
ENDBRANCH   7  10
BRANCH   9  19
ATOM     19  C   UNL     1      -5.378 -10.771  18.830  0.00  0.00    +0.105 C 
BRANCH  19  24
ATOM      1  O   UNL     1      -7.800 -11.036  18.961  0.00  0.00    -0.425 OA
ATOM      4  N   UNL     1      -7.124  -9.538  17.443  0.00  0.00    -0.112 NA
ATOM      5  N   UNL     1      -8.505  -9.585  17.411  0.00  0.00    -0.112 NA
ATOM     24  C   UNL     1      -6.756 -10.401  18.362  0.00  0.00    +0.218 A 
ATOM     25  C   UNL     1      -8.856 -10.472  18.313  0.00  0.00    +0.217 A 
BRANCH  25  26
ATOM     26  C   UNL     1     -10.195 -10.924  18.709  0.00  0.00    +0.097 C 
BRANCH  26  27
ATOM     27  C   UNL     1     -10.768 -10.139  19.909  0.00  0.00    +0.006 C 
ATOM     28  C   UNL     1     -12.279  -9.985  19.844  0.00  0.00    +0.004 C 
ENDBRANCH  26  27
ENDBRANCH  25  26
ENDBRANCH  19  24
ENDBRANCH   9  19
TORSDOF 9
ENDMDL
MODEL 7
REMARK VINA RESULT:      -5.7     29.125     31.624
REMARK  Name = 45783996
REMARK  13 active torsions:
REMARK  status: ('A' for Active; 'I' for Inactive)
REMARK    1  A    between atoms: O_2  and  C_23
REMARK    2  A    between atoms: N_3  and  C_10
REMARK    3  A    between atoms: C_6  and  C_11
REMARK    4  A    between atoms: C_7  and  C_10
REMARK    5  A    between atoms: C_9  and  C_19
REMARK    6  A    between atoms: C_11  and  C_20
REMARK    7  A    between atoms: C_11  and  C_21
REMARK    8  A    between atoms: C_13  and  C_22
REMARK    9  A    between atoms: C_16  and  C_23
REMARK   10  A    between atoms: C_19  and  C_24
REMARK   11  A    between atoms: C_25  and  C_26
REMARK   12  A    between atoms: C_26  and  C_27
REMARK   13  A    between atoms: C_27  and  C_28
REMARK                            x       y       z     vdW  Elec       q    Type
REMARK                         _______ _______ _______ _____ _____    ______ ____
ROOT
ATOM      6  C   UNL     1     -14.708   5.335  32.938  0.00  0.00    +0.000 C 
ATOM      7  C   UNL     1     -15.826   5.692  31.932  0.00  0.00    +0.029 C 
ATOM      8  C   UNL     1     -13.451   6.174  32.669  0.00  0.00    +0.012 C 
ATOM      9  C   UNL     1     -13.712   7.695  32.710  0.00  0.00    +0.024 C 
ATOM     12  C   UNL     1     -15.963   7.180  31.723  0.00  0.00    -0.023 C 
ATOM     13  C   UNL     1     -15.036   8.090  32.075  0.00  0.00    -0.073 C 
ATOM     22  C   UNL     1     -15.313   9.559  31.901  0.00  0.00    +0.039 C 
ENDROOT
BRANCH   6  11
ATOM     11  C   UNL     1     -15.185   5.500  34.387  0.00  0.00    -0.013 C 
ATOM     20  C   UNL     1     -16.642   5.066  34.521  0.00  0.00    +0.007 C 
ATOM     21  C   UNL     1     -14.295   4.705  35.336  0.00  0.00    +0.007 C 
ENDBRANCH   6  11
BRANCH   7  10
ATOM     10  C   UNL     1     -15.606   5.012  30.576  0.00  0.00    +0.092 C 
BRANCH  10   3
ATOM      3  N   UNL     1     -15.296   3.594  30.754  0.00  0.00    -0.302 NA
ATOM     14  C   UNL     1     -16.239   2.763  29.995  0.00  0.00    +0.085 C 
ATOM     15  C   UNL     1     -13.908   3.317  30.360  0.00  0.00    +0.085 C 
ATOM     16  C   UNL     1     -14.517   0.916  29.850  0.00  0.00    +0.017 C 
ATOM     17  C   UNL     1     -15.963   1.274  30.214  0.00  0.00    +0.021 C 
ATOM     18  C   UNL     1     -13.552   1.848  30.591  0.00  0.00    +0.021 C 
BRANCH  16  23
ATOM     23  C   UNL     1     -14.218  -0.547  30.164  0.00  0.00    +0.159 C 
BRANCH  23   2
ATOM      2  O   UNL     1     -14.957  -0.922  31.312  0.00  0.00    -0.395 OA
ATOM     29  H   UNL     1     -14.314  -1.149  32.005  0.00  0.00    +0.209 HD
ENDBRANCH  23   2
ENDBRANCH  16  23
ENDBRANCH  10   3
ENDBRANCH   7  10
BRANCH   9  19
ATOM     19  C   UNL     1     -12.512   8.415  32.084  0.00  0.00    +0.105 C 
BRANCH  19  24
ATOM      1  O   UNL     1     -12.006   8.855  34.430  0.00  0.00    -0.425 OA
ATOM      4  N   UNL     1     -10.506   9.693  32.998  0.00  0.00    -0.112 NA
ATOM      5  N   UNL     1     -10.099  10.013  34.279  0.00  0.00    -0.112 NA
ATOM     24  C   UNL     1     -11.624   9.017  33.134  0.00  0.00    +0.218 A 
ATOM     25  C   UNL     1     -11.003   9.505  35.082  0.00  0.00    +0.217 A 
BRANCH  25  26
ATOM     26  C   UNL     1     -11.078   9.537  36.548  0.00  0.00    +0.097 C 
BRANCH  26  27
ATOM     27  C   UNL     1     -10.937   8.140  37.191  0.00  0.00    +0.006 C 
ATOM     28  C   UNL     1      -9.489   7.703  37.339  0.00  0.00    +0.004 C 
ENDBRANCH  26  27
ENDBRANCH  25  26
ENDBRANCH  19  24
ENDBRANCH   9  19
TORSDOF 9
ENDMDL
MODEL 8
REMARK VINA RESULT:      -5.7     26.671     31.270
REMARK  Name = 45783996
REMARK  13 active torsions:
REMARK  status: ('A' for Active; 'I' for Inactive)
REMARK    1  A    between atoms: O_2  and  C_23
REMARK    2  A    between atoms: N_3  and  C_10
REMARK    3  A    between atoms: C_6  and  C_11
REMARK    4  A    between atoms: C_7  and  C_10
REMARK    5  A    between atoms: C_9  and  C_19
REMARK    6  A    between atoms: C_11  and  C_20
REMARK    7  A    between atoms: C_11  and  C_21
REMARK    8  A    between atoms: C_13  and  C_22
REMARK    9  A    between atoms: C_16  and  C_23
REMARK   10  A    between atoms: C_19  and  C_24
REMARK   11  A    between atoms: C_25  and  C_26
REMARK   12  A    between atoms: C_26  and  C_27
REMARK   13  A    between atoms: C_27  and  C_28
REMARK                            x       y       z     vdW  Elec       q    Type
REMARK                         _______ _______ _______ _____ _____    ______ ____
ROOT
ATOM      6  C   UNL     1     -14.794   5.242  32.834  0.00  0.00    +0.000 C 
ATOM      7  C   UNL     1     -15.883   5.484  31.764  0.00  0.00    +0.029 C 
ATOM      8  C   UNL     1     -13.603   6.185  32.613  0.00  0.00    +0.012 C 
ATOM      9  C   UNL     1     -13.997   7.678  32.610  0.00  0.00    +0.024 C 
ATOM     12  C   UNL     1     -16.139   6.950  31.519  0.00  0.00    -0.023 C 
ATOM     13  C   UNL     1     -15.315   7.945  31.900  0.00  0.00    -0.073 C 
ATOM     22  C   UNL     1     -15.709   9.380  31.683  0.00  0.00    +0.039 C 
ENDROOT
BRANCH   6  11
ATOM     11  C   UNL     1     -15.360   5.387  34.253  0.00  0.00    -0.013 C 
ATOM     20  C   UNL     1     -16.772   4.814  34.324  0.00  0.00    +0.007 C 
ATOM     21  C   UNL     1     -14.446   4.703  35.264  0.00  0.00    +0.007 C 
ENDBRANCH   6  11
BRANCH   7  10
ATOM     10  C   UNL     1     -15.534   4.805  30.436  0.00  0.00    +0.092 C 
BRANCH  10   3
ATOM      3  N   UNL     1     -15.258   3.383  30.640  0.00  0.00    -0.302 NA
ATOM     14  C   UNL     1     -16.088   2.566  29.745  0.00  0.00    +0.085 C 
ATOM     15  C   UNL     1     -13.829   3.103  30.442  0.00  0.00    +0.085 C 
ATOM     16  C   UNL     1     -14.370   0.711  29.824  0.00  0.00    +0.017 C 
ATOM     17  C   UNL     1     -15.851   1.073  29.984  0.00  0.00    +0.021 C 
ATOM     18  C   UNL     1     -13.515   1.629  30.704  0.00  0.00    +0.021 C 
BRANCH  16  23
ATOM     23  C   UNL     1     -14.124  -0.756  30.160  0.00  0.00    +0.159 C 
BRANCH  23   2
ATOM      2  O   UNL     1     -12.802  -1.091  29.779  0.00  0.00    -0.395 OA
ATOM     29  H   UNL     1     -12.236  -0.954  30.557  0.00  0.00    +0.209 HD
ENDBRANCH  23   2
ENDBRANCH  16  23
ENDBRANCH  10   3
ENDBRANCH   7  10
BRANCH   9  19
ATOM     19  C   UNL     1     -12.832   8.490  32.032  0.00  0.00    +0.105 C 
BRANCH  19  24
ATOM      1  O   UNL     1     -10.714   9.465  32.752  0.00  0.00    -0.425 OA
ATOM      4  N   UNL     1     -12.199   9.183  34.401  0.00  0.00    -0.112 NA
ATOM      5  N   UNL     1     -11.057   9.738  34.945  0.00  0.00    -0.112 NA
ATOM     24  C   UNL     1     -11.954   9.041  33.119  0.00  0.00    +0.218 A 
ATOM     25  C   UNL     1     -10.217   9.885  33.948  0.00  0.00    +0.217 A 
BRANCH  25  26
ATOM     26  C   UNL     1      -8.854  10.429  33.945  0.00  0.00    +0.097 C 
BRANCH  26  27
ATOM     27  C   UNL     1      -8.615  11.456  32.816  0.00  0.00    +0.006 C 
ATOM     28  C   UNL     1      -7.391  12.323  33.060  0.00  0.00    +0.004 C 
ENDBRANCH  26  27
ENDBRANCH  25  26
ENDBRANCH  19  24
ENDBRANCH   9  19
TORSDOF 9
ENDMDL
MODEL 9
REMARK VINA RESULT:      -5.6     27.853     29.985
REMARK  Name = 45783996
REMARK  13 active torsions:
REMARK  status: ('A' for Active; 'I' for Inactive)
REMARK    1  A    between atoms: O_2  and  C_23
REMARK    2  A    between atoms: N_3  and  C_10
REMARK    3  A    between atoms: C_6  and  C_11
REMARK    4  A    between atoms: C_7  and  C_10
REMARK    5  A    between atoms: C_9  and  C_19
REMARK    6  A    between atoms: C_11  and  C_20
REMARK    7  A    between atoms: C_11  and  C_21
REMARK    8  A    between atoms: C_13  and  C_22
REMARK    9  A    between atoms: C_16  and  C_23
REMARK   10  A    between atoms: C_19  and  C_24
REMARK   11  A    between atoms: C_25  and  C_26
REMARK   12  A    between atoms: C_26  and  C_27
REMARK   13  A    between atoms: C_27  and  C_28
REMARK                            x       y       z     vdW  Elec       q    Type
REMARK                         _______ _______ _______ _____ _____    ______ ____
ROOT
ATOM      6  C   UNL     1      -4.667 -11.781  13.601  0.00  0.00    +0.000 C 
ATOM      7  C   UNL     1      -3.235 -11.367  14.012  0.00  0.00    +0.029 C 
ATOM      8  C   UNL     1      -5.358 -10.643  12.836  0.00  0.00    +0.012 C 
ATOM      9  C   UNL     1      -4.577 -10.184  11.586  0.00  0.00    +0.024 C 
ATOM     12  C   UNL     1      -2.493 -10.668  12.901  0.00  0.00    -0.023 C 
ATOM     13  C   UNL     1      -3.073 -10.145  11.804  0.00  0.00    -0.073 C 
ATOM     22  C   UNL     1      -2.227  -9.546  10.713  0.00  0.00    +0.039 C 
ENDROOT
BRANCH   6  11
ATOM     11  C   UNL     1      -4.661 -13.077  12.780  0.00  0.00    -0.013 C 
ATOM     20  C   UNL     1      -3.861 -14.159  13.499  0.00  0.00    +0.007 C 
ATOM     21  C   UNL     1      -6.088 -13.547  12.515  0.00  0.00    +0.007 C 
ENDBRANCH   6  11
BRANCH   7  10
ATOM     10  C   UNL     1      -3.240 -10.472  15.255  0.00  0.00    +0.092 C 
BRANCH  10   3
ATOM      3  N   UNL     1      -4.229 -10.940  16.226  0.00  0.00    -0.302 NA
ATOM     14  C   UNL     1      -3.565 -11.424  17.443  0.00  0.00    +0.085 C 
ATOM     15  C   UNL     1      -5.192  -9.875  16.534  0.00  0.00    +0.085 C 
ATOM     16  C   UNL     1      -5.641 -10.916  18.795  0.00  0.00    +0.017 C 
ATOM     17  C   UNL     1      -4.582 -11.969  18.447  0.00  0.00    +0.021 C 
ATOM     18  C   UNL     1      -6.264 -10.365  17.507  0.00  0.00    +0.021 C 
BRANCH  16  23
ATOM     23  C   UNL     1      -6.709 -11.494  19.718  0.00  0.00    +0.159 C 
BRANCH  23   2
ATOM      2  O   UNL     1      -7.635 -10.471  20.034  0.00  0.00    -0.395 OA
ATOM     29  H   UNL     1      -7.287  -9.998  20.808  0.00  0.00    +0.209 HD
ENDBRANCH  23   2
ENDBRANCH  16  23
ENDBRANCH  10   3
ENDBRANCH   7  10
BRANCH   9  19
ATOM     19  C   UNL     1      -5.147  -8.841  11.117  0.00  0.00    +0.105 C 
BRANCH  19  24
ATOM      1  O   UNL     1      -7.059  -8.392   9.668  0.00  0.00    -0.425 OA
ATOM      4  N   UNL     1      -5.423  -9.563   8.690  0.00  0.00    -0.112 NA
ATOM      5  N   UNL     1      -6.433  -9.383   7.763  0.00  0.00    -0.112 NA
ATOM     24  C   UNL     1      -5.832  -8.969   9.787  0.00  0.00    +0.218 A 
ATOM     25  C   UNL     1      -7.367  -8.695   8.377  0.00  0.00    +0.217 A 
BRANCH  25  26
ATOM     26  C   UNL     1      -8.660  -8.217   7.874  0.00  0.00    +0.097 C 
BRANCH  26  27
ATOM     27  C   UNL     1      -8.534  -6.980   6.959  0.00  0.00    +0.006 C 
ATOM     28  C   UNL     1      -8.822  -7.296   5.500  0.00  0.00    +0.004 C 
ENDBRANCH  26  27
ENDBRANCH  25  26
ENDBRANCH  19  24
ENDBRANCH   9  19
TORSDOF 9
ENDMDL
MODEL 10
REMARK VINA RESULT:      -5.5     27.321     29.472
REMARK  Name = 45783996
REMARK  13 active torsions:
REMARK  status: ('A' for Active; 'I' for Inactive)
REMARK    1  A    between atoms: O_2  and  C_23
REMARK    2  A    between atoms: N_3  and  C_10
REMARK    3  A    between atoms: C_6  and  C_11
REMARK    4  A    between atoms: C_7  and  C_10
REMARK    5  A    between atoms: C_9  and  C_19
REMARK    6  A    between atoms: C_11  and  C_20
REMARK    7  A    between atoms: C_11  and  C_21
REMARK    8  A    between atoms: C_13  and  C_22
REMARK    9  A    between atoms: C_16  and  C_23
REMARK   10  A    between atoms: C_19  and  C_24
REMARK   11  A    between atoms: C_25  and  C_26
REMARK   12  A    between atoms: C_26  and  C_27
REMARK   13  A    between atoms: C_27  and  C_28
REMARK                            x       y       z     vdW  Elec       q    Type
REMARK                         _______ _______ _______ _____ _____    ______ ____
ROOT
ATOM      6  C   UNL     1      -4.945 -12.614  15.267  0.00  0.00    +0.000 C 
ATOM      7  C   UNL     1      -4.860 -11.130  15.695  0.00  0.00    +0.029 C 
ATOM      8  C   UNL     1      -3.940 -12.909  14.145  0.00  0.00    +0.012 C 
ATOM      9  C   UNL     1      -2.483 -12.566  14.522  0.00  0.00    +0.024 C 
ATOM     12  C   UNL     1      -3.438 -10.648  15.831  0.00  0.00    -0.023 C 
ATOM     13  C   UNL     1      -2.362 -11.281  15.326  0.00  0.00    -0.073 C 
ATOM     22  C   UNL     1      -0.978 -10.757  15.596  0.00  0.00    +0.039 C 
ENDROOT
BRANCH   6  11
ATOM     11  C   UNL     1      -4.733 -13.554  16.462  0.00  0.00    -0.013 C 
ATOM     20  C   UNL     1      -5.583 -13.107  17.647  0.00  0.00    +0.007 C 
ATOM     21  C   UNL     1      -5.060 -14.992  16.073  0.00  0.00    +0.007 C 
ENDBRANCH   6  11
BRANCH   7  10
ATOM     10  C   UNL     1      -5.610 -10.217  14.720  0.00  0.00    +0.092 C 
BRANCH  10   3
ATOM      3  N   UNL     1      -6.886  -9.788  15.293  0.00  0.00    -0.302 NA
ATOM     14  C   UNL     1      -7.958 -10.717  14.912  0.00  0.00    +0.085 C 
ATOM     15  C   UNL     1      -6.781  -9.670  16.753  0.00  0.00    +0.085 C 
ATOM     16  C   UNL     1      -9.266 -10.077  16.979  0.00  0.00    +0.017 C 
ATOM     17  C   UNL     1      -9.310 -10.252  15.457  0.00  0.00    +0.021 C 
ATOM     18  C   UNL     1      -8.091  -9.170  17.362  0.00  0.00    +0.021 C 
BRANCH  16  23
ATOM     23  C   UNL     1     -10.585  -9.519  17.506  0.00  0.00    +0.159 C 
BRANCH  23   2
ATOM      2  O   UNL     1     -10.468  -9.331  18.905  0.00  0.00    -0.395 OA
ATOM     29  H   UNL     1     -11.154  -9.876  19.326  0.00  0.00    +0.209 HD
ENDBRANCH  23   2
ENDBRANCH  16  23
ENDBRANCH  10   3
ENDBRANCH   7  10
BRANCH   9  19
ATOM     19  C   UNL     1      -1.636 -12.552  13.244  0.00  0.00    +0.105 C 
BRANCH  19  24
ATOM      1  O   UNL     1      -3.043 -11.860  11.372  0.00  0.00    -0.425 OA
ATOM      4  N   UNL     1      -1.744 -10.233  12.192  0.00  0.00    -0.112 NA
ATOM      5  N   UNL     1      -2.481  -9.707  11.148  0.00  0.00    -0.112 NA
ATOM     24  C   UNL     1      -2.105 -11.492  12.288  0.00  0.00    +0.218 A 
ATOM     25  C   UNL     1      -3.224 -10.691  10.699  0.00  0.00    +0.217 A 
BRANCH  25  26
ATOM     26  C   UNL     1      -4.200 -10.702   9.603  0.00  0.00    +0.097 C 
BRANCH  26  27
ATOM     27  C   UNL     1      -4.403  -9.313   8.961  0.00  0.00    +0.006 C 
ATOM     28  C   UNL     1      -5.518  -8.517   9.620  0.00  0.00    +0.004 C 
ENDBRANCH  26  27
ENDBRANCH  25  26
ENDBRANCH  19  24
ENDBRANCH   9  19
TORSDOF 9
ENDMDL
