MODEL 1
REMARK VINA RESULT:      -6.0      0.000      0.000
REMARK  Name = 56775326
REMARK  5 active torsions:
REMARK  status: ('A' for Active; 'I' for Inactive)
REMARK    1  A    between atoms: O_5  and  C_17
REMARK    2  A    between atoms: O_5  and  C_19
REMARK    3  A    between atoms: N_7  and  C_14
REMARK    4  A    between atoms: N_8  and  C_18
REMARK    5  A    between atoms: C_14  and  C_17
REMARK                            x       y       z     vdW  Elec       q    Type
REMARK                         _______ _______ _______ _____ _____    ______ ____
ROOT
ATOM      2  O   UNL     1      11.138   8.072  19.408  0.00  0.00    -0.364 OA
ATOM      3  O   UNL     1      11.328   9.577  22.627  0.00  0.00    -0.273 OA
ATOM      4  O   UNL     1      13.440   8.488  15.326  0.00  0.00    -0.252 OA
ATOM      6  N   UNL     1      13.440   8.710  17.610  0.00  0.00    -0.281 N 
ATOM      7  N   UNL     1      13.064   8.908  21.230  0.00  0.00    -0.290 N 
ATOM      8  N   UNL     1      14.286  10.440  16.282  0.00  0.00    -0.269 N 
ATOM      9  C   UNL     1      13.467   8.340  19.950  0.00  0.00    +0.124 C 
ATOM     10  C   UNL     1      12.412   7.440  19.313  0.00  0.00    +0.158 C 
ATOM     11  C   UNL     1      13.702   9.402  18.872  0.00  0.00    +0.134 C 
ATOM     12  C   UNL     1      12.828   7.406  17.847  0.00  0.00    +0.143 C 
ATOM     13  C   UNL     1      11.730   8.991  21.621  0.00  0.00    +0.242 C 
ATOM     15  C   UNL     1      10.752   8.215  20.755  0.00  0.00    +0.256 C 
ATOM     16  C   UNL     1      13.709   9.171  16.316  0.00  0.00    +0.307 C 
ATOM     25  H   UNL     1      14.445  10.913  17.166  0.00  0.00    +0.156 HD
ENDROOT
BRANCH   8  18
ATOM      1  F   UNL     1      15.821  13.361  11.826  0.00  0.00    -0.205 F 
ATOM     18  C   UNL     1      14.679  11.187  15.144  0.00  0.00    +0.035 A 
ATOM     20  C   UNL     1      16.016  11.200  14.746  0.00  0.00    +0.026 A 
ATOM     21  C   UNL     1      13.729  11.907  14.420  0.00  0.00    +0.026 A 
ATOM     22  C   UNL     1      16.402  11.936  13.625  0.00  0.00    +0.040 A 
ATOM     23  C   UNL     1      14.115  12.642  13.300  0.00  0.00    +0.040 A 
ATOM     24  C   UNL     1      15.451  12.656  12.903  0.00  0.00    +0.124 A 
ENDBRANCH   8  18
BRANCH   7  14
ATOM     14  C   UNL     1      14.105   9.540  22.029  0.00  0.00    +0.136 C 
BRANCH  14  17
ATOM     17  C   UNL     1      15.363   8.692  22.075  0.00  0.00    +0.178 C 
BRANCH  17   5
ATOM      5  O   UNL     1      16.464   9.454  21.595  0.00  0.00    -0.381 OA
ATOM     19  C   UNL     1      17.636   8.660  21.476  0.00  0.00    +0.194 C 
ENDBRANCH  17   5
ENDBRANCH  14  17
ENDBRANCH   7  14
TORSDOF 4
ENDMDL
MODEL 2
REMARK VINA RESULT:      -5.7     12.179     14.780
REMARK  Name = 56775326
REMARK  5 active torsions:
REMARK  status: ('A' for Active; 'I' for Inactive)
REMARK    1  A    between atoms: O_5  and  C_17
REMARK    2  A    between atoms: O_5  and  C_19
REMARK    3  A    between atoms: N_7  and  C_14
REMARK    4  A    between atoms: N_8  and  C_18
REMARK    5  A    between atoms: C_14  and  C_17
REMARK                            x       y       z     vdW  Elec       q    Type
REMARK                         _______ _______ _______ _____ _____    ______ ____
ROOT
ATOM      2  O   UNL     1       9.315   8.653   4.956  0.00  0.00    -0.364 OA
ATOM      3  O   UNL     1       9.969   8.821   8.450  0.00  0.00    -0.273 OA
ATOM      4  O   UNL     1      10.980   6.196   1.305  0.00  0.00    -0.252 OA
ATOM      6  N   UNL     1      10.617   6.348   3.567  0.00  0.00    -0.281 N 
ATOM      7  N   UNL     1       9.854   6.943   7.081  0.00  0.00    -0.290 N 
ATOM      8  N   UNL     1      12.703   5.642   2.777  0.00  0.00    -0.269 N 
ATOM      9  C   UNL     1       9.672   6.406   5.739  0.00  0.00    +0.124 C 
ATOM     10  C   UNL     1       8.860   7.310   4.815  0.00  0.00    +0.158 C 
ATOM     11  C   UNL     1      10.991   6.240   4.976  0.00  0.00    +0.134 C 
ATOM     12  C   UNL     1       9.240   6.813   3.426  0.00  0.00    +0.143 C 
ATOM     13  C   UNL     1       9.700   8.298   7.368  0.00  0.00    +0.242 C 
ATOM     15  C   UNL     1       9.073   9.127   6.261  0.00  0.00    +0.256 C 
ATOM     16  C   UNL     1      11.414   6.065   2.452  0.00  0.00    +0.307 C 
ATOM     25  H   UNL     1      12.951   5.590   3.760  0.00  0.00    +0.156 HD
ENDROOT
BRANCH   8  18
ATOM      1  F   UNL     1      16.797   4.222  -0.682  0.00  0.00    -0.205 F 
ATOM     18  C   UNL     1      13.748   5.279   1.894  0.00  0.00    +0.035 A 
ATOM     20  C   UNL     1      14.453   6.267   1.204  0.00  0.00    +0.026 A 
ATOM     21  C   UNL     1      14.075   3.936   1.714  0.00  0.00    +0.026 A 
ATOM     22  C   UNL     1      15.482   5.910   0.333  0.00  0.00    +0.040 A 
ATOM     23  C   UNL     1      15.105   3.578   0.843  0.00  0.00    +0.040 A 
ATOM     24  C   UNL     1      15.808   4.565   0.153  0.00  0.00    +0.124 A 
ENDBRANCH   8  18
BRANCH   7  14
ATOM     14  C   UNL     1      10.366   6.031   8.093  0.00  0.00    +0.136 C 
BRANCH  14  17
ATOM     17  C   UNL     1       9.793   4.635   7.927  0.00  0.00    +0.178 C 
BRANCH  17   5
ATOM      5  O   UNL     1       9.785   3.974   9.185  0.00  0.00    -0.381 OA
ATOM     19  C   UNL     1       9.044   4.703  10.153  0.00  0.00    +0.194 C 
ENDBRANCH  17   5
ENDBRANCH  14  17
ENDBRANCH   7  14
TORSDOF 4
ENDMDL
MODEL 3
REMARK VINA RESULT:      -5.7     27.199     28.510
REMARK  Name = 56775326
REMARK  5 active torsions:
REMARK  status: ('A' for Active; 'I' for Inactive)
REMARK    1  A    between atoms: O_5  and  C_17
REMARK    2  A    between atoms: O_5  and  C_19
REMARK    3  A    between atoms: N_7  and  C_14
REMARK    4  A    between atoms: N_8  and  C_18
REMARK    5  A    between atoms: C_14  and  C_17
REMARK                            x       y       z     vdW  Elec       q    Type
REMARK                         _______ _______ _______ _____ _____    ______ ____
ROOT
ATOM      2  O   UNL     1      -4.372 -12.474  17.051  0.00  0.00    -0.364 OA
ATOM      3  O   UNL     1      -7.445 -12.224  18.829  0.00  0.00    -0.273 OA
ATOM      4  O   UNL     1      -2.641 -10.795  13.012  0.00  0.00    -0.252 OA
ATOM      6  N   UNL     1      -4.116 -10.575  14.757  0.00  0.00    -0.281 N 
ATOM      7  N   UNL     1      -6.287 -10.561  17.684  0.00  0.00    -0.290 N 
ATOM      8  N   UNL     1      -4.867 -10.259  12.564  0.00  0.00    -0.269 N 
ATOM      9  C   UNL     1      -5.140 -10.203  16.860  0.00  0.00    +0.124 C 
ATOM     10  C   UNL     1      -3.933 -11.118  17.046  0.00  0.00    +0.158 C 
ATOM     11  C   UNL     1      -5.423 -10.316  15.359  0.00  0.00    +0.134 C 
ATOM     12  C   UNL     1      -3.120 -10.877  15.781  0.00  0.00    +0.143 C 
ATOM     13  C   UNL     1      -6.437 -11.830  18.239  0.00  0.00    +0.242 C 
ATOM     15  C   UNL     1      -5.211 -12.723  18.155  0.00  0.00    +0.256 C 
ATOM     16  C   UNL     1      -3.788 -10.557  13.396  0.00  0.00    +0.307 C 
ATOM     25  H   UNL     1      -5.770 -10.099  12.998  0.00  0.00    +0.156 HD
ENDROOT
BRANCH   8  18
ATOM      1  F   UNL     1      -4.896  -9.877   7.032  0.00  0.00    -0.205 F 
ATOM     18  C   UNL     1      -4.874 -10.162  11.151  0.00  0.00    +0.035 A 
ATOM     20  C   UNL     1      -5.463 -11.169  10.385  0.00  0.00    +0.026 A 
ATOM     21  C   UNL     1      -4.295  -9.059  10.525  0.00  0.00    +0.026 A 
ATOM     22  C   UNL     1      -5.469 -11.073   8.994  0.00  0.00    +0.040 A 
ATOM     23  C   UNL     1      -4.301  -8.963   9.133  0.00  0.00    +0.040 A 
ATOM     24  C   UNL     1      -4.889  -9.970   8.368  0.00  0.00    +0.124 A 
ENDBRANCH   8  18
BRANCH   7  14
ATOM     14  C   UNL     1      -7.364  -9.586  17.778  0.00  0.00    +0.136 C 
BRANCH  14  17
ATOM     17  C   UNL     1      -8.479  -9.891  16.794  0.00  0.00    +0.178 C 
BRANCH  17   5
ATOM      5  O   UNL     1      -8.949  -8.677  16.222  0.00  0.00    -0.381 OA
ATOM     19  C   UNL     1      -9.785  -7.964  17.123  0.00  0.00    +0.194 C 
ENDBRANCH  17   5
ENDBRANCH  14  17
ENDBRANCH   7  14
TORSDOF 4
ENDMDL
MODEL 4
REMARK VINA RESULT:      -5.5     26.890     29.350
REMARK  Name = 56775326
REMARK  5 active torsions:
REMARK  status: ('A' for Active; 'I' for Inactive)
REMARK    1  A    between atoms: O_5  and  C_17
REMARK    2  A    between atoms: O_5  and  C_19
REMARK    3  A    between atoms: N_7  and  C_14
REMARK    4  A    between atoms: N_8  and  C_18
REMARK    5  A    between atoms: C_14  and  C_17
REMARK                            x       y       z     vdW  Elec       q    Type
REMARK                         _______ _______ _______ _____ _____    ______ ____
ROOT
ATOM      2  O   UNL     1      -3.179  -9.191  10.851  0.00  0.00    -0.364 OA
ATOM      3  O   UNL     1      -5.587 -10.120   8.401  0.00  0.00    -0.273 OA
ATOM      4  O   UNL     1      -2.300 -10.298  15.338  0.00  0.00    -0.252 OA
ATOM      6  N   UNL     1      -3.205 -10.887  13.313  0.00  0.00    -0.281 N 
ATOM      7  N   UNL     1      -4.499 -11.468   9.955  0.00  0.00    -0.290 N 
ATOM      8  N   UNL     1      -4.437 -11.232  15.272  0.00  0.00    -0.269 N 
ATOM      9  C   UNL     1      -3.563 -11.556  11.068  0.00  0.00    +0.124 C 
ATOM     10  C   UNL     1      -2.528 -10.435  11.098  0.00  0.00    +0.158 C 
ATOM     11  C   UNL     1      -4.243 -11.424  12.434  0.00  0.00    +0.134 C 
ATOM     12  C   UNL     1      -2.044 -10.450  12.543  0.00  0.00    +0.143 C 
ATOM     13  C   UNL     1      -4.717 -10.281   9.258  0.00  0.00    +0.242 C 
ATOM     15  C   UNL     1      -3.730  -9.165   9.554  0.00  0.00    +0.256 C 
ATOM     16  C   UNL     1      -3.247 -10.773  14.707  0.00  0.00    +0.307 C 
ATOM     25  H   UNL     1      -5.153 -11.585  14.646  0.00  0.00    +0.156 HD
ENDROOT
BRANCH   8  18
ATOM      1  F   UNL     1      -5.845 -11.334  20.634  0.00  0.00    -0.205 F 
ATOM     18  C   UNL     1      -4.796 -11.257  16.641  0.00  0.00    +0.035 A 
ATOM     20  C   UNL     1      -5.699 -10.319  17.143  0.00  0.00    +0.026 A 
ATOM     21  C   UNL     1      -4.250 -12.221  17.488  0.00  0.00    +0.026 A 
ATOM     22  C   UNL     1      -6.053 -10.344  18.492  0.00  0.00    +0.040 A 
ATOM     23  C   UNL     1      -4.604 -12.246  18.837  0.00  0.00    +0.040 A 
ATOM     24  C   UNL     1      -5.505 -11.308  19.338  0.00  0.00    +0.124 A 
ENDBRANCH   8  18
BRANCH   7  14
ATOM     14  C   UNL     1      -5.327 -12.637   9.694  0.00  0.00    +0.136 C 
BRANCH  14  17
ATOM     17  C   UNL     1      -4.637 -13.610   8.756  0.00  0.00    +0.178 C 
BRANCH  17   5
ATOM      5  O   UNL     1      -5.033 -13.337   7.418  0.00  0.00    -0.381 OA
ATOM     19  C   UNL     1      -3.926 -12.950   6.615  0.00  0.00    +0.194 C 
ENDBRANCH  17   5
ENDBRANCH  14  17
ENDBRANCH   7  14
TORSDOF 4
ENDMDL
MODEL 5
REMARK VINA RESULT:      -5.4      1.623      2.174
REMARK  Name = 56775326
REMARK  5 active torsions:
REMARK  status: ('A' for Active; 'I' for Inactive)
REMARK    1  A    between atoms: O_5  and  C_17
REMARK    2  A    between atoms: O_5  and  C_19
REMARK    3  A    between atoms: N_7  and  C_14
REMARK    4  A    between atoms: N_8  and  C_18
REMARK    5  A    between atoms: C_14  and  C_17
REMARK                            x       y       z     vdW  Elec       q    Type
REMARK                         _______ _______ _______ _____ _____    ______ ____
ROOT
ATOM      2  O   UNL     1      11.422   7.916  19.190  0.00  0.00    -0.364 OA
ATOM      3  O   UNL     1      10.824   9.845  22.120  0.00  0.00    -0.273 OA
ATOM      4  O   UNL     1      13.912   8.438  15.232  0.00  0.00    -0.252 OA
ATOM      6  N   UNL     1      13.608   8.969  17.444  0.00  0.00    -0.281 N 
ATOM      7  N   UNL     1      12.816   9.551  20.954  0.00  0.00    -0.290 N 
ATOM      8  N   UNL     1      14.042  10.670  15.897  0.00  0.00    -0.269 N 
ATOM      9  C   UNL     1      13.499   8.960  19.811  0.00  0.00    +0.124 C 
ATOM     10  C   UNL     1      12.828   7.698  19.273  0.00  0.00    +0.158 C 
ATOM     11  C   UNL     1      13.522   9.879  18.586  0.00  0.00    +0.134 C 
ATOM     12  C   UNL     1      13.386   7.587  17.860  0.00  0.00    +0.143 C 
ATOM     13  C   UNL     1      11.483   9.274  21.249  0.00  0.00    +0.242 C 
ATOM     15  C   UNL     1      10.872   8.122  20.471  0.00  0.00    +0.256 C 
ATOM     16  C   UNL     1      13.864   9.303  16.109  0.00  0.00    +0.307 C 
ATOM     25  H   UNL     1      13.961  11.288  16.697  0.00  0.00    +0.156 HD
ENDROOT
BRANCH   8  18
ATOM      1  F   UNL     1      15.104  13.261  11.111  0.00  0.00    -0.205 F 
ATOM     18  C   UNL     1      14.313  11.332  14.675  0.00  0.00    +0.035 A 
ATOM     20  C   UNL     1      15.592  11.276  14.120  0.00  0.00    +0.026 A 
ATOM     21  C   UNL     1      13.302  12.039  14.024  0.00  0.00    +0.026 A 
ATOM     22  C   UNL     1      15.860  11.929  12.917  0.00  0.00    +0.040 A 
ATOM     23  C   UNL     1      13.569  12.691  12.821  0.00  0.00    +0.040 A 
ATOM     24  C   UNL     1      14.848  12.635  12.267  0.00  0.00    +0.124 A 
ENDBRANCH   8  18
BRANCH   7  14
ATOM     14  C   UNL     1      13.535  10.578  21.694  0.00  0.00    +0.136 C 
BRANCH  14  17
ATOM     17  C   UNL     1      13.237  11.966  21.156  0.00  0.00    +0.178 C 
BRANCH  17   5
ATOM      5  O   UNL     1      12.486  12.695  22.118  0.00  0.00    -0.381 OA
ATOM     19  C   UNL     1      11.311  13.254  21.548  0.00  0.00    +0.194 C 
ENDBRANCH  17   5
ENDBRANCH  14  17
ENDBRANCH   7  14
TORSDOF 4
ENDMDL
MODEL 6
REMARK VINA RESULT:      -5.3     26.536     29.295
REMARK  Name = 56775326
REMARK  5 active torsions:
REMARK  status: ('A' for Active; 'I' for Inactive)
REMARK    1  A    between atoms: O_5  and  C_17
REMARK    2  A    between atoms: O_5  and  C_19
REMARK    3  A    between atoms: N_7  and  C_14
REMARK    4  A    between atoms: N_8  and  C_18
REMARK    5  A    between atoms: C_14  and  C_17
REMARK                            x       y       z     vdW  Elec       q    Type
REMARK                         _______ _______ _______ _____ _____    ______ ____
ROOT
ATOM      2  O   UNL     1      -3.405 -10.940  16.759  0.00  0.00    -0.364 OA
ATOM      3  O   UNL     1      -1.093  -9.670  14.371  0.00  0.00    -0.273 OA
ATOM      4  O   UNL     1      -8.084 -11.027  17.240  0.00  0.00    -0.252 OA
ATOM      6  N   UNL     1      -6.255 -10.901  15.859  0.00  0.00    -0.281 N 
ATOM      7  N   UNL     1      -3.124 -10.744  14.001  0.00  0.00    -0.290 N 
ATOM      8  N   UNL     1      -8.044  -9.426  15.544  0.00  0.00    -0.269 N 
ATOM      9  C   UNL     1      -4.318 -11.352  14.572  0.00  0.00    +0.124 C 
ATOM     10  C   UNL     1      -4.120 -11.898  15.984  0.00  0.00    +0.158 C 
ATOM     11  C   UNL     1      -5.469 -10.358  14.752  0.00  0.00    +0.134 C 
ATOM     12  C   UNL     1      -5.543 -11.991  16.520  0.00  0.00    +0.143 C 
ATOM     13  C   UNL     1      -2.061 -10.307  14.788  0.00  0.00    +0.242 C 
ATOM     15  C   UNL     1      -2.109 -10.746  16.242  0.00  0.00    +0.256 C 
ATOM     16  C   UNL     1      -7.522 -10.485  16.287  0.00  0.00    +0.307 C 
ATOM     25  H   UNL     1      -7.477  -9.050  14.791  0.00  0.00    +0.156 HD
ENDROOT
BRANCH   8  18
ATOM      1  F   UNL     1     -12.924  -6.880  16.212  0.00  0.00    -0.205 F 
ATOM     18  C   UNL     1      -9.291  -8.776  15.715  0.00  0.00    +0.035 A 
ATOM     20  C   UNL     1      -9.516  -7.984  16.841  0.00  0.00    +0.026 A 
ATOM     21  C   UNL     1     -10.293  -8.926  14.757  0.00  0.00    +0.026 A 
ATOM     22  C   UNL     1     -10.744  -7.344  17.010  0.00  0.00    +0.040 A 
ATOM     23  C   UNL     1     -11.521  -8.287  14.926  0.00  0.00    +0.040 A 
ATOM     24  C   UNL     1     -11.745  -7.495  16.051  0.00  0.00    +0.124 A 
ENDBRANCH   8  18
BRANCH   7  14
ATOM     14  C   UNL     1      -3.147 -10.458  12.573  0.00  0.00    +0.136 C 
BRANCH  14  17
ATOM     17  C   UNL     1      -3.302 -11.726  11.753  0.00  0.00    +0.178 C 
BRANCH  17   5
ATOM      5  O   UNL     1      -4.224 -11.495  10.696  0.00  0.00    -0.381 OA
ATOM     19  C   UNL     1      -3.989 -12.369   9.600  0.00  0.00    +0.194 C 
ENDBRANCH  17   5
ENDBRANCH  14  17
ENDBRANCH   7  14
TORSDOF 4
ENDMDL
MODEL 7
REMARK VINA RESULT:      -5.2     29.445     31.826
REMARK  Name = 56775326
REMARK  5 active torsions:
REMARK  status: ('A' for Active; 'I' for Inactive)
REMARK    1  A    between atoms: O_5  and  C_17
REMARK    2  A    between atoms: O_5  and  C_19
REMARK    3  A    between atoms: N_7  and  C_14
REMARK    4  A    between atoms: N_8  and  C_18
REMARK    5  A    between atoms: C_14  and  C_17
REMARK                            x       y       z     vdW  Elec       q    Type
REMARK                         _______ _______ _______ _____ _____    ______ ____
ROOT
ATOM      2  O   UNL     1     -12.464   9.786  31.332  0.00  0.00    -0.364 OA
ATOM      3  O   UNL     1      -9.580  10.739  33.187  0.00  0.00    -0.273 OA
ATOM      4  O   UNL     1     -15.447   6.149  31.327  0.00  0.00    -0.252 OA
ATOM      6  N   UNL     1     -13.952   7.459  32.474  0.00  0.00    -0.281 N 
ATOM      7  N   UNL     1     -11.546   9.761  33.956  0.00  0.00    -0.290 N 
ATOM      8  N   UNL     1     -13.824   5.130  32.657  0.00  0.00    -0.269 N 
ATOM      9  C   UNL     1     -12.856   9.209  33.635  0.00  0.00    +0.124 C 
ATOM     10  C   UNL     1     -13.463   9.764  32.348  0.00  0.00    +0.158 C 
ATOM     11  C   UNL     1     -12.821   7.701  33.370  0.00  0.00    +0.134 C 
ATOM     12  C   UNL     1     -14.505   8.716  31.980  0.00  0.00    +0.143 C 
ATOM     13  C   UNL     1     -10.742  10.377  32.999  0.00  0.00    +0.242 C 
ATOM     15  C   UNL     1     -11.423  10.673  31.674  0.00  0.00    +0.256 C 
ATOM     16  C   UNL     1     -14.485   6.221  32.095  0.00  0.00    +0.307 C 
ATOM     25  H   UNL     1     -13.031   5.316  33.262  0.00  0.00    +0.156 HD
ENDROOT
BRANCH   8  18
ATOM      1  F   UNL     1     -14.943  -0.257  31.962  0.00  0.00    -0.205 F 
ATOM     18  C   UNL     1     -14.110   3.754  32.479  0.00  0.00    +0.035 A 
ATOM     20  C   UNL     1     -13.825   3.134  31.262  0.00  0.00    +0.026 A 
ATOM     21  C   UNL     1     -14.675   3.018  33.521  0.00  0.00    +0.026 A 
ATOM     22  C   UNL     1     -14.107   1.779  31.087  0.00  0.00    +0.040 A 
ATOM     23  C   UNL     1     -14.957   1.664  33.345  0.00  0.00    +0.040 A 
ATOM     24  C   UNL     1     -14.673   1.045  32.129  0.00  0.00    +0.124 A 
ENDBRANCH   8  18
BRANCH   7  14
ATOM     14  C   UNL     1     -11.031   9.503  35.293  0.00  0.00    +0.136 C 
BRANCH  14  17
ATOM     17  C   UNL     1     -12.020   9.926  36.363  0.00  0.00    +0.178 C 
BRANCH  17   5
ATOM      5  O   UNL     1     -12.257   8.838  37.247  0.00  0.00    -0.381 OA
ATOM     19  C   UNL     1     -11.398   7.741  36.964  0.00  0.00    +0.194 C 
ENDBRANCH  17   5
ENDBRANCH  14  17
ENDBRANCH   7  14
TORSDOF 4
ENDMDL
MODEL 8
REMARK VINA RESULT:      -5.2     30.814     34.734
REMARK  Name = 56775326
REMARK  5 active torsions:
REMARK  status: ('A' for Active; 'I' for Inactive)
REMARK    1  A    between atoms: O_5  and  C_17
REMARK    2  A    between atoms: O_5  and  C_19
REMARK    3  A    between atoms: N_7  and  C_14
REMARK    4  A    between atoms: N_8  and  C_18
REMARK    5  A    between atoms: C_14  and  C_17
REMARK                            x       y       z     vdW  Elec       q    Type
REMARK                         _______ _______ _______ _____ _____    ______ ____
ROOT
ATOM      2  O   UNL     1      -5.692  -9.137  40.735  0.00  0.00    -0.364 OA
ATOM      3  O   UNL     1      -2.617  -8.324  42.330  0.00  0.00    -0.273 OA
ATOM      4  O   UNL     1      -9.427  -6.756  39.149  0.00  0.00    -0.252 OA
ATOM      6  N   UNL     1      -7.193  -6.780  39.672  0.00  0.00    -0.281 N 
ATOM      7  N   UNL     1      -3.692  -7.212  40.591  0.00  0.00    -0.290 N 
ATOM      8  N   UNL     1      -8.528  -4.998  40.391  0.00  0.00    -0.269 N 
ATOM      9  C   UNL     1      -4.850  -7.130  39.710  0.00  0.00    +0.124 C 
ATOM     10  C   UNL     1      -5.553  -8.467  39.485  0.00  0.00    +0.158 C 
ATOM     11  C   UNL     1      -5.969  -6.249  40.273  0.00  0.00    +0.134 C 
ATOM     12  C   UNL     1      -6.936  -8.051  39.001  0.00  0.00    +0.143 C 
ATOM     13  C   UNL     1      -3.503  -8.272  41.475  0.00  0.00    +0.242 C 
ATOM     15  C   UNL     1      -4.430  -9.458  41.274  0.00  0.00    +0.256 C 
ATOM     16  C   UNL     1      -8.470  -6.206  39.697  0.00  0.00    +0.307 C 
ATOM     25  H   UNL     1      -7.673  -4.654  40.816  0.00  0.00    +0.156 HD
ENDROOT
BRANCH   8  18
ATOM      1  F   UNL     1     -12.950  -1.755  41.210  0.00  0.00    -0.205 F 
ATOM     18  C   UNL     1      -9.657  -4.169  40.600  0.00  0.00    +0.035 A 
ATOM     20  C   UNL     1      -9.861  -3.050  39.792  0.00  0.00    +0.026 A 
ATOM     21  C   UNL     1     -10.567  -4.473  41.612  0.00  0.00    +0.026 A 
ATOM     22  C   UNL     1     -10.972  -2.234  39.999  0.00  0.00    +0.040 A 
ATOM     23  C   UNL     1     -11.679  -3.657  41.819  0.00  0.00    +0.040 A 
ATOM     24  C   UNL     1     -11.882  -2.538  41.012  0.00  0.00    +0.124 A 
ENDBRANCH   8  18
BRANCH   7  14
ATOM     14  C   UNL     1      -2.809  -6.055  40.631  0.00  0.00    +0.136 C 
BRANCH  14  17
ATOM     17  C   UNL     1      -2.593  -5.471  39.246  0.00  0.00    +0.178 C 
BRANCH  17   5
ATOM      5  O   UNL     1      -1.330  -5.891  38.749  0.00  0.00    -0.381 OA
ATOM     19  C   UNL     1      -1.267  -5.791  37.332  0.00  0.00    +0.194 C 
ENDBRANCH  17   5
ENDBRANCH  14  17
ENDBRANCH   7  14
TORSDOF 4
ENDMDL
MODEL 9
REMARK VINA RESULT:      -5.1     27.309     29.851
REMARK  Name = 56775326
REMARK  5 active torsions:
REMARK  status: ('A' for Active; 'I' for Inactive)
REMARK    1  A    between atoms: O_5  and  C_17
REMARK    2  A    between atoms: O_5  and  C_19
REMARK    3  A    between atoms: N_7  and  C_14
REMARK    4  A    between atoms: N_8  and  C_18
REMARK    5  A    between atoms: C_14  and  C_17
REMARK                            x       y       z     vdW  Elec       q    Type
REMARK                         _______ _______ _______ _____ _____    ______ ____
ROOT
ATOM      2  O   UNL     1     -10.643 -10.976  17.437  0.00  0.00    -0.364 OA
ATOM      3  O   UNL     1     -12.660  -9.065  15.213  0.00  0.00    -0.273 OA
ATOM      4  O   UNL     1      -6.036 -11.566  18.185  0.00  0.00    -0.252 OA
ATOM      6  N   UNL     1      -7.746 -10.241  17.416  0.00  0.00    -0.281 N 
ATOM      7  N   UNL     1     -10.714  -8.431  16.321  0.00  0.00    -0.290 N 
ATOM      8  N   UNL     1      -5.813 -10.497  16.123  0.00  0.00    -0.269 N 
ATOM      9  C   UNL     1      -9.623  -8.810  17.208  0.00  0.00    +0.124 C 
ATOM     10  C   UNL     1      -9.967  -9.952  18.161  0.00  0.00    +0.158 C 
ATOM     11  C   UNL     1      -8.401  -9.351  16.459  0.00  0.00    +0.134 C 
ATOM     12  C   UNL     1      -8.599 -10.477  18.578  0.00  0.00    +0.143 C 
ATOM     13  C   UNL     1     -11.785  -9.281  16.053  0.00  0.00    +0.242 C 
ATOM     15  C   UNL     1     -11.878 -10.507  16.944  0.00  0.00    +0.256 C 
ATOM     16  C   UNL     1      -6.480 -10.827  17.303  0.00  0.00    +0.307 C 
ATOM     25  H   UNL     1      -6.290  -9.892  15.463  0.00  0.00    +0.156 HD
ENDROOT
BRANCH   8  18
ATOM      1  F   UNL     1      -0.779 -12.147  14.485  0.00  0.00    -0.205 F 
ATOM     18  C   UNL     1      -4.527 -10.918  15.705  0.00  0.00    +0.035 A 
ATOM     20  C   UNL     1      -3.392 -10.475  16.385  0.00  0.00    +0.026 A 
ATOM     21  C   UNL     1      -4.395 -11.777  14.614  0.00  0.00    +0.026 A 
ATOM     22  C   UNL     1      -2.126 -10.889  15.972  0.00  0.00    +0.040 A 
ATOM     23  C   UNL     1      -3.129 -12.191  14.201  0.00  0.00    +0.040 A 
ATOM     24  C   UNL     1      -1.995 -11.748  14.881  0.00  0.00    +0.124 A 
ENDBRANCH   8  18
BRANCH   7  14
ATOM     14  C   UNL     1     -10.566  -7.181  15.588  0.00  0.00    +0.136 C 
BRANCH  14  17
ATOM     17  C   UNL     1     -11.324  -6.050  16.258  0.00  0.00    +0.178 C 
BRANCH  17   5
ATOM      5  O   UNL     1     -12.527  -5.798  15.543  0.00  0.00    -0.381 OA
ATOM     19  C   UNL     1     -12.268  -5.489  14.180  0.00  0.00    +0.194 C 
ENDBRANCH  17   5
ENDBRANCH  14  17
ENDBRANCH   7  14
TORSDOF 4
ENDMDL
MODEL 10
REMARK VINA RESULT:      -5.0     27.995     30.164
REMARK  Name = 56775326
REMARK  5 active torsions:
REMARK  status: ('A' for Active; 'I' for Inactive)
REMARK    1  A    between atoms: O_5  and  C_17
REMARK    2  A    between atoms: O_5  and  C_19
REMARK    3  A    between atoms: N_7  and  C_14
REMARK    4  A    between atoms: N_8  and  C_18
REMARK    5  A    between atoms: C_14  and  C_17
REMARK                            x       y       z     vdW  Elec       q    Type
REMARK                         _______ _______ _______ _____ _____    ______ ____
ROOT
ATOM      2  O   UNL     1      -7.420 -10.784   6.903  0.00  0.00    -0.364 OA
ATOM      3  O   UNL     1      -5.681 -12.536   9.468  0.00  0.00    -0.273 OA
ATOM      4  O   UNL     1      -9.593  -6.631   6.503  0.00  0.00    -0.252 OA
ATOM      6  N   UNL     1      -8.007  -7.924   7.543  0.00  0.00    -0.281 N 
ATOM      7  N   UNL     1      -5.592 -10.272   8.935  0.00  0.00    -0.290 N 
ATOM      8  N   UNL     1      -9.449  -6.606   8.831  0.00  0.00    -0.269 N 
ATOM      9  C   UNL     1      -6.079  -9.184   8.098  0.00  0.00    +0.124 C 
ATOM     10  C   UNL     1      -6.596  -9.634   6.734  0.00  0.00    +0.158 C 
ATOM     11  C   UNL     1      -7.290  -8.463   8.698  0.00  0.00    +0.134 C 
ATOM     12  C   UNL     1      -7.475  -8.468   6.297  0.00  0.00    +0.143 C 
ATOM     13  C   UNL     1      -5.956 -11.599   8.716  0.00  0.00    +0.242 C 
ATOM     15  C   UNL     1      -6.668 -11.868   7.401  0.00  0.00    +0.256 C 
ATOM     16  C   UNL     1      -9.068  -7.011   7.552  0.00  0.00    +0.307 C 
ATOM     25  H   UNL     1      -8.952  -7.004   9.622  0.00  0.00    +0.156 HD
ENDROOT
BRANCH   8  18
ATOM      1  F   UNL     1     -13.476  -3.057  10.220  0.00  0.00    -0.205 F 
ATOM     18  C   UNL     1     -10.477  -5.700   9.186  0.00  0.00    +0.035 A 
ATOM     20  C   UNL     1     -10.334  -4.339   8.911  0.00  0.00    +0.026 A 
ATOM     21  C   UNL     1     -11.634  -6.166   9.810  0.00  0.00    +0.026 A 
ATOM     22  C   UNL     1     -11.347  -3.446   9.261  0.00  0.00    +0.040 A 
ATOM     23  C   UNL     1     -12.647  -5.273  10.160  0.00  0.00    +0.040 A 
ATOM     24  C   UNL     1     -12.503  -3.914   9.885  0.00  0.00    +0.124 A 
ENDBRANCH   8  18
BRANCH   7  14
ATOM     14  C   UNL     1      -4.831  -9.905  10.120  0.00  0.00    +0.136 C 
BRANCH  14  17
ATOM     17  C   UNL     1      -3.533  -9.207   9.754  0.00  0.00    +0.178 C 
BRANCH  17   5
ATOM      5  O   UNL     1      -2.531  -9.546  10.704  0.00  0.00    -0.381 OA
ATOM     19  C   UNL     1      -2.790 -10.805  11.310  0.00  0.00    +0.194 C 
ENDBRANCH  17   5
ENDBRANCH  14  17
ENDBRANCH   7  14
TORSDOF 4
ENDMDL
