MODEL 1
REMARK VINA RESULT:      -7.3      0.000      0.000
REMARK  Name = 26743432
REMARK  12 active torsions:
REMARK  status: ('A' for Active; 'I' for Inactive)
REMARK    1  A    between atoms: O_2  and  C_27
REMARK    2  A    between atoms: O_2  and  C_28
REMARK    3  A    between atoms: N_3  and  C_15
REMARK    4  A    between atoms: N_4  and  C_8
REMARK    5  A    between atoms: C_6  and  C_9
REMARK    6  A    between atoms: C_12  and  C_16
REMARK    7  A    between atoms: C_13  and  C_18
REMARK    8  A    between atoms: C_14  and  C_17
REMARK    9  A    between atoms: C_14  and  C_24
REMARK   10  A    between atoms: C_14  and  C_25
REMARK   11  A    between atoms: C_14  and  C_26
REMARK   12  A    between atoms: C_19  and  C_27
REMARK                            x       y       z     vdW  Elec       q    Type
REMARK                         _______ _______ _______ _____ _____    ______ ____
ROOT
ATOM      3  N   UNL     1      20.408   6.456  21.218  0.00  0.00    -0.236 N 
ATOM      5  N   UNL     1      20.520   7.618  21.882  0.00  0.00    -0.171 NA
ATOM      9  C   UNL     1      18.470   7.411  20.896  0.00  0.00    +0.003 A 
ATOM     12  C   UNL     1      19.200   6.282  20.610  0.00  0.00    +0.046 A 
ATOM     13  C   UNL     1      19.333   8.197  21.682  0.00  0.00    +0.064 A 
ATOM     16  C   UNL     1      18.853   5.081  19.823  0.00  0.00    +0.066 C 
ATOM     18  C   UNL     1      19.065   9.522  22.268  0.00  0.00    +0.068 C 
ENDROOT
BRANCH   3  15
ATOM     15  C   UNL     1      21.479   5.562  21.202  0.00  0.00    +0.066 A 
ATOM     17  C   UNL     1      23.624   3.779  21.176  0.00  0.00    -0.042 A 
ATOM     20  C   UNL     1      21.500   4.482  22.085  0.00  0.00    +0.028 A 
ATOM     21  C   UNL     1      22.532   5.751  20.306  0.00  0.00    +0.028 A 
ATOM     22  C   UNL     1      22.572   3.590  22.072  0.00  0.00    +0.006 A 
ATOM     23  C   UNL     1      23.604   4.859  20.293  0.00  0.00    +0.006 A 
BRANCH  17  14
ATOM     14  C   UNL     1      24.770   2.825  21.160  0.00  0.00    -0.013 C 
ATOM     24  C   UNL     1      24.276   1.346  21.187  0.00  0.00    +0.015 C 
ATOM     25  C   UNL     1      25.696   3.033  22.399  0.00  0.00    +0.015 C 
ATOM     26  C   UNL     1      25.712   2.926  19.915  0.00  0.00    +0.015 C 
ENDBRANCH  17  14
ENDBRANCH   3  15
BRANCH   9   6
ATOM      6  C   UNL     1      17.058   7.731  20.463  0.00  0.00    +0.047 C 
ATOM      7  C   UNL     1      16.476   6.701  19.471  0.00  0.00    +0.039 C 
ATOM      8  C   UNL     1      14.980   6.607  19.797  0.00  0.00    +0.097 C 
ATOM     10  C   UNL     1      16.043   7.723  21.569  0.00  0.00    -0.021 C 
ATOM     11  C   UNL     1      14.912   7.113  21.200  0.00  0.00    -0.009 C 
BRANCH   8   4
ATOM      1  O   UNL     1      12.109   6.498  19.449  0.00  0.00    -0.273 OA
ATOM      4  N   UNL     1      14.173   7.449  18.952  0.00  0.00    -0.307 N 
ATOM     19  C   UNL     1      12.793   7.322  18.847  0.00  0.00    +0.239 C 
ATOM     29  H   UNL     1      14.640   8.144  18.375  0.00  0.00    +0.149 HD
BRANCH  19  27
ATOM     27  C   UNL     1      12.202   8.335  17.891  0.00  0.00    +0.255 C 
BRANCH  27   2
ATOM      2  O   UNL     1      11.350   7.703  16.959  0.00  0.00    -0.374 OA
ATOM     28  C   UNL     1      10.533   8.641  16.266  0.00  0.00    +0.194 C 
ENDBRANCH  27   2
ENDBRANCH  19  27
ENDBRANCH   8   4
ENDBRANCH   9   6
TORSDOF 6
ENDMDL
MODEL 2
REMARK VINA RESULT:      -6.7     27.908     32.396
REMARK  Name = 26743432
REMARK  12 active torsions:
REMARK  status: ('A' for Active; 'I' for Inactive)
REMARK    1  A    between atoms: O_2  and  C_27
REMARK    2  A    between atoms: O_2  and  C_28
REMARK    3  A    between atoms: N_3  and  C_15
REMARK    4  A    between atoms: N_4  and  C_8
REMARK    5  A    between atoms: C_6  and  C_9
REMARK    6  A    between atoms: C_12  and  C_16
REMARK    7  A    between atoms: C_13  and  C_18
REMARK    8  A    between atoms: C_14  and  C_17
REMARK    9  A    between atoms: C_14  and  C_24
REMARK   10  A    between atoms: C_14  and  C_25
REMARK   11  A    between atoms: C_14  and  C_26
REMARK   12  A    between atoms: C_19  and  C_27
REMARK                            x       y       z     vdW  Elec       q    Type
REMARK                         _______ _______ _______ _____ _____    ______ ____
ROOT
ATOM      3  N   UNL     1      -7.317 -10.143  16.892  0.00  0.00    -0.236 N 
ATOM      5  N   UNL     1      -7.930  -8.955  16.759  0.00  0.00    -0.171 NA
ATOM      9  C   UNL     1      -9.214 -10.433  17.935  0.00  0.00    +0.003 A 
ATOM     12  C   UNL     1      -8.043 -11.063  17.589  0.00  0.00    +0.046 A 
ATOM     13  C   UNL     1      -9.088  -9.138  17.398  0.00  0.00    +0.064 A 
ATOM     16  C   UNL     1      -7.570 -12.436  17.856  0.00  0.00    +0.066 C 
ATOM     18  C   UNL     1     -10.059  -8.031  17.470  0.00  0.00    +0.068 C 
ENDROOT
BRANCH   3  15
ATOM     15  C   UNL     1      -6.051 -10.334  16.338  0.00  0.00    +0.066 A 
ATOM     17  C   UNL     1      -3.521 -10.723  15.230  0.00  0.00    -0.042 A 
ATOM     20  C   UNL     1      -5.912 -10.515  14.962  0.00  0.00    +0.028 A 
ATOM     21  C   UNL     1      -4.924 -10.349  17.160  0.00  0.00    +0.028 A 
ATOM     22  C   UNL     1      -4.647 -10.709  14.407  0.00  0.00    +0.006 A 
ATOM     23  C   UNL     1      -3.659 -10.543  16.606  0.00  0.00    +0.006 A 
BRANCH  17  14
ATOM     14  C   UNL     1      -2.167 -10.930  14.638  0.00  0.00    -0.013 C 
ATOM     24  C   UNL     1      -1.877 -12.444  14.403  0.00  0.00    +0.015 C 
ATOM     25  C   UNL     1      -1.049 -10.376  15.575  0.00  0.00    +0.015 C 
ATOM     26  C   UNL     1      -1.928 -10.241  13.253  0.00  0.00    +0.015 C 
ENDBRANCH  17  14
ENDBRANCH   3  15
BRANCH   9   6
ATOM      6  C   UNL     1     -10.374 -11.005  18.717  0.00  0.00    +0.047 C 
ATOM      7  C   UNL     1     -10.611 -10.293  20.065  0.00  0.00    +0.039 C 
ATOM      8  C   UNL     1     -12.129 -10.308  20.285  0.00  0.00    +0.097 C 
ATOM     10  C   UNL     1     -11.710 -10.875  18.044  0.00  0.00    -0.021 C 
ATOM     11  C   UNL     1     -12.663 -10.499  18.903  0.00  0.00    -0.009 C 
BRANCH   8   4
ATOM      1  O   UNL     1     -14.722 -10.647  21.524  0.00  0.00    -0.273 OA
ATOM      4  N   UNL     1     -12.560 -11.402  21.114  0.00  0.00    -0.307 N 
ATOM     19  C   UNL     1     -13.832 -11.481  21.669  0.00  0.00    +0.239 C 
ATOM     29  H   UNL     1     -11.890 -12.135  21.334  0.00  0.00    +0.149 HD
BRANCH  19  27
ATOM     27  C   UNL     1     -14.013 -12.737  22.493  0.00  0.00    +0.255 C 
BRANCH  27   2
ATOM      2  O   UNL     1     -13.508 -12.555  23.799  0.00  0.00    -0.374 OA
ATOM     28  C   UNL     1     -14.547 -12.313  24.742  0.00  0.00    +0.194 C 
ENDBRANCH  27   2
ENDBRANCH  19  27
ENDBRANCH   8   4
ENDBRANCH   9   6
TORSDOF 6
ENDMDL
MODEL 3
REMARK VINA RESULT:      -6.5     34.106     36.087
REMARK  Name = 26743432
REMARK  12 active torsions:
REMARK  status: ('A' for Active; 'I' for Inactive)
REMARK    1  A    between atoms: O_2  and  C_27
REMARK    2  A    between atoms: O_2  and  C_28
REMARK    3  A    between atoms: N_3  and  C_15
REMARK    4  A    between atoms: N_4  and  C_8
REMARK    5  A    between atoms: C_6  and  C_9
REMARK    6  A    between atoms: C_12  and  C_16
REMARK    7  A    between atoms: C_13  and  C_18
REMARK    8  A    between atoms: C_14  and  C_17
REMARK    9  A    between atoms: C_14  and  C_24
REMARK   10  A    between atoms: C_14  and  C_25
REMARK   11  A    between atoms: C_14  and  C_26
REMARK   12  A    between atoms: C_19  and  C_27
REMARK                            x       y       z     vdW  Elec       q    Type
REMARK                         _______ _______ _______ _____ _____    ______ ____
ROOT
ATOM      3  N   UNL     1     -15.228   5.427  33.381  0.00  0.00    -0.236 N 
ATOM      5  N   UNL     1     -16.554   5.584  33.530  0.00  0.00    -0.171 NA
ATOM      9  C   UNL     1     -16.068   4.042  31.915  0.00  0.00    +0.003 A 
ATOM     12  C   UNL     1     -14.884   4.516  32.427  0.00  0.00    +0.046 A 
ATOM     13  C   UNL     1     -17.062   4.735  32.632  0.00  0.00    +0.064 A 
ATOM     16  C   UNL     1     -13.485   4.183  32.090  0.00  0.00    +0.066 C 
ATOM     18  C   UNL     1     -18.524   4.619  32.491  0.00  0.00    +0.068 C 
ENDROOT
BRANCH   3  15
ATOM     15  C   UNL     1     -14.351   6.170  34.172  0.00  0.00    +0.066 A 
ATOM     17  C   UNL     1     -12.592   7.652  35.750  0.00  0.00    -0.042 A 
ATOM     20  C   UNL     1     -13.888   7.408  33.727  0.00  0.00    +0.028 A 
ATOM     21  C   UNL     1     -13.933   5.672  35.406  0.00  0.00    +0.028 A 
ATOM     22  C   UNL     1     -13.009   8.150  34.516  0.00  0.00    +0.006 A 
ATOM     23  C   UNL     1     -13.054   6.414  36.195  0.00  0.00    +0.006 A 
BRANCH  17  14
ATOM     14  C   UNL     1     -11.653   8.445  36.595  0.00  0.00    -0.013 C 
ATOM     24  C   UNL     1     -10.744   7.515  37.457  0.00  0.00    +0.015 C 
ATOM     25  C   UNL     1     -12.426   9.384  37.572  0.00  0.00    +0.015 C 
ATOM     26  C   UNL     1     -10.670   9.378  35.813  0.00  0.00    +0.015 C 
ENDBRANCH  17  14
ENDBRANCH   3  15
BRANCH   9   6
ATOM      6  C   UNL     1     -16.257   3.011  30.827  0.00  0.00    +0.047 C 
ATOM      7  C   UNL     1     -15.947   3.550  29.415  0.00  0.00    +0.039 C 
ATOM      8  C   UNL     1     -15.339   2.373  28.642  0.00  0.00    +0.097 C 
ATOM     10  C   UNL     1     -15.346   1.821  30.925  0.00  0.00    -0.021 C 
ATOM     11  C   UNL     1     -14.852   1.475  29.732  0.00  0.00    -0.009 C 
BRANCH   8   4
ATOM      1  O   UNL     1     -16.035   2.875  25.879  0.00  0.00    -0.273 OA
ATOM      4  N   UNL     1     -16.310   1.668  27.848  0.00  0.00    -0.307 N 
ATOM     19  C   UNL     1     -16.580   1.981  26.521  0.00  0.00    +0.239 C 
ATOM     29  H   UNL     1     -16.852   0.930  28.290  0.00  0.00    +0.149 HD
BRANCH  19  27
ATOM     27  C   UNL     1     -17.642   1.080  25.931  0.00  0.00    +0.255 C 
BRANCH  27   2
ATOM      2  O   UNL     1     -17.170   0.456  24.756  0.00  0.00    -0.374 OA
ATOM     28  C   UNL     1     -18.224  -0.159  24.021  0.00  0.00    +0.194 C 
ENDBRANCH  27   2
ENDBRANCH  19  27
ENDBRANCH   8   4
ENDBRANCH   9   6
TORSDOF 6
ENDMDL
MODEL 4
REMARK VINA RESULT:      -6.5      2.817      3.761
REMARK  Name = 26743432
REMARK  12 active torsions:
REMARK  status: ('A' for Active; 'I' for Inactive)
REMARK    1  A    between atoms: O_2  and  C_27
REMARK    2  A    between atoms: O_2  and  C_28
REMARK    3  A    between atoms: N_3  and  C_15
REMARK    4  A    between atoms: N_4  and  C_8
REMARK    5  A    between atoms: C_6  and  C_9
REMARK    6  A    between atoms: C_12  and  C_16
REMARK    7  A    between atoms: C_13  and  C_18
REMARK    8  A    between atoms: C_14  and  C_17
REMARK    9  A    between atoms: C_14  and  C_24
REMARK   10  A    between atoms: C_14  and  C_25
REMARK   11  A    between atoms: C_14  and  C_26
REMARK   12  A    between atoms: C_19  and  C_27
REMARK                            x       y       z     vdW  Elec       q    Type
REMARK                         _______ _______ _______ _____ _____    ______ ____
ROOT
ATOM      3  N   UNL     1      19.418   5.816  20.539  0.00  0.00    -0.236 N 
ATOM      5  N   UNL     1      18.587   5.506  19.530  0.00  0.00    -0.171 NA
ATOM      9  C   UNL     1      17.666   7.062  20.925  0.00  0.00    +0.003 A 
ATOM     12  C   UNL     1      18.914   6.743  21.402  0.00  0.00    +0.046 A 
ATOM     13  C   UNL     1      17.519   6.270  19.770  0.00  0.00    +0.064 A 
ATOM     16  C   UNL     1      19.650   7.234  22.586  0.00  0.00    +0.066 C 
ATOM     18  C   UNL     1      16.364   6.208  18.858  0.00  0.00    +0.068 C 
ENDROOT
BRANCH   3  15
ATOM     15  C   UNL     1      20.666   5.198  20.622  0.00  0.00    +0.066 A 
ATOM     17  C   UNL     1      23.163   3.966  20.795  0.00  0.00    -0.042 A 
ATOM     20  C   UNL     1      20.756   3.851  20.970  0.00  0.00    +0.028 A 
ATOM     21  C   UNL     1      21.825   5.930  20.361  0.00  0.00    +0.028 A 
ATOM     22  C   UNL     1      22.004   3.234  21.056  0.00  0.00    +0.006 A 
ATOM     23  C   UNL     1      23.073   5.313  20.447  0.00  0.00    +0.006 A 
BRANCH  17  14
ATOM     14  C   UNL     1      24.498   3.306  20.885  0.00  0.00    -0.013 C 
ATOM     24  C   UNL     1      25.333   3.880  22.071  0.00  0.00    +0.015 C 
ATOM     25  C   UNL     1      25.324   3.521  19.580  0.00  0.00    +0.015 C 
ATOM     26  C   UNL     1      24.468   1.758  21.108  0.00  0.00    +0.015 C 
ENDBRANCH  17  14
ENDBRANCH   3  15
BRANCH   9   6
ATOM      6  C   UNL     1      16.676   8.043  21.510  0.00  0.00    +0.047 C 
ATOM      7  C   UNL     1      16.296   9.179  20.537  0.00  0.00    +0.039 C 
ATOM      8  C   UNL     1      14.824   9.501  20.825  0.00  0.00    +0.097 C 
ATOM     10  C   UNL     1      15.340   7.455  21.858  0.00  0.00    -0.021 C 
ATOM     11  C   UNL     1      14.334   8.255  21.486  0.00  0.00    -0.009 C 
BRANCH   8   4
ATOM      1  O   UNL     1      12.550  11.279  21.027  0.00  0.00    -0.273 OA
ATOM      4  N   UNL     1      14.664  10.609  21.729  0.00  0.00    -0.307 N 
ATOM     19  C   UNL     1      13.530  11.413  21.754  0.00  0.00    +0.239 C 
ATOM     29  H   UNL     1      15.433  10.839  22.354  0.00  0.00    +0.149 HD
BRANCH  19  27
ATOM     27  C   UNL     1      13.630  12.500  22.802  0.00  0.00    +0.255 C 
BRANCH  27   2
ATOM      2  O   UNL     1      13.814  11.941  24.085  0.00  0.00    -0.374 OA
ATOM     28  C   UNL     1      12.626  12.003  24.868  0.00  0.00    +0.194 C 
ENDBRANCH  27   2
ENDBRANCH  19  27
ENDBRANCH   8   4
ENDBRANCH   9   6
TORSDOF 6
ENDMDL
MODEL 5
REMARK VINA RESULT:      -6.3     28.126     33.084
REMARK  Name = 26743432
REMARK  12 active torsions:
REMARK  status: ('A' for Active; 'I' for Inactive)
REMARK    1  A    between atoms: O_2  and  C_27
REMARK    2  A    between atoms: O_2  and  C_28
REMARK    3  A    between atoms: N_3  and  C_15
REMARK    4  A    between atoms: N_4  and  C_8
REMARK    5  A    between atoms: C_6  and  C_9
REMARK    6  A    between atoms: C_12  and  C_16
REMARK    7  A    between atoms: C_13  and  C_18
REMARK    8  A    between atoms: C_14  and  C_17
REMARK    9  A    between atoms: C_14  and  C_24
REMARK   10  A    between atoms: C_14  and  C_25
REMARK   11  A    between atoms: C_14  and  C_26
REMARK   12  A    between atoms: C_19  and  C_27
REMARK                            x       y       z     vdW  Elec       q    Type
REMARK                         _______ _______ _______ _____ _____    ______ ____
ROOT
ATOM      3  N   UNL     1      -8.889 -11.107  19.118  0.00  0.00    -0.236 N 
ATOM      5  N   UNL     1      -7.912 -11.052  20.038  0.00  0.00    -0.171 NA
ATOM      9  C   UNL     1      -7.063 -11.216  17.924  0.00  0.00    +0.003 A 
ATOM     12  C   UNL     1      -8.435 -11.205  17.836  0.00  0.00    +0.046 A 
ATOM     13  C   UNL     1      -6.799 -11.119  19.303  0.00  0.00    +0.064 A 
ATOM     16  C   UNL     1      -9.328 -11.280  16.662  0.00  0.00    +0.066 C 
ATOM     18  C   UNL     1      -5.486 -11.089  19.971  0.00  0.00    +0.068 C 
ENDROOT
BRANCH   3  15
ATOM     15  C   UNL     1     -10.224 -11.061  19.522  0.00  0.00    +0.066 A 
ATOM     17  C   UNL     1     -12.893 -10.970  20.326  0.00  0.00    -0.042 A 
ATOM     20  C   UNL     1     -10.836 -12.203  20.038  0.00  0.00    +0.028 A 
ATOM     21  C   UNL     1     -10.947  -9.873  19.408  0.00  0.00    +0.028 A 
ATOM     22  C   UNL     1     -12.171 -12.158  20.440  0.00  0.00    +0.006 A 
ATOM     23  C   UNL     1     -12.281  -9.828  19.810  0.00  0.00    +0.006 A 
BRANCH  17  14
ATOM     14  C   UNL     1     -14.321 -10.921  20.756  0.00  0.00    -0.013 C 
ATOM     24  C   UNL     1     -14.807  -9.450  20.939  0.00  0.00    +0.015 C 
ATOM     25  C   UNL     1     -14.526 -11.657  22.117  0.00  0.00    +0.015 C 
ATOM     26  C   UNL     1     -15.343 -11.578  19.770  0.00  0.00    +0.015 C 
ENDBRANCH  17  14
ENDBRANCH   3  15
BRANCH   9   6
ATOM      6  C   UNL     1      -6.067 -11.311  16.792  0.00  0.00    +0.047 C 
ATOM      7  C   UNL     1      -5.260 -10.013  16.579  0.00  0.00    +0.039 C 
ATOM      8  C   UNL     1      -3.861 -10.458  16.133  0.00  0.00    +0.097 C 
ATOM     10  C   UNL     1      -4.986 -12.333  16.990  0.00  0.00    -0.021 C 
ATOM     11  C   UNL     1      -3.788 -11.865  16.626  0.00  0.00    -0.009 C 
BRANCH   8   4
ATOM      1  O   UNL     1      -1.380 -10.413  14.645  0.00  0.00    -0.273 OA
ATOM      4  N   UNL     1      -3.705 -10.449  14.702  0.00  0.00    -0.307 N 
ATOM     19  C   UNL     1      -2.467 -10.427  14.072  0.00  0.00    +0.239 C 
ATOM     29  H   UNL     1      -4.542 -10.420  14.125  0.00  0.00    +0.149 HD
BRANCH  19  27
ATOM     27  C   UNL     1      -2.598 -10.424  12.565  0.00  0.00    +0.255 C 
BRANCH  27   2
ATOM      2  O   UNL     1      -2.175 -11.658  12.025  0.00  0.00    -0.374 OA
ATOM     28  C   UNL     1      -3.236 -12.343  11.368  0.00  0.00    +0.194 C 
ENDBRANCH  27   2
ENDBRANCH  19  27
ENDBRANCH   8   4
ENDBRANCH   9   6
TORSDOF 6
ENDMDL
MODEL 6
REMARK VINA RESULT:      -6.1     28.812     32.951
REMARK  Name = 26743432
REMARK  12 active torsions:
REMARK  status: ('A' for Active; 'I' for Inactive)
REMARK    1  A    between atoms: O_2  and  C_27
REMARK    2  A    between atoms: O_2  and  C_28
REMARK    3  A    between atoms: N_3  and  C_15
REMARK    4  A    between atoms: N_4  and  C_8
REMARK    5  A    between atoms: C_6  and  C_9
REMARK    6  A    between atoms: C_12  and  C_16
REMARK    7  A    between atoms: C_13  and  C_18
REMARK    8  A    between atoms: C_14  and  C_17
REMARK    9  A    between atoms: C_14  and  C_24
REMARK   10  A    between atoms: C_14  and  C_25
REMARK   11  A    between atoms: C_14  and  C_26
REMARK   12  A    between atoms: C_19  and  C_27
REMARK                            x       y       z     vdW  Elec       q    Type
REMARK                         _______ _______ _______ _____ _____    ______ ____
ROOT
ATOM      3  N   UNL     1      -6.669  -8.712   8.470  0.00  0.00    -0.236 N 
ATOM      5  N   UNL     1      -7.401  -7.633   8.796  0.00  0.00    -0.171 NA
ATOM      9  C   UNL     1      -7.921  -8.398   6.707  0.00  0.00    +0.003 A 
ATOM     12  C   UNL     1      -6.943  -9.209   7.230  0.00  0.00    +0.046 A 
ATOM     13  C   UNL     1      -8.164  -7.446   7.715  0.00  0.00    +0.064 A 
ATOM     16  C   UNL     1      -6.260 -10.389   6.661  0.00  0.00    +0.066 C 
ATOM     18  C   UNL     1      -9.122  -6.328   7.690  0.00  0.00    +0.068 C 
ENDROOT
BRANCH   3  15
ATOM     15  C   UNL     1      -5.736  -9.215   9.377  0.00  0.00    +0.066 A 
ATOM     17  C   UNL     1      -3.869 -10.225  11.187  0.00  0.00    -0.042 A 
ATOM     20  C   UNL     1      -4.402  -8.816   9.298  0.00  0.00    +0.028 A 
ATOM     21  C   UNL     1      -6.137 -10.119  10.360  0.00  0.00    +0.028 A 
ATOM     22  C   UNL     1      -3.468  -9.321  10.203  0.00  0.00    +0.006 A 
ATOM     23  C   UNL     1      -5.204 -10.624  11.265  0.00  0.00    +0.006 A 
BRANCH  17  14
ATOM     14  C   UNL     1      -2.872 -10.764  12.155  0.00  0.00    -0.013 C 
ATOM     24  C   UNL     1      -3.317 -10.510  13.628  0.00  0.00    +0.015 C 
ATOM     25  C   UNL     1      -1.477 -10.092  11.963  0.00  0.00    +0.015 C 
ATOM     26  C   UNL     1      -2.607 -12.304  12.061  0.00  0.00    +0.015 C 
ENDBRANCH  17  14
ENDBRANCH   3  15
BRANCH   9   6
ATOM      6  C   UNL     1      -8.585  -8.507   5.354  0.00  0.00    +0.047 C 
ATOM      7  C   UNL     1      -7.636  -8.183   4.181  0.00  0.00    +0.039 C 
ATOM      8  C   UNL     1      -8.063  -9.104   3.031  0.00  0.00    +0.097 C 
ATOM     10  C   UNL     1      -9.074  -9.883   5.003  0.00  0.00    -0.021 C 
ATOM     11  C   UNL     1      -8.790 -10.201   3.736  0.00  0.00    -0.009 C 
BRANCH   8   4
ATOM      1  O   UNL     1      -8.180  -9.469   0.163  0.00  0.00    -0.273 OA
ATOM      4  N   UNL     1      -8.960  -8.459   2.108  0.00  0.00    -0.307 N 
ATOM     19  C   UNL     1      -8.943  -8.698   0.738  0.00  0.00    +0.239 C 
ATOM     29  H   UNL     1      -9.613  -7.769   2.470  0.00  0.00    +0.149 HD
BRANCH  19  27
ATOM     27  C   UNL     1      -9.993  -7.889   0.009  0.00  0.00    +0.255 C 
BRANCH  27   2
ATOM      2  O   UNL     1     -10.877  -7.278   0.925  0.00  0.00    -0.374 OA
ATOM     28  C   UNL     1     -11.087  -5.902   0.624  0.00  0.00    +0.194 C 
ENDBRANCH  27   2
ENDBRANCH  19  27
ENDBRANCH   8   4
ENDBRANCH   9   6
TORSDOF 6
ENDMDL
MODEL 7
REMARK VINA RESULT:      -6.1     12.403     16.698
REMARK  Name = 26743432
REMARK  12 active torsions:
REMARK  status: ('A' for Active; 'I' for Inactive)
REMARK    1  A    between atoms: O_2  and  C_27
REMARK    2  A    between atoms: O_2  and  C_28
REMARK    3  A    between atoms: N_3  and  C_15
REMARK    4  A    between atoms: N_4  and  C_8
REMARK    5  A    between atoms: C_6  and  C_9
REMARK    6  A    between atoms: C_12  and  C_16
REMARK    7  A    between atoms: C_13  and  C_18
REMARK    8  A    between atoms: C_14  and  C_17
REMARK    9  A    between atoms: C_14  and  C_24
REMARK   10  A    between atoms: C_14  and  C_25
REMARK   11  A    between atoms: C_14  and  C_26
REMARK   12  A    between atoms: C_19  and  C_27
REMARK                            x       y       z     vdW  Elec       q    Type
REMARK                         _______ _______ _______ _____ _____    ______ ____
ROOT
ATOM      3  N   UNL     1      20.279  -7.161  23.193  0.00  0.00    -0.236 N 
ATOM      5  N   UNL     1      20.719  -7.749  24.318  0.00  0.00    -0.171 NA
ATOM      9  C   UNL     1      21.496  -8.818  22.455  0.00  0.00    +0.003 A 
ATOM     12  C   UNL     1      20.716  -7.762  22.050  0.00  0.00    +0.046 A 
ATOM     13  C   UNL     1      21.462  -8.760  23.861  0.00  0.00    +0.064 A 
ATOM     16  C   UNL     1      20.357  -7.289  20.697  0.00  0.00    +0.066 C 
ATOM     18  C   UNL     1      22.129  -9.660  24.819  0.00  0.00    +0.068 C 
ENDROOT
BRANCH   3  15
ATOM     15  C   UNL     1      19.454  -6.039  23.276  0.00  0.00    +0.066 A 
ATOM     17  C   UNL     1      17.803  -3.797  23.449  0.00  0.00    -0.042 A 
ATOM     20  C   UNL     1      19.997  -4.796  23.600  0.00  0.00    +0.028 A 
ATOM     21  C   UNL     1      18.085  -6.161  23.039  0.00  0.00    +0.028 A 
ATOM     22  C   UNL     1      19.172  -3.675  23.686  0.00  0.00    +0.006 A 
ATOM     23  C   UNL     1      17.260  -5.040  23.125  0.00  0.00    +0.006 A 
BRANCH  17  14
ATOM     14  C   UNL     1      16.920  -2.598  23.540  0.00  0.00    -0.013 C 
ATOM     24  C   UNL     1      15.497  -2.899  22.977  0.00  0.00    +0.015 C 
ATOM     25  C   UNL     1      17.505  -1.403  22.725  0.00  0.00    +0.015 C 
ATOM     26  C   UNL     1      16.688  -2.043  24.984  0.00  0.00    +0.015 C 
ENDBRANCH  17  14
ENDBRANCH   3  15
BRANCH   9   6
ATOM      6  C   UNL     1      22.224  -9.815  21.584  0.00  0.00    +0.047 C 
ATOM      7  C   UNL     1      21.955  -9.619  20.077  0.00  0.00    +0.039 C 
ATOM      8  C   UNL     1      23.263  -9.989  19.367  0.00  0.00    +0.097 C 
ATOM     10  C   UNL     1      23.722  -9.737  21.657  0.00  0.00    -0.021 C 
ATOM     11  C   UNL     1      24.283  -9.836  20.447  0.00  0.00    -0.009 C 
BRANCH   8   4
ATOM      1  O   UNL     1      22.681 -10.917  16.689  0.00  0.00    -0.273 OA
ATOM      4  N   UNL     1      23.275 -11.349  18.896  0.00  0.00    -0.307 N 
ATOM     19  C   UNL     1      22.979 -11.702  17.584  0.00  0.00    +0.239 C 
ATOM     29  H   UNL     1      23.471 -12.090  19.564  0.00  0.00    +0.149 HD
BRANCH  19  27
ATOM     27  C   UNL     1      23.068 -13.197  17.367  0.00  0.00    +0.255 C 
BRANCH  27   2
ATOM      2  O   UNL     1      23.563 -13.485  16.076  0.00  0.00    -0.374 OA
ATOM     28  C   UNL     1      24.940 -13.848  16.104  0.00  0.00    +0.194 C 
ENDBRANCH  27   2
ENDBRANCH  19  27
ENDBRANCH   8   4
ENDBRANCH   9   6
TORSDOF 6
ENDMDL
MODEL 8
REMARK VINA RESULT:      -6.0     15.971     19.529
REMARK  Name = 26743432
REMARK  12 active torsions:
REMARK  status: ('A' for Active; 'I' for Inactive)
REMARK    1  A    between atoms: O_2  and  C_27
REMARK    2  A    between atoms: O_2  and  C_28
REMARK    3  A    between atoms: N_3  and  C_15
REMARK    4  A    between atoms: N_4  and  C_8
REMARK    5  A    between atoms: C_6  and  C_9
REMARK    6  A    between atoms: C_12  and  C_16
REMARK    7  A    between atoms: C_13  and  C_18
REMARK    8  A    between atoms: C_14  and  C_17
REMARK    9  A    between atoms: C_14  and  C_24
REMARK   10  A    between atoms: C_14  and  C_25
REMARK   11  A    between atoms: C_14  and  C_26
REMARK   12  A    between atoms: C_19  and  C_27
REMARK                            x       y       z     vdW  Elec       q    Type
REMARK                         _______ _______ _______ _____ _____    ______ ____
ROOT
ATOM      3  N   UNL     1      10.538   5.055   3.347  0.00  0.00    -0.236 N 
ATOM      5  N   UNL     1      10.407   4.094   4.277  0.00  0.00    -0.171 NA
ATOM      9  C   UNL     1       9.824   6.143   5.101  0.00  0.00    +0.003 A 
ATOM     12  C   UNL     1      10.201   6.300   3.789  0.00  0.00    +0.046 A 
ATOM     13  C   UNL     1       9.970   4.765   5.346  0.00  0.00    +0.064 A 
ATOM     16  C   UNL     1      10.269   7.507   2.942  0.00  0.00    +0.066 C 
ATOM     18  C   UNL     1       9.704   4.036   6.599  0.00  0.00    +0.068 C 
ENDROOT
BRANCH   3  15
ATOM     15  C   UNL     1      10.984   4.723   2.068  0.00  0.00    +0.066 A 
ATOM     17  C   UNL     1      11.879   4.065  -0.491  0.00  0.00    -0.042 A 
ATOM     20  C   UNL     1      12.276   4.229   1.886  0.00  0.00    +0.028 A 
ATOM     21  C   UNL     1      10.140   4.888   0.970  0.00  0.00    +0.028 A 
ATOM     22  C   UNL     1      12.723   3.899   0.607  0.00  0.00    +0.006 A 
ATOM     23  C   UNL     1      10.587   4.559  -0.309  0.00  0.00    +0.006 A 
BRANCH  17  14
ATOM     14  C   UNL     1      12.357   3.712  -1.859  0.00  0.00    -0.013 C 
ATOM     24  C   UNL     1      12.103   2.206  -2.177  0.00  0.00    +0.015 C 
ATOM     25  C   UNL     1      13.888   3.972  -2.008  0.00  0.00    +0.015 C 
ATOM     26  C   UNL     1      11.685   4.503  -3.030  0.00  0.00    +0.015 C 
ENDBRANCH  17  14
ENDBRANCH   3  15
BRANCH   9   6
ATOM      6  C   UNL     1       9.357   7.212   6.062  0.00  0.00    +0.047 C 
ATOM      7  C   UNL     1      10.432   8.279   6.356  0.00  0.00    +0.039 C 
ATOM      8  C   UNL     1       9.673   9.599   6.538  0.00  0.00    +0.097 C 
ATOM     10  C   UNL     1       8.207   8.041   5.568  0.00  0.00    -0.021 C 
ATOM     11  C   UNL     1       8.382   9.340   5.833  0.00  0.00    -0.009 C 
BRANCH   8   4
ATOM      1  O   UNL     1       9.635  12.212   7.782  0.00  0.00    -0.273 OA
ATOM      4  N   UNL     1       9.405   9.901   7.919  0.00  0.00    -0.307 N 
ATOM     19  C   UNL     1       9.409  11.194   8.430  0.00  0.00    +0.239 C 
ATOM     29  H   UNL     1       9.242   9.128   8.560  0.00  0.00    +0.149 HD
BRANCH  19  27
ATOM     27  C   UNL     1       9.095  11.219   9.910  0.00  0.00    +0.255 C 
BRANCH  27   2
ATOM      2  O   UNL     1       8.278  12.325  10.228  0.00  0.00    -0.374 OA
ATOM     28  C   UNL     1       8.304  12.623  11.620  0.00  0.00    +0.194 C 
ENDBRANCH  27   2
ENDBRANCH  19  27
ENDBRANCH   8   4
ENDBRANCH   9   6
TORSDOF 6
ENDMDL
MODEL 9
REMARK VINA RESULT:      -6.0     17.672     22.698
REMARK  Name = 26743432
REMARK  12 active torsions:
REMARK  status: ('A' for Active; 'I' for Inactive)
REMARK    1  A    between atoms: O_2  and  C_27
REMARK    2  A    between atoms: O_2  and  C_28
REMARK    3  A    between atoms: N_3  and  C_15
REMARK    4  A    between atoms: N_4  and  C_8
REMARK    5  A    between atoms: C_6  and  C_9
REMARK    6  A    between atoms: C_12  and  C_16
REMARK    7  A    between atoms: C_13  and  C_18
REMARK    8  A    between atoms: C_14  and  C_17
REMARK    9  A    between atoms: C_14  and  C_24
REMARK   10  A    between atoms: C_14  and  C_25
REMARK   11  A    between atoms: C_14  and  C_26
REMARK   12  A    between atoms: C_19  and  C_27
REMARK                            x       y       z     vdW  Elec       q    Type
REMARK                         _______ _______ _______ _____ _____    ______ ____
ROOT
ATOM      3  N   UNL     1      12.159   4.907   1.666  0.00  0.00    -0.236 N 
ATOM      5  N   UNL     1      13.463   4.598   1.583  0.00  0.00    -0.171 NA
ATOM      9  C   UNL     1      12.451   4.514  -0.463  0.00  0.00    +0.003 A 
ATOM     12  C   UNL     1      11.507   4.873   0.469  0.00  0.00    +0.046 A 
ATOM     13  C   UNL     1      13.636   4.359   0.280  0.00  0.00    +0.064 A 
ATOM     16  C   UNL     1      10.068   5.174   0.320  0.00  0.00    +0.066 C 
ATOM     18  C   UNL     1      14.970   3.978  -0.216  0.00  0.00    +0.068 C 
ENDROOT
BRANCH   3  15
ATOM     15  C   UNL     1      11.600   5.225   2.905  0.00  0.00    +0.066 A 
ATOM     17  C   UNL     1      10.490   5.857   5.384  0.00  0.00    -0.042 A 
ATOM     20  C   UNL     1      11.894   6.447   3.509  0.00  0.00    +0.028 A 
ATOM     21  C   UNL     1      10.752   4.318   3.540  0.00  0.00    +0.028 A 
ATOM     22  C   UNL     1      11.338   6.764   4.749  0.00  0.00    +0.006 A 
ATOM     23  C   UNL     1      10.196   4.635   4.780  0.00  0.00    +0.006 A 
BRANCH  17  14
ATOM     14  C   UNL     1       9.894   6.196   6.709  0.00  0.00    -0.013 C 
ATOM     24  C   UNL     1       8.453   6.771   6.552  0.00  0.00    +0.015 C 
ATOM     25  C   UNL     1      10.749   7.266   7.456  0.00  0.00    +0.015 C 
ATOM     26  C   UNL     1       9.759   5.000   7.710  0.00  0.00    +0.015 C 
ENDBRANCH  17  14
ENDBRANCH   3  15
BRANCH   9   6
ATOM      6  C   UNL     1      12.256   4.330  -1.950  0.00  0.00    +0.047 C 
ATOM      7  C   UNL     1      11.272   3.194  -2.300  0.00  0.00    +0.039 C 
ATOM      8  C   UNL     1      10.537   3.652  -3.566  0.00  0.00    +0.097 C 
ATOM     10  C   UNL     1      11.652   5.509  -2.656  0.00  0.00    -0.021 C 
ATOM     11  C   UNL     1      10.719   5.134  -3.537  0.00  0.00    -0.009 C 
BRANCH   8   4
ATOM      1  O   UNL     1       9.255   3.332  -6.140  0.00  0.00    -0.273 OA
ATOM      4  N   UNL     1      11.124   3.127  -4.770  0.00  0.00    -0.307 N 
ATOM     19  C   UNL     1      10.427   3.010  -5.967  0.00  0.00    +0.239 C 
ATOM     29  H   UNL     1      12.083   2.791  -4.734  0.00  0.00    +0.149 HD
BRANCH  19  27
ATOM     27  C   UNL     1      11.287   2.429  -7.068  0.00  0.00    +0.255 C 
BRANCH  27   2
ATOM      2  O   UNL     1      12.631   2.833  -6.917  0.00  0.00    -0.374 OA
ATOM     28  C   UNL     1      13.538   1.760  -7.150  0.00  0.00    +0.194 C 
ENDBRANCH  27   2
ENDBRANCH  19  27
ENDBRANCH   8   4
ENDBRANCH   9   6
TORSDOF 6
ENDMDL
MODEL 10
REMARK VINA RESULT:      -5.9     28.385     34.130
REMARK  Name = 26743432
REMARK  12 active torsions:
REMARK  status: ('A' for Active; 'I' for Inactive)
REMARK    1  A    between atoms: O_2  and  C_27
REMARK    2  A    between atoms: O_2  and  C_28
REMARK    3  A    between atoms: N_3  and  C_15
REMARK    4  A    between atoms: N_4  and  C_8
REMARK    5  A    between atoms: C_6  and  C_9
REMARK    6  A    between atoms: C_12  and  C_16
REMARK    7  A    between atoms: C_13  and  C_18
REMARK    8  A    between atoms: C_14  and  C_17
REMARK    9  A    between atoms: C_14  and  C_24
REMARK   10  A    between atoms: C_14  and  C_25
REMARK   11  A    between atoms: C_14  and  C_26
REMARK   12  A    between atoms: C_19  and  C_27
REMARK                            x       y       z     vdW  Elec       q    Type
REMARK                         _______ _______ _______ _____ _____    ______ ____
ROOT
ATOM      3  N   UNL     1     -13.151   7.616  33.629  0.00  0.00    -0.236 N 
ATOM      5  N   UNL     1     -13.246   7.591  34.969  0.00  0.00    -0.171 NA
ATOM      9  C   UNL     1     -11.727   9.145  34.266  0.00  0.00    +0.003 A 
ATOM     12  C   UNL     1     -12.256   8.530  33.157  0.00  0.00    +0.046 A 
ATOM     13  C   UNL     1     -12.374   8.527  35.352  0.00  0.00    +0.064 A 
ATOM     16  C   UNL     1     -11.986   8.732  31.719  0.00  0.00    +0.066 C 
ATOM     18  C   UNL     1     -12.187   8.798  36.788  0.00  0.00    +0.068 C 
ENDROOT
BRANCH   3  15
ATOM     15  C   UNL     1     -13.935   6.753  32.863  0.00  0.00    +0.066 A 
ATOM     17  C   UNL     1     -15.499   5.027  31.328  0.00  0.00    -0.042 A 
ATOM     20  C   UNL     1     -13.561   5.417  32.717  0.00  0.00    +0.028 A 
ATOM     21  C   UNL     1     -15.091   7.226  32.242  0.00  0.00    +0.028 A 
ATOM     22  C   UNL     1     -14.343   4.554  31.949  0.00  0.00    +0.006 A 
ATOM     23  C   UNL     1     -15.873   6.363  31.475  0.00  0.00    +0.006 A 
BRANCH  17  14
ATOM     14  C   UNL     1     -16.336   4.104  30.508  0.00  0.00    -0.013 C 
ATOM     24  C   UNL     1     -17.840   4.190  30.916  0.00  0.00    +0.015 C 
ATOM     25  C   UNL     1     -15.885   2.621  30.688  0.00  0.00    +0.015 C 
ATOM     26  C   UNL     1     -16.308   4.363  28.965  0.00  0.00    +0.015 C 
ENDBRANCH  17  14
ENDBRANCH   3  15
BRANCH   9   6
ATOM      6  C   UNL     1     -10.685  10.239  34.306  0.00  0.00    +0.047 C 
ATOM      7  C   UNL     1      -9.429   9.915  33.471  0.00  0.00    +0.039 C 
ATOM      8  C   UNL     1      -8.951  11.255  32.897  0.00  0.00    +0.097 C 
ATOM     10  C   UNL     1     -11.129  11.550  33.725  0.00  0.00    -0.021 C 
ATOM     11  C   UNL     1     -10.179  12.101  32.962  0.00  0.00    -0.009 C 
BRANCH   8   4
ATOM      1  O   UNL     1      -6.543  12.546  31.942  0.00  0.00    -0.273 OA
ATOM      4  N   UNL     1      -7.916  11.863  33.692  0.00  0.00    -0.307 N 
ATOM     19  C   UNL     1      -6.788  12.462  33.142  0.00  0.00    +0.239 C 
ATOM     29  H   UNL     1      -7.995  11.818  34.704  0.00  0.00    +0.149 HD
BRANCH  19  27
ATOM     27  C   UNL     1      -5.869  13.020  34.207  0.00  0.00    +0.255 C 
BRANCH  27   2
ATOM      2  O   UNL     1      -4.762  12.166  34.408  0.00  0.00    -0.374 OA
ATOM     28  C   UNL     1      -3.547  12.755  33.955  0.00  0.00    +0.194 C 
ENDBRANCH  27   2
ENDBRANCH  19  27
ENDBRANCH   8   4
ENDBRANCH   9   6
TORSDOF 6
ENDMDL
