MODEL 1
REMARK VINA RESULT:      -7.7      0.000      0.000
REMARK  Name = 28960549
REMARK  6 active torsions:
REMARK  status: ('A' for Active; 'I' for Inactive)
REMARK    1  A    between atoms: O_3  and  C_12
REMARK    2  A    between atoms: N_6  and  C_11
REMARK    3  A    between atoms: N_7  and  C_13
REMARK    4  A    between atoms: N_9  and  C_24
REMARK    5  A    between atoms: C_21  and  C_22
REMARK    6  A    between atoms: C_27  and  C_30
REMARK                            x       y       z     vdW  Elec       q    Type
REMARK                         _______ _______ _______ _____ _____    ______ ____
ROOT
ATOM      1  O   UNL     1      13.037   9.165  18.932  0.00  0.00    -0.342 OA
ATOM      2  O   UNL     1      11.347   7.840  18.055  0.00  0.00    -0.347 OA
ATOM     11  C   UNL     1      11.473   8.136  20.452  0.00  0.00    +0.143 C 
ATOM     12  C   UNL     1      12.383   6.894  20.580  0.00  0.00    +0.159 C 
ATOM     13  C   UNL     1      13.727   7.038  19.834  0.00  0.00    +0.136 C 
ATOM     14  C   UNL     1      11.657   8.803  19.076  0.00  0.00    +0.270 C 
ATOM     15  C   UNL     1      13.629   7.914  18.568  0.00  0.00    +0.170 C 
ATOM     16  C   UNL     1      12.622   7.419  17.547  0.00  0.00    +0.196 C 
ENDROOT
BRANCH  13   7
ATOM      5  O   UNL     1      16.564   6.755  19.568  0.00  0.00    -0.252 OA
ATOM      7  N   UNL     1      14.736   7.574  20.722  0.00  0.00    -0.291 N 
ATOM      9  N   UNL     1      16.835   8.015  21.531  0.00  0.00    -0.269 N 
ATOM     23  C   UNL     1      16.106   7.387  20.517  0.00  0.00    +0.304 C 
ATOM     31  H   UNL     1      14.432   8.039  21.572  0.00  0.00    +0.151 HD
ATOM     35  H   UNL     1      16.298   8.499  22.246  0.00  0.00    +0.156 HD
BRANCH   9  24
ATOM     24  C   UNL     1      18.239   8.062  21.688  0.00  0.00    +0.036 A 
ATOM     25  C   UNL     1      18.945   6.902  22.009  0.00  0.00    +0.042 A 
ATOM     26  C   UNL     1      18.919   9.269  21.522  0.00  0.00    +0.023 A 
ATOM     27  C   UNL     1      20.331   6.949  22.164  0.00  0.00    +0.054 A 
ATOM     28  C   UNL     1      20.305   9.316  21.677  0.00  0.00    +0.003 A 
ATOM     29  C   UNL     1      21.011   8.156  21.998  0.00  0.00    +0.019 A 
BRANCH  27  30
ATOM     10  N   UNL     1      21.640   4.797  22.761  0.00  0.00    -0.191 NA
ATOM     30  C   UNL     1      21.054   5.761  22.494  0.00  0.00    +0.099 C 
ENDBRANCH  27  30
ENDBRANCH   9  24
ENDBRANCH  13   7
BRANCH  11   6
ATOM      6  N   UNL     1      11.780   9.098  21.513  0.00  0.00    -0.293 NA
ATOM     17  C   UNL     1      11.725  10.472  20.993  0.00  0.00    +0.085 C 
ATOM     18  C   UNL     1      10.862   8.923  22.647  0.00  0.00    +0.085 C 
ATOM     19  C   UNL     1      12.098  11.486  22.076  0.00  0.00    +0.028 C 
ATOM     20  C   UNL     1      11.203   9.884  23.787  0.00  0.00    +0.028 C 
ATOM     21  C   UNL     1      11.205  11.334  23.307  0.00  0.00    +0.077 C 
BRANCH  21  22
ATOM      4  O   UNL     1      12.525  13.104  24.219  0.00  0.00    -0.276 OA
ATOM      8  N   UNL     1      11.120  11.953  25.631  0.00  0.00    -0.329 N 
ATOM     22  C   UNL     1      11.688  12.226  24.409  0.00  0.00    +0.214 C 
ATOM     33  H   UNL     1      10.439  11.213  25.763  0.00  0.00    +0.145 HD
ATOM     34  H   UNL     1      11.373  12.489  26.454  0.00  0.00    +0.145 HD
ENDBRANCH  21  22
ENDBRANCH  11   6
BRANCH  12   3
ATOM      3  O   UNL     1      11.672   5.774  20.036  0.00  0.00    -0.388 OA
ATOM     32  H   UNL     1      10.792   5.755  20.449  0.00  0.00    +0.210 HD
ENDBRANCH  12   3
TORSDOF 6
ENDMDL
MODEL 2
REMARK VINA RESULT:      -7.7      2.374      5.085
REMARK  Name = 28960549
REMARK  6 active torsions:
REMARK  status: ('A' for Active; 'I' for Inactive)
REMARK    1  A    between atoms: O_3  and  C_12
REMARK    2  A    between atoms: N_6  and  C_11
REMARK    3  A    between atoms: N_7  and  C_13
REMARK    4  A    between atoms: N_9  and  C_24
REMARK    5  A    between atoms: C_21  and  C_22
REMARK    6  A    between atoms: C_27  and  C_30
REMARK                            x       y       z     vdW  Elec       q    Type
REMARK                         _______ _______ _______ _____ _____    ______ ____
ROOT
ATOM      1  O   UNL     1      14.368  12.028  24.413  0.00  0.00    -0.342 OA
ATOM      2  O   UNL     1      14.037  14.195  23.654  0.00  0.00    -0.347 OA
ATOM     11  C   UNL     1      13.489  12.349  22.191  0.00  0.00    +0.143 C 
ATOM     12  C   UNL     1      14.919  12.360  21.605  0.00  0.00    +0.159 C 
ATOM     13  C   UNL     1      16.014  12.059  22.652  0.00  0.00    +0.136 C 
ATOM     14  C   UNL     1      13.495  12.864  23.642  0.00  0.00    +0.270 C 
ATOM     15  C   UNL     1      15.654  12.554  24.068  0.00  0.00    +0.170 C 
ATOM     16  C   UNL     1      15.375  14.043  24.153  0.00  0.00    +0.196 C 
ENDROOT
BRANCH  13   7
ATOM      5  O   UNL     1      17.009  10.460  20.495  0.00  0.00    -0.252 OA
ATOM      7  N   UNL     1      16.295  10.640  22.687  0.00  0.00    -0.291 N 
ATOM      9  N   UNL     1      16.956   8.587  21.910  0.00  0.00    -0.269 N 
ATOM     23  C   UNL     1      16.781   9.935  21.582  0.00  0.00    +0.304 C 
ATOM     31  H   UNL     1      16.056  10.122  23.526  0.00  0.00    +0.151 HD
ATOM     35  H   UNL     1      16.719   8.314  22.860  0.00  0.00    +0.156 HD
BRANCH   9  24
ATOM     24  C   UNL     1      17.427   7.546  21.078  0.00  0.00    +0.036 A 
ATOM     25  C   UNL     1      18.709   7.028  21.265  0.00  0.00    +0.042 A 
ATOM     26  C   UNL     1      16.609   7.035  20.070  0.00  0.00    +0.023 A 
ATOM     27  C   UNL     1      19.173   6.001  20.444  0.00  0.00    +0.054 A 
ATOM     28  C   UNL     1      17.073   6.008  19.248  0.00  0.00    +0.003 A 
ATOM     29  C   UNL     1      18.355   5.490  19.436  0.00  0.00    +0.019 A 
BRANCH  27  30
ATOM     10  N   UNL     1      21.553   5.040  20.790  0.00  0.00    -0.191 NA
ATOM     30  C   UNL     1      20.487   5.471  20.635  0.00  0.00    +0.099 C 
ENDBRANCH  27  30
ENDBRANCH   9  24
ENDBRANCH  13   7
BRANCH  11   6
ATOM      6  N   UNL     1      12.938  10.993  22.149  0.00  0.00    -0.293 NA
ATOM     17  C   UNL     1      11.498  11.014  22.443  0.00  0.00    +0.085 C 
ATOM     18  C   UNL     1      13.205  10.370  20.845  0.00  0.00    +0.085 C 
ATOM     19  C   UNL     1      10.918   9.598  22.457  0.00  0.00    +0.028 C 
ATOM     20  C   UNL     1      12.683   8.932  20.803  0.00  0.00    +0.028 C 
ATOM     21  C   UNL     1      11.194   8.873  21.141  0.00  0.00    +0.077 C 
BRANCH  21  22
ATOM      4  O   UNL     1      11.290   6.554  20.580  0.00  0.00    -0.276 OA
ATOM      8  N   UNL     1       9.709   7.242  22.102  0.00  0.00    -0.329 N 
ATOM     22  C   UNL     1      10.758   7.444  21.236  0.00  0.00    +0.214 C 
ATOM     33  H   UNL     1       9.278   7.999  22.624  0.00  0.00    +0.145 HD
ATOM     34  H   UNL     1       9.324   6.314  22.246  0.00  0.00    +0.145 HD
ENDBRANCH  21  22
ENDBRANCH  11   6
BRANCH  12   3
ATOM      3  O   UNL     1      15.155  13.662  21.053  0.00  0.00    -0.388 OA
ATOM     32  H   UNL     1      15.167  13.573  20.084  0.00  0.00    +0.210 HD
ENDBRANCH  12   3
TORSDOF 6
ENDMDL
MODEL 3
REMARK VINA RESULT:      -7.3     28.015     29.929
REMARK  Name = 28960549
REMARK  6 active torsions:
REMARK  status: ('A' for Active; 'I' for Inactive)
REMARK    1  A    between atoms: O_3  and  C_12
REMARK    2  A    between atoms: N_6  and  C_11
REMARK    3  A    between atoms: N_7  and  C_13
REMARK    4  A    between atoms: N_9  and  C_24
REMARK    5  A    between atoms: C_21  and  C_22
REMARK    6  A    between atoms: C_27  and  C_30
REMARK                            x       y       z     vdW  Elec       q    Type
REMARK                         _______ _______ _______ _____ _____    ______ ____
ROOT
ATOM      1  O   UNL     1      -9.106  -8.218  17.141  0.00  0.00    -0.342 OA
ATOM      2  O   UNL     1     -11.174  -9.184  17.553  0.00  0.00    -0.347 OA
ATOM     11  C   UNL     1      -9.235 -10.616  17.353  0.00  0.00    +0.143 C 
ATOM     12  C   UNL     1      -9.470 -10.758  15.833  0.00  0.00    +0.159 C 
ATOM     13  C   UNL     1      -9.373  -9.420  15.068  0.00  0.00    +0.136 C 
ATOM     14  C   UNL     1      -9.772  -9.265  17.860  0.00  0.00    +0.270 C 
ATOM     15  C   UNL     1      -9.830  -8.207  15.906  0.00  0.00    +0.170 C 
ATOM     16  C   UNL     1     -11.254  -8.308  16.419  0.00  0.00    +0.196 C 
ENDROOT
BRANCH  13   7
ATOM      5  O   UNL     1      -8.169 -10.582  12.745  0.00  0.00    -0.252 OA
ATOM      7  N   UNL     1      -8.021  -9.209  14.599  0.00  0.00    -0.291 N 
ATOM      9  N   UNL     1      -6.184  -9.432  13.245  0.00  0.00    -0.269 N 
ATOM     23  C   UNL     1      -7.512  -9.819  13.449  0.00  0.00    +0.304 C 
ATOM     31  H   UNL     1      -7.392  -8.656  15.174  0.00  0.00    +0.151 HD
ATOM     35  H   UNL     1      -5.787  -8.790  13.927  0.00  0.00    +0.156 HD
BRANCH   9  24
ATOM     24  C   UNL     1      -5.317  -9.823  12.200  0.00  0.00    +0.036 A 
ATOM     25  C   UNL     1      -5.694  -9.633  10.871  0.00  0.00    +0.042 A 
ATOM     26  C   UNL     1      -4.081 -10.399  12.499  0.00  0.00    +0.023 A 
ATOM     27  C   UNL     1      -4.838 -10.020   9.840  0.00  0.00    +0.054 A 
ATOM     28  C   UNL     1      -3.224 -10.786  11.468  0.00  0.00    +0.003 A 
ATOM     29  C   UNL     1      -3.603 -10.596  10.139  0.00  0.00    +0.019 A 
BRANCH  27  30
ATOM     10  N   UNL     1      -5.540  -9.670   7.373  0.00  0.00    -0.191 NA
ATOM     30  C   UNL     1      -5.226  -9.827   8.478  0.00  0.00    +0.099 C 
ENDBRANCH  27  30
ENDBRANCH   9  24
ENDBRANCH  13   7
BRANCH  11   6
ATOM      6  N   UNL     1      -7.806 -10.725  17.656  0.00  0.00    -0.293 NA
ATOM     17  C   UNL     1      -7.591 -10.785  19.108  0.00  0.00    +0.085 C 
ATOM     18  C   UNL     1      -7.228 -11.898  16.984  0.00  0.00    +0.085 C 
ATOM     19  C   UNL     1      -6.099 -10.844  19.442  0.00  0.00    +0.028 C 
ATOM     20  C   UNL     1      -5.723 -11.997  17.245  0.00  0.00    +0.028 C 
ATOM     21  C   UNL     1      -5.421 -12.022  18.743  0.00  0.00    +0.077 C 
BRANCH  21  22
ATOM      4  O   UNL     1      -3.424 -12.267  20.030  0.00  0.00    -0.276 OA
ATOM      8  N   UNL     1      -3.237 -11.540  17.856  0.00  0.00    -0.329 N 
ATOM     22  C   UNL     1      -3.940 -11.968  18.957  0.00  0.00    +0.214 C 
ATOM     33  H   UNL     1      -3.690 -11.286  16.983  0.00  0.00    +0.145 HD
ATOM     34  H   UNL     1      -2.226 -11.458  17.882  0.00  0.00    +0.145 HD
ENDBRANCH  21  22
ENDBRANCH  11   6
BRANCH  12   3
ATOM      3  O   UNL     1     -10.782 -11.304  15.642  0.00  0.00    -0.388 OA
ATOM     32  H   UNL     1     -11.347 -10.972  16.360  0.00  0.00    +0.210 HD
ENDBRANCH  12   3
TORSDOF 6
ENDMDL
MODEL 4
REMARK VINA RESULT:      -7.1      4.351      7.176
REMARK  Name = 28960549
REMARK  6 active torsions:
REMARK  status: ('A' for Active; 'I' for Inactive)
REMARK    1  A    between atoms: O_3  and  C_12
REMARK    2  A    between atoms: N_6  and  C_11
REMARK    3  A    between atoms: N_7  and  C_13
REMARK    4  A    between atoms: N_9  and  C_24
REMARK    5  A    between atoms: C_21  and  C_22
REMARK    6  A    between atoms: C_27  and  C_30
REMARK                            x       y       z     vdW  Elec       q    Type
REMARK                         _______ _______ _______ _____ _____    ______ ____
ROOT
ATOM      1  O   UNL     1      13.032   8.870  20.810  0.00  0.00    -0.342 OA
ATOM      2  O   UNL     1      11.438   7.219  20.471  0.00  0.00    -0.347 OA
ATOM     11  C   UNL     1      13.656   6.905  19.559  0.00  0.00    +0.143 C 
ATOM     12  C   UNL     1      13.234   7.586  18.238  0.00  0.00    +0.159 C 
ATOM     13  C   UNL     1      12.805   9.059  18.416  0.00  0.00    +0.136 C 
ATOM     14  C   UNL     1      12.831   7.452  20.738  0.00  0.00    +0.270 C 
ATOM     15  C   UNL     1      12.150   9.340  19.785  0.00  0.00    +0.170 C 
ATOM     16  C   UNL     1      10.922   8.497  20.070  0.00  0.00    +0.196 C 
ENDROOT
BRANCH  13   7
ATOM      5  O   UNL     1      13.355  10.675  16.117  0.00  0.00    -0.252 OA
ATOM      7  N   UNL     1      13.941   9.936  18.229  0.00  0.00    -0.291 N 
ATOM      9  N   UNL     1      15.310  11.440  17.171  0.00  0.00    -0.269 N 
ATOM     23  C   UNL     1      14.133  10.692  17.069  0.00  0.00    +0.304 C 
ATOM     31  H   UNL     1      14.668   9.941  18.938  0.00  0.00    +0.151 HD
ATOM     35  H   UNL     1      15.841  11.339  18.032  0.00  0.00    +0.156 HD
BRANCH   9  24
ATOM     24  C   UNL     1      15.858  12.329  16.218  0.00  0.00    +0.036 A 
ATOM     25  C   UNL     1      16.898  11.908  15.388  0.00  0.00    +0.042 A 
ATOM     26  C   UNL     1      15.358  13.626  16.106  0.00  0.00    +0.023 A 
ATOM     27  C   UNL     1      17.439  12.785  14.449  0.00  0.00    +0.054 A 
ATOM     28  C   UNL     1      15.899  14.504  15.166  0.00  0.00    +0.003 A 
ATOM     29  C   UNL     1      16.939  14.083  14.337  0.00  0.00    +0.019 A 
BRANCH  27  30
ATOM     10  N   UNL     1      19.372  12.005  12.912  0.00  0.00    -0.191 NA
ATOM     30  C   UNL     1      18.505  12.355  13.600  0.00  0.00    +0.099 C 
ENDBRANCH  27  30
ENDBRANCH   9  24
ENDBRANCH  13   7
BRANCH  11   6
ATOM      6  N   UNL     1      15.082   7.127  19.808  0.00  0.00    -0.293 NA
ATOM     17  C   UNL     1      15.380   7.000  21.241  0.00  0.00    +0.085 C 
ATOM     18  C   UNL     1      15.894   6.195  19.013  0.00  0.00    +0.085 C 
ATOM     19  C   UNL     1      16.857   7.284  21.525  0.00  0.00    +0.028 C 
ATOM     20  C   UNL     1      17.388   6.449  19.219  0.00  0.00    +0.028 C 
ATOM     21  C   UNL     1      17.764   6.374  20.698  0.00  0.00    +0.077 C 
BRANCH  21  22
ATOM      4  O   UNL     1      19.519   7.814  21.441  0.00  0.00    -0.276 OA
ATOM      8  N   UNL     1      20.090   5.885  20.327  0.00  0.00    -0.329 N 
ATOM     22  C   UNL     1      19.196   6.775  20.873  0.00  0.00    +0.214 C 
ATOM     33  H   UNL     1      19.796   5.038  19.851  0.00  0.00    +0.145 HD
ATOM     34  H   UNL     1      21.090   6.052  20.379  0.00  0.00    +0.145 HD
ENDBRANCH  21  22
ENDBRANCH  11   6
BRANCH  12   3
ATOM      3  O   UNL     1      12.130   6.847  17.699  0.00  0.00    -0.388 OA
ATOM     32  H   UNL     1      12.262   5.911  17.927  0.00  0.00    +0.210 HD
ENDBRANCH  12   3
TORSDOF 6
ENDMDL
MODEL 5
REMARK VINA RESULT:      -7.1      2.906      7.029
REMARK  Name = 28960549
REMARK  6 active torsions:
REMARK  status: ('A' for Active; 'I' for Inactive)
REMARK    1  A    between atoms: O_3  and  C_12
REMARK    2  A    between atoms: N_6  and  C_11
REMARK    3  A    between atoms: N_7  and  C_13
REMARK    4  A    between atoms: N_9  and  C_24
REMARK    5  A    between atoms: C_21  and  C_22
REMARK    6  A    between atoms: C_27  and  C_30
REMARK                            x       y       z     vdW  Elec       q    Type
REMARK                         _______ _______ _______ _____ _____    ______ ____
ROOT
ATOM      1  O   UNL     1      12.650   7.252  21.777  0.00  0.00    -0.342 OA
ATOM      2  O   UNL     1      11.691   7.539  19.685  0.00  0.00    -0.347 OA
ATOM     11  C   UNL     1      13.981   8.239  20.025  0.00  0.00    +0.143 C 
ATOM     12  C   UNL     1      13.511   9.652  20.437  0.00  0.00    +0.159 C 
ATOM     13  C   UNL     1      12.632   9.662  21.706  0.00  0.00    +0.136 C 
ATOM     14  C   UNL     1      12.906   7.190  20.368  0.00  0.00    +0.270 C 
ATOM     15  C   UNL     1      11.780   8.385  21.866  0.00  0.00    +0.170 C 
ATOM     16  C   UNL     1      10.850   8.110  20.699  0.00  0.00    +0.196 C 
ENDROOT
BRANCH  13   7
ATOM      5  O   UNL     1      13.352  12.161  22.904  0.00  0.00    -0.252 OA
ATOM      7  N   UNL     1      13.453   9.851  22.882  0.00  0.00    -0.291 N 
ATOM      9  N   UNL     1      14.566  10.986  24.535  0.00  0.00    -0.269 N 
ATOM     23  C   UNL     1      13.757  11.113  23.401  0.00  0.00    +0.304 C 
ATOM     31  H   UNL     1      13.891   9.036  23.301  0.00  0.00    +0.151 HD
ATOM     35  H   UNL     1      14.812  10.040  24.815  0.00  0.00    +0.156 HD
BRANCH   9  24
ATOM     24  C   UNL     1      15.089  12.017  25.347  0.00  0.00    +0.036 A 
ATOM     25  C   UNL     1      14.288  12.611  26.323  0.00  0.00    +0.042 A 
ATOM     26  C   UNL     1      16.407  12.440  25.175  0.00  0.00    +0.023 A 
ATOM     27  C   UNL     1      14.804  13.629  27.125  0.00  0.00    +0.054 A 
ATOM     28  C   UNL     1      16.924  13.458  25.977  0.00  0.00    +0.003 A 
ATOM     29  C   UNL     1      16.122  14.052  26.952  0.00  0.00    +0.019 A 
BRANCH  27  30
ATOM     10  N   UNL     1      13.317  14.733  28.935  0.00  0.00    -0.191 NA
ATOM     30  C   UNL     1      13.983  14.239  28.123  0.00  0.00    +0.099 C 
ENDBRANCH  27  30
ENDBRANCH   9  24
ENDBRANCH  13   7
BRANCH  11   6
ATOM      6  N   UNL     1      15.233   7.904  20.708  0.00  0.00    -0.293 NA
ATOM     17  C   UNL     1      15.841   6.708  20.110  0.00  0.00    +0.085 C 
ATOM     18  C   UNL     1      16.159   9.046  20.670  0.00  0.00    +0.085 C 
ATOM     19  C   UNL     1      17.122   6.313  20.847  0.00  0.00    +0.028 C 
ATOM     20  C   UNL     1      17.452   8.733  21.425  0.00  0.00    +0.028 C 
ATOM     21  C   UNL     1      18.120   7.471  20.881  0.00  0.00    +0.077 C 
BRANCH  21  22
ATOM      4  O   UNL     1      20.132   6.288  21.389  0.00  0.00    -0.276 OA
ATOM      8  N   UNL     1      19.326   7.785  22.939  0.00  0.00    -0.329 N 
ATOM     22  C   UNL     1      19.295   7.116  21.739  0.00  0.00    +0.214 C 
ATOM     33  H   UNL     1      18.613   8.455  23.210  0.00  0.00    +0.145 HD
ATOM     34  H   UNL     1      20.073   7.623  23.607  0.00  0.00    +0.145 HD
ENDBRANCH  21  22
ENDBRANCH  11   6
BRANCH  12   3
ATOM      3  O   UNL     1      12.754  10.196  19.348  0.00  0.00    -0.388 OA
ATOM     32  H   UNL     1      12.938  11.150  19.309  0.00  0.00    +0.210 HD
ENDBRANCH  12   3
TORSDOF 6
ENDMDL
MODEL 6
REMARK VINA RESULT:      -6.9     26.145     29.657
REMARK  Name = 28960549
REMARK  6 active torsions:
REMARK  status: ('A' for Active; 'I' for Inactive)
REMARK    1  A    between atoms: O_3  and  C_12
REMARK    2  A    between atoms: N_6  and  C_11
REMARK    3  A    between atoms: N_7  and  C_13
REMARK    4  A    between atoms: N_9  and  C_24
REMARK    5  A    between atoms: C_21  and  C_22
REMARK    6  A    between atoms: C_27  and  C_30
REMARK                            x       y       z     vdW  Elec       q    Type
REMARK                         _______ _______ _______ _____ _____    ______ ____
ROOT
ATOM      1  O   UNL     1      -7.690  -8.948  17.103  0.00  0.00    -0.342 OA
ATOM      2  O   UNL     1      -8.837 -10.673  18.146  0.00  0.00    -0.347 OA
ATOM     11  C   UNL     1      -7.002 -11.218  16.667  0.00  0.00    +0.143 C 
ATOM     12  C   UNL     1      -7.968 -11.301  15.464  0.00  0.00    +0.159 C 
ATOM     13  C   UNL     1      -8.680  -9.966  15.154  0.00  0.00    +0.136 C 
ATOM     14  C   UNL     1      -7.536 -10.232  17.723  0.00  0.00    +0.270 C 
ATOM     15  C   UNL     1      -8.933  -9.106  16.410  0.00  0.00    +0.170 C 
ATOM     16  C   UNL     1      -9.758  -9.797  17.479  0.00  0.00    +0.196 C 
ENDROOT
BRANCH  13   7
ATOM      5  O   UNL     1      -7.653 -10.920  12.657  0.00  0.00    -0.252 OA
ATOM      7  N   UNL     1      -7.918  -9.206  14.187  0.00  0.00    -0.291 N 
ATOM      9  N   UNL     1      -6.752  -8.789  12.257  0.00  0.00    -0.269 N 
ATOM     23  C   UNL     1      -7.454  -9.753  12.987  0.00  0.00    +0.304 C 
ATOM     31  H   UNL     1      -7.644  -8.258  14.426  0.00  0.00    +0.151 HD
ATOM     35  H   UNL     1      -6.678  -7.865  12.676  0.00  0.00    +0.156 HD
BRANCH   9  24
ATOM     24  C   UNL     1      -6.128  -8.938  10.998  0.00  0.00    +0.036 A 
ATOM     25  C   UNL     1      -6.895  -8.930   9.833  0.00  0.00    +0.042 A 
ATOM     26  C   UNL     1      -4.743  -9.092  10.921  0.00  0.00    +0.023 A 
ATOM     27  C   UNL     1      -6.278  -9.077   8.590  0.00  0.00    +0.054 A 
ATOM     28  C   UNL     1      -4.126  -9.239   9.678  0.00  0.00    +0.003 A 
ATOM     29  C   UNL     1      -4.894  -9.231   8.513  0.00  0.00    +0.019 A 
BRANCH  27  30
ATOM     10  N   UNL     1      -7.701  -9.064   6.427  0.00  0.00    -0.191 NA
ATOM     30  C   UNL     1      -7.064  -9.070   7.397  0.00  0.00    +0.099 C 
ENDBRANCH  27  30
ENDBRANCH   9  24
ENDBRANCH  13   7
BRANCH  11   6
ATOM      6  N   UNL     1      -5.674 -10.792  16.220  0.00  0.00    -0.293 NA
ATOM     17  C   UNL     1      -4.699 -10.919  17.311  0.00  0.00    +0.085 C 
ATOM     18  C   UNL     1      -5.256 -11.566  15.042  0.00  0.00    +0.085 C 
ATOM     19  C   UNL     1      -3.317 -10.426  16.876  0.00  0.00    +0.028 C 
ATOM     20  C   UNL     1      -3.894 -11.097  14.528  0.00  0.00    +0.028 C 
ATOM     21  C   UNL     1      -2.834 -11.162  15.627  0.00  0.00    +0.077 C 
BRANCH  21  22
ATOM      4  O   UNL     1      -1.470 -10.037  14.022  0.00  0.00    -0.276 OA
ATOM      8  N   UNL     1      -0.514 -10.660  16.019  0.00  0.00    -0.329 N 
ATOM     22  C   UNL     1      -1.558 -10.557  15.131  0.00  0.00    +0.214 C 
ATOM     33  H   UNL     1      -0.611 -11.107  16.926  0.00  0.00    +0.145 HD
ATOM     34  H   UNL     1       0.403 -10.290  15.791  0.00  0.00    +0.145 HD
ENDBRANCH  21  22
ENDBRANCH  11   6
BRANCH  12   3
ATOM      3  O   UNL     1      -8.958 -12.292  15.766  0.00  0.00    -0.388 OA
ATOM     32  H   UNL     1      -9.234 -12.161  16.689  0.00  0.00    +0.210 HD
ENDBRANCH  12   3
TORSDOF 6
ENDMDL
MODEL 7
REMARK VINA RESULT:      -6.8     15.535     19.212
REMARK  Name = 28960549
REMARK  6 active torsions:
REMARK  status: ('A' for Active; 'I' for Inactive)
REMARK    1  A    between atoms: O_3  and  C_12
REMARK    2  A    between atoms: N_6  and  C_11
REMARK    3  A    between atoms: N_7  and  C_13
REMARK    4  A    between atoms: N_9  and  C_24
REMARK    5  A    between atoms: C_21  and  C_22
REMARK    6  A    between atoms: C_27  and  C_30
REMARK                            x       y       z     vdW  Elec       q    Type
REMARK                         _______ _______ _______ _____ _____    ______ ____
ROOT
ATOM      1  O   UNL     1      10.386   9.758   4.435  0.00  0.00    -0.342 OA
ATOM      2  O   UNL     1       8.628  11.270   4.479  0.00  0.00    -0.347 OA
ATOM     11  C   UNL     1       8.305   9.076   5.444  0.00  0.00    +0.143 C 
ATOM     12  C   UNL     1       7.804   8.530   4.088  0.00  0.00    +0.159 C 
ATOM     13  C   UNL     1       8.863   8.599   2.967  0.00  0.00    +0.136 C 
ATOM     14  C   UNL     1       9.292  10.238   5.227  0.00  0.00    +0.270 C 
ATOM     15  C   UNL     1       9.828   9.794   3.117  0.00  0.00    +0.170 C 
ATOM     16  C   UNL     1       9.141  11.146   3.145  0.00  0.00    +0.196 C 
ENDROOT
BRANCH  13   7
ATOM      5  O   UNL     1      10.018   7.398   0.639  0.00  0.00    -0.252 OA
ATOM      7  N   UNL     1       9.617   7.366   2.916  0.00  0.00    -0.291 N 
ATOM      9  N   UNL     1      10.822   5.651   1.986  0.00  0.00    -0.269 N 
ATOM     23  C   UNL     1      10.147   6.848   1.730  0.00  0.00    +0.304 C 
ATOM     31  H   UNL     1       9.697   6.814   3.764  0.00  0.00    +0.151 HD
ATOM     35  H   UNL     1      10.836   5.333   2.952  0.00  0.00    +0.156 HD
BRANCH   9  24
ATOM     24  C   UNL     1      11.494   4.819   1.062  0.00  0.00    +0.036 A 
ATOM     25  C   UNL     1      10.841   4.388  -0.094  0.00  0.00    +0.042 A 
ATOM     26  C   UNL     1      12.812   4.430   1.304  0.00  0.00    +0.023 A 
ATOM     27  C   UNL     1      11.505   3.567  -1.005  0.00  0.00    +0.054 A 
ATOM     28  C   UNL     1      13.476   3.610   0.392  0.00  0.00    +0.003 A 
ATOM     29  C   UNL     1      12.823   3.179  -0.763  0.00  0.00    +0.019 A 
BRANCH  27  30
ATOM     10  N   UNL     1      10.292   2.766  -3.148  0.00  0.00    -0.191 NA
ATOM     30  C   UNL     1      10.836   3.125  -2.188  0.00  0.00    +0.099 C 
ENDBRANCH  27  30
ENDBRANCH   9  24
ENDBRANCH  13   7
BRANCH  11   6
ATOM      6  N   UNL     1       8.957   8.009   6.207  0.00  0.00    -0.293 NA
ATOM     17  C   UNL     1       9.006   8.355   7.635  0.00  0.00    +0.085 C 
ATOM     18  C   UNL     1       8.266   6.730   5.994  0.00  0.00    +0.085 C 
ATOM     19  C   UNL     1       9.734   7.275   8.438  0.00  0.00    +0.028 C 
ATOM     20  C   UNL     1       8.967   5.593   6.742  0.00  0.00    +0.028 C 
ATOM     21  C   UNL     1       9.091   5.904   8.233  0.00  0.00    +0.077 C 
BRANCH  21  22
ATOM      4  O   UNL     1      10.092   4.827  10.114  0.00  0.00    -0.276 OA
ATOM      8  N   UNL     1      10.439   3.922   8.028  0.00  0.00    -0.329 N 
ATOM     22  C   UNL     1       9.910   4.843   8.900  0.00  0.00    +0.214 C 
ATOM     33  H   UNL     1      10.283   3.967   7.025  0.00  0.00    +0.145 HD
ATOM     34  H   UNL     1      11.017   3.158   8.364  0.00  0.00    +0.145 HD
ENDBRANCH  21  22
ENDBRANCH  11   6
BRANCH  12   3
ATOM      3  O   UNL     1       6.666   9.310   3.697  0.00  0.00    -0.388 OA
ATOM     32  H   UNL     1       6.565  10.028   4.344  0.00  0.00    +0.210 HD
ENDBRANCH  12   3
TORSDOF 6
ENDMDL
MODEL 8
REMARK VINA RESULT:      -6.8     14.774     18.280
REMARK  Name = 28960549
REMARK  6 active torsions:
REMARK  status: ('A' for Active; 'I' for Inactive)
REMARK    1  A    between atoms: O_3  and  C_12
REMARK    2  A    between atoms: N_6  and  C_11
REMARK    3  A    between atoms: N_7  and  C_13
REMARK    4  A    between atoms: N_9  and  C_24
REMARK    5  A    between atoms: C_21  and  C_22
REMARK    6  A    between atoms: C_27  and  C_30
REMARK                            x       y       z     vdW  Elec       q    Type
REMARK                         _______ _______ _______ _____ _____    ______ ____
ROOT
ATOM      1  O   UNL     1      10.355  10.540   5.424  0.00  0.00    -0.342 OA
ATOM      2  O   UNL     1       8.302  11.511   4.951  0.00  0.00    -0.347 OA
ATOM     11  C   UNL     1       8.405   9.124   5.327  0.00  0.00    +0.143 C 
ATOM     12  C   UNL     1       8.636   8.875   3.820  0.00  0.00    +0.159 C 
ATOM     13  C   UNL     1       9.939   9.507   3.285  0.00  0.00    +0.136 C 
ATOM     14  C   UNL     1       8.956  10.502   5.738  0.00  0.00    +0.270 C 
ATOM     15  C   UNL     1      10.330  10.807   4.017  0.00  0.00    +0.170 C 
ATOM     16  C   UNL     1       9.271  11.892   3.962  0.00  0.00    +0.196 C 
ENDROOT
BRANCH  13   7
ATOM      5  O   UNL     1      10.369   7.253   1.572  0.00  0.00    -0.252 OA
ATOM      7  N   UNL     1      11.026   8.555   3.366  0.00  0.00    -0.291 N 
ATOM      9  N   UNL     1      12.298   6.732   2.805  0.00  0.00    -0.269 N 
ATOM     23  C   UNL     1      11.160   7.478   2.485  0.00  0.00    +0.304 C 
ATOM     31  H   UNL     1      11.674   8.628   4.144  0.00  0.00    +0.151 HD
ATOM     35  H   UNL     1      12.849   7.057   3.596  0.00  0.00    +0.156 HD
BRANCH   9  24
ATOM     24  C   UNL     1      12.785   5.572   2.160  0.00  0.00    +0.036 A 
ATOM     25  C   UNL     1      13.941   5.639   1.381  0.00  0.00    +0.042 A 
ATOM     26  C   UNL     1      12.111   4.359   2.304  0.00  0.00    +0.023 A 
ATOM     27  C   UNL     1      14.421   4.495   0.745  0.00  0.00    +0.054 A 
ATOM     28  C   UNL     1      12.591   3.214   1.668  0.00  0.00    +0.003 A 
ATOM     29  C   UNL     1      13.747   3.282   0.889  0.00  0.00    +0.019 A 
BRANCH  27  30
ATOM     10  N   UNL     1      16.564   4.620  -0.703  0.00  0.00    -0.191 NA
ATOM     30  C   UNL     1      15.604   4.564  -0.054  0.00  0.00    +0.099 C 
ENDBRANCH  27  30
ENDBRANCH   9  24
ENDBRANCH  13   7
BRANCH  11   6
ATOM      6  N   UNL     1       9.054   8.076   6.117  0.00  0.00    -0.293 NA
ATOM     17  C   UNL     1       8.784   8.270   7.548  0.00  0.00    +0.085 C 
ATOM     18  C   UNL     1       8.612   6.748   5.669  0.00  0.00    +0.085 C 
ATOM     19  C   UNL     1       9.501   7.213   8.392  0.00  0.00    +0.028 C 
ATOM     20  C   UNL     1       9.322   5.638   6.448  0.00  0.00    +0.028 C 
ATOM     21  C   UNL     1       9.118   5.801   7.953  0.00  0.00    +0.077 C 
BRANCH  21  22
ATOM      4  O   UNL     1      10.265   4.934   9.860  0.00  0.00    -0.276 OA
ATOM      8  N   UNL     1      10.320   3.717   7.909  0.00  0.00    -0.329 N 
ATOM     22  C   UNL     1       9.947   4.790   8.683  0.00  0.00    +0.214 C 
ATOM     33  H   UNL     1      10.054   3.628   6.933  0.00  0.00    +0.145 HD
ATOM     34  H   UNL     1      10.888   2.969   8.294  0.00  0.00    +0.145 HD
ENDBRANCH  21  22
ENDBRANCH  11   6
BRANCH  12   3
ATOM      3  O   UNL     1       7.525   9.437   3.108  0.00  0.00    -0.388 OA
ATOM     32  H   UNL     1       7.294   8.823   2.391  0.00  0.00    +0.210 HD
ENDBRANCH  12   3
TORSDOF 6
ENDMDL
MODEL 9
REMARK VINA RESULT:      -6.8     14.986     18.585
REMARK  Name = 28960549
REMARK  6 active torsions:
REMARK  status: ('A' for Active; 'I' for Inactive)
REMARK    1  A    between atoms: O_3  and  C_12
REMARK    2  A    between atoms: N_6  and  C_11
REMARK    3  A    between atoms: N_7  and  C_13
REMARK    4  A    between atoms: N_9  and  C_24
REMARK    5  A    between atoms: C_21  and  C_22
REMARK    6  A    between atoms: C_27  and  C_30
REMARK                            x       y       z     vdW  Elec       q    Type
REMARK                         _______ _______ _______ _____ _____    ______ ____
ROOT
ATOM      1  O   UNL     1       9.935   8.604   5.934  0.00  0.00    -0.342 OA
ATOM      2  O   UNL     1       9.241   7.813   8.001  0.00  0.00    -0.347 OA
ATOM     11  C   UNL     1      11.511   7.381   7.287  0.00  0.00    +0.143 C 
ATOM     12  C   UNL     1      11.075   6.053   6.630  0.00  0.00    +0.159 C 
ATOM     13  C   UNL     1      10.056   6.238   5.485  0.00  0.00    +0.136 C 
ATOM     14  C   UNL     1      10.348   8.391   7.290  0.00  0.00    +0.270 C 
ATOM     15  C   UNL     1       9.123   7.450   5.692  0.00  0.00    +0.170 C 
ATOM     16  C   UNL     1       8.321   7.402   6.979  0.00  0.00    +0.196 C 
ENDROOT
BRANCH  13   7
ATOM      5  O   UNL     1      10.782   4.106   3.717  0.00  0.00    -0.252 OA
ATOM      7  N   UNL     1      10.746   6.363   4.219  0.00  0.00    -0.291 N 
ATOM      9  N   UNL     1      11.724   5.687   2.259  0.00  0.00    -0.269 N 
ATOM     23  C   UNL     1      11.062   5.264   3.415  0.00  0.00    +0.304 C 
ATOM     31  H   UNL     1      11.082   7.280   3.941  0.00  0.00    +0.151 HD
ATOM     35  H   UNL     1      11.879   6.688   2.162  0.00  0.00    +0.156 HD
BRANCH   9  24
ATOM     24  C   UNL     1      12.210   4.891   1.196  0.00  0.00    +0.036 A 
ATOM     25  C   UNL     1      11.358   4.520   0.156  0.00  0.00    +0.042 A 
ATOM     26  C   UNL     1      13.543   4.478   1.188  0.00  0.00    +0.023 A 
ATOM     27  C   UNL     1      11.838   3.734  -0.892  0.00  0.00    +0.054 A 
ATOM     28  C   UNL     1      14.023   3.693   0.140  0.00  0.00    +0.003 A 
ATOM     29  C   UNL     1      13.170   3.321  -0.901  0.00  0.00    +0.019 A 
BRANCH  27  30
ATOM     10  N   UNL     1      10.256   3.042  -2.822  0.00  0.00    -0.191 NA
ATOM     30  C   UNL     1      10.965   3.352  -1.957  0.00  0.00    +0.099 C 
ENDBRANCH  27  30
ENDBRANCH   9  24
ENDBRANCH  13   7
BRANCH  11   6
ATOM      6  N   UNL     1      12.656   7.947   6.570  0.00  0.00    -0.293 NA
ATOM     17  C   UNL     1      12.972   9.288   7.081  0.00  0.00    +0.085 C 
ATOM     18  C   UNL     1      13.818   7.053   6.671  0.00  0.00    +0.085 C 
ATOM     19  C   UNL     1      14.132   9.915   6.305  0.00  0.00    +0.028 C 
ATOM     20  C   UNL     1      15.008   7.603   5.881  0.00  0.00    +0.028 C 
ATOM     21  C   UNL     1      15.367   9.017   6.333  0.00  0.00    +0.077 C 
BRANCH  21  22
ATOM      4  O   UNL     1      16.312  10.658   4.879  0.00  0.00    -0.276 OA
ATOM      8  N   UNL     1      17.526   8.752   5.305  0.00  0.00    -0.329 N 
ATOM     22  C   UNL     1      16.432   9.573   5.441  0.00  0.00    +0.214 C 
ATOM     33  H   UNL     1      17.595   7.853   5.771  0.00  0.00    +0.145 HD
ATOM     34  H   UNL     1      18.311   9.021   4.720  0.00  0.00    +0.145 HD
ENDBRANCH  21  22
ENDBRANCH  11   6
BRANCH  12   3
ATOM      3  O   UNL     1      10.481   5.236   7.648  0.00  0.00    -0.388 OA
ATOM     32  H   UNL     1      11.196   4.744   8.086  0.00  0.00    +0.210 HD
ENDBRANCH  12   3
TORSDOF 6
ENDMDL
MODEL 10
REMARK VINA RESULT:      -6.7     27.410     30.418
REMARK  Name = 28960549
REMARK  6 active torsions:
REMARK  status: ('A' for Active; 'I' for Inactive)
REMARK    1  A    between atoms: O_3  and  C_12
REMARK    2  A    between atoms: N_6  and  C_11
REMARK    3  A    between atoms: N_7  and  C_13
REMARK    4  A    between atoms: N_9  and  C_24
REMARK    5  A    between atoms: C_21  and  C_22
REMARK    6  A    between atoms: C_27  and  C_30
REMARK                            x       y       z     vdW  Elec       q    Type
REMARK                         _______ _______ _______ _____ _____    ______ ____
ROOT
ATOM      1  O   UNL     1      -4.951 -10.240  18.161  0.00  0.00    -0.342 OA
ATOM      2  O   UNL     1      -4.521 -12.237  19.258  0.00  0.00    -0.347 OA
ATOM     11  C   UNL     1      -4.737 -12.252  16.849  0.00  0.00    +0.143 C 
ATOM     12  C   UNL     1      -6.255 -12.513  16.965  0.00  0.00    +0.159 C 
ATOM     13  C   UNL     1      -7.021 -11.380  17.681  0.00  0.00    +0.136 C 
ATOM     14  C   UNL     1      -4.227 -11.474  18.077  0.00  0.00    +0.270 C 
ATOM     15  C   UNL     1      -6.181 -10.665  18.759  0.00  0.00    +0.170 C 
ATOM     16  C   UNL     1      -5.655 -11.583  19.846  0.00  0.00    +0.196 C 
ENDROOT
BRANCH  13   7
ATOM      5  O   UNL     1      -9.519  -9.982  17.760  0.00  0.00    -0.252 OA
ATOM      7  N   UNL     1      -7.502 -10.415  16.716  0.00  0.00    -0.291 N 
ATOM      9  N   UNL     1      -8.934  -8.902  15.759  0.00  0.00    -0.269 N 
ATOM     23  C   UNL     1      -8.740  -9.777  16.832  0.00  0.00    +0.304 C 
ATOM     31  H   UNL     1      -6.949 -10.254  15.880  0.00  0.00    +0.151 HD
ATOM     35  H   UNL     1      -8.186  -8.850  15.072  0.00  0.00    +0.156 HD
BRANCH   9  24
ATOM     24  C   UNL     1     -10.051  -8.073  15.506  0.00  0.00    +0.036 A 
ATOM     25  C   UNL     1     -10.936  -8.388  14.474  0.00  0.00    +0.042 A 
ATOM     26  C   UNL     1     -10.268  -6.939  16.289  0.00  0.00    +0.023 A 
ATOM     27  C   UNL     1     -12.037  -7.570  14.225  0.00  0.00    +0.054 A 
ATOM     28  C   UNL     1     -11.370  -6.120  16.041  0.00  0.00    +0.003 A 
ATOM     29  C   UNL     1     -12.255  -6.436  15.008  0.00  0.00    +0.019 A 
BRANCH  27  30
ATOM     10  N   UNL     1     -13.678  -8.153  12.309  0.00  0.00    -0.191 NA
ATOM     30  C   UNL     1     -12.942  -7.892  13.167  0.00  0.00    +0.099 C 
ENDBRANCH  27  30
ENDBRANCH   9  24
ENDBRANCH  13   7
BRANCH  11   6
ATOM      6  N   UNL     1      -4.447 -11.495  15.629  0.00  0.00    -0.293 NA
ATOM     17  C   UNL     1      -2.996 -11.411  15.409  0.00  0.00    +0.085 C 
ATOM     18  C   UNL     1      -5.124 -12.104  14.475  0.00  0.00    +0.085 C 
ATOM     19  C   UNL     1      -2.675 -10.577  14.167  0.00  0.00    +0.028 C 
ATOM     20  C   UNL     1      -4.876 -11.295  13.200  0.00  0.00    +0.028 C 
ATOM     21  C   UNL     1      -3.381 -11.131  12.930  0.00  0.00    +0.077 C 
BRANCH  21  22
ATOM      4  O   UNL     1      -2.065  -9.959  11.319  0.00  0.00    -0.276 OA
ATOM      8  N   UNL     1      -4.347  -9.682  11.270  0.00  0.00    -0.329 N 
ATOM     22  C   UNL     1      -3.180 -10.213  11.765  0.00  0.00    +0.214 C 
ATOM     33  H   UNL     1      -5.257  -9.898  11.666  0.00  0.00    +0.145 HD
ATOM     34  H   UNL     1      -4.336  -9.041  10.483  0.00  0.00    +0.145 HD
ENDBRANCH  21  22
ENDBRANCH  11   6
BRANCH  12   3
ATOM      3  O   UNL     1      -6.434 -13.729  17.704  0.00  0.00    -0.388 OA
ATOM     32  H   UNL     1      -6.607 -13.488  18.630  0.00  0.00    +0.210 HD
ENDBRANCH  12   3
TORSDOF 6
ENDMDL
