MODEL 1
REMARK VINA RESULT:      -5.0      0.000      0.000
REMARK  Name = 25312536
REMARK  11 active torsions:
REMARK  status: ('A' for Active; 'I' for Inactive)
REMARK    1  A    between atoms: O_2  and  C_15
REMARK    2  A    between atoms: N_5  and  C_13
REMARK    3  A    between atoms: N_5  and  C_16
REMARK    4  A    between atoms: N_5  and  C_17
REMARK    5  A    between atoms: C_6  and  C_10
REMARK    6  A    between atoms: C_7  and  C_12
REMARK    7  A    between atoms: C_10  and  C_13
REMARK    8  A    between atoms: C_12  and  C_15
REMARK    9  A    between atoms: C_14  and  C_18
REMARK   10  A    between atoms: C_16  and  C_19
REMARK   11  A    between atoms: C_17  and  C_20
REMARK                            x       y       z     vdW  Elec       q    Type
REMARK                         _______ _______ _______ _____ _____    ______ ____
ROOT
ATOM      1  O   UNL     1      10.540   8.469  19.279  0.00  0.00    -0.276 OA
ATOM      4  N   UNL     1      12.336   7.539  20.422  0.00  0.00    -0.301 N 
ATOM      6  C   UNL     1      14.597   7.699  21.438  0.00  0.00    +0.011 C 
ATOM      7  C   UNL     1      15.161   6.932  20.213  0.00  0.00    +0.006 C 
ATOM      8  C   UNL     1      13.117   7.333  21.648  0.00  0.00    +0.111 C 
ATOM      9  C   UNL     1      14.284   7.136  18.966  0.00  0.00    +0.023 C 
ATOM     11  C   UNL     1      12.822   6.803  19.256  0.00  0.00    +0.108 C 
ATOM     14  C   UNL     1      11.195   8.334  20.316  0.00  0.00    +0.212 C 
ATOM     18  C   UNL     1      10.760   9.063  21.562  0.00  0.00    +0.109 C 
ENDROOT
BRANCH   6  10
ATOM     10  C   UNL     1      14.762   9.221  21.348  0.00  0.00    +0.020 C 
BRANCH  10  13
ATOM     13  C   UNL     1      14.376   9.887  22.661  0.00  0.00    +0.084 C 
BRANCH  13   5
ATOM      5  N   UNL     1      13.576  11.077  22.397  0.00  0.00    -0.303 NA
BRANCH   5  16
ATOM     16  C   UNL     1      13.708  11.487  20.998  0.00  0.00    +0.081 C 
ATOM     19  C   UNL     1      12.481  12.252  20.531  0.00  0.00    +0.020 C 
ENDBRANCH   5  16
BRANCH   5  17
ATOM     17  C   UNL     1      13.969  12.171  23.287  0.00  0.00    +0.081 C 
ATOM     20  C   UNL     1      15.084  11.740  24.226  0.00  0.00    +0.020 C 
ENDBRANCH   5  17
ENDBRANCH  13   5
ENDBRANCH  10  13
ENDBRANCH   6  10
BRANCH   7  12
ATOM     12  C   UNL     1      16.618   7.275  19.908  0.00  0.00    +0.124 C 
BRANCH  12  15
ATOM      3  O   UNL     1      17.103   5.399  18.429  0.00  0.00    -0.251 OA
ATOM     15  C   UNL     1      17.377   6.076  19.408  0.00  0.00    +0.305 C 
BRANCH  15   2
ATOM      2  O   UNL     1      18.443   5.840  20.215  0.00  0.00    -0.481 OA
ATOM     21  H   UNL     1      19.136   5.313  19.761  0.00  0.00    +0.295 HD
ENDBRANCH  15   2
ENDBRANCH  12  15
ENDBRANCH   7  12
TORSDOF 8
ENDMDL
MODEL 2
REMARK VINA RESULT:      -4.9      2.391      4.840
REMARK  Name = 25312536
REMARK  11 active torsions:
REMARK  status: ('A' for Active; 'I' for Inactive)
REMARK    1  A    between atoms: O_2  and  C_15
REMARK    2  A    between atoms: N_5  and  C_13
REMARK    3  A    between atoms: N_5  and  C_16
REMARK    4  A    between atoms: N_5  and  C_17
REMARK    5  A    between atoms: C_6  and  C_10
REMARK    6  A    between atoms: C_7  and  C_12
REMARK    7  A    between atoms: C_10  and  C_13
REMARK    8  A    between atoms: C_12  and  C_15
REMARK    9  A    between atoms: C_14  and  C_18
REMARK   10  A    between atoms: C_16  and  C_19
REMARK   11  A    between atoms: C_17  and  C_20
REMARK                            x       y       z     vdW  Elec       q    Type
REMARK                         _______ _______ _______ _____ _____    ______ ____
ROOT
ATOM      1  O   UNL     1      16.520   7.373  21.292  0.00  0.00    -0.276 OA
ATOM      4  N   UNL     1      15.419   8.566  19.631  0.00  0.00    -0.301 N 
ATOM      6  C   UNL     1      13.497   9.917  18.821  0.00  0.00    +0.011 C 
ATOM      7  C   UNL     1      12.983   8.664  18.066  0.00  0.00    +0.006 C 
ATOM      8  C   UNL     1      15.024   9.831  18.998  0.00  0.00    +0.111 C 
ATOM      9  C   UNL     1      13.462   7.364  18.734  0.00  0.00    +0.023 C 
ATOM     11  C   UNL     1      14.977   7.365  18.925  0.00  0.00    +0.108 C 
ATOM     14  C   UNL     1      16.178   8.449  20.794  0.00  0.00    +0.212 C 
ATOM     18  C   UNL     1      16.592   9.735  21.465  0.00  0.00    +0.109 C 
ENDROOT
BRANCH   6  10
ATOM     10  C   UNL     1      12.816  10.149  20.175  0.00  0.00    +0.020 C 
BRANCH  10  13
ATOM     13  C   UNL     1      12.783  11.632  20.519  0.00  0.00    +0.084 C 
BRANCH  13   5
ATOM      5  N   UNL     1      12.392  11.810  21.912  0.00  0.00    -0.303 NA
BRANCH   5  16
ATOM     16  C   UNL     1      12.213  10.512  22.567  0.00  0.00    +0.081 C 
ATOM     19  C   UNL     1      10.924  10.475  23.370  0.00  0.00    +0.020 C 
ENDBRANCH   5  16
BRANCH   5  17
ATOM     17  C   UNL     1      11.163  12.600  22.006  0.00  0.00    +0.081 C 
ATOM     20  C   UNL     1      11.191  13.773  21.040  0.00  0.00    +0.020 C 
ENDBRANCH   5  17
ENDBRANCH  13   5
ENDBRANCH  10  13
ENDBRANCH   6  10
BRANCH   7  12
ATOM     12  C   UNL     1      11.466   8.650  17.888  0.00  0.00    +0.124 C 
BRANCH  12  15
ATOM      3  O   UNL     1      11.695   9.123  15.507  0.00  0.00    -0.251 OA
ATOM     15  C   UNL     1      11.077   8.623  16.435  0.00  0.00    +0.305 C 
BRANCH  15   2
ATOM      2  O   UNL     1       9.910   7.945  16.286  0.00  0.00    -0.481 OA
ATOM     21  H   UNL     1       9.382   8.289  15.534  0.00  0.00    +0.295 HD
ENDBRANCH  15   2
ENDBRANCH  12  15
ENDBRANCH   7  12
TORSDOF 8
ENDMDL
MODEL 3
REMARK VINA RESULT:      -4.8     25.727     27.828
REMARK  Name = 25312536
REMARK  11 active torsions:
REMARK  status: ('A' for Active; 'I' for Inactive)
REMARK    1  A    between atoms: O_2  and  C_15
REMARK    2  A    between atoms: N_5  and  C_13
REMARK    3  A    between atoms: N_5  and  C_16
REMARK    4  A    between atoms: N_5  and  C_17
REMARK    5  A    between atoms: C_6  and  C_10
REMARK    6  A    between atoms: C_7  and  C_12
REMARK    7  A    between atoms: C_10  and  C_13
REMARK    8  A    between atoms: C_12  and  C_15
REMARK    9  A    between atoms: C_14  and  C_18
REMARK   10  A    between atoms: C_16  and  C_19
REMARK   11  A    between atoms: C_17  and  C_20
REMARK                            x       y       z     vdW  Elec       q    Type
REMARK                         _______ _______ _______ _____ _____    ______ ____
ROOT
ATOM      1  O   UNL     1      -8.052 -11.259  19.008  0.00  0.00    -0.276 OA
ATOM      4  N   UNL     1      -6.435 -10.249  17.680  0.00  0.00    -0.301 N 
ATOM      6  C   UNL     1      -5.006 -10.186  15.649  0.00  0.00    +0.011 C 
ATOM      7  C   UNL     1      -3.806 -10.631  16.525  0.00  0.00    +0.006 C 
ATOM      8  C   UNL     1      -6.040  -9.446  16.515  0.00  0.00    +0.111 C 
ATOM      9  C   UNL     1      -4.270 -11.425  17.758  0.00  0.00    +0.023 C 
ATOM     11  C   UNL     1      -5.330 -10.658  18.545  0.00  0.00    +0.108 C 
ATOM     14  C   UNL     1      -7.743 -10.605  18.008  0.00  0.00    +0.212 C 
ATOM     18  C   UNL     1      -8.826 -10.149  17.063  0.00  0.00    +0.109 C 
ENDROOT
BRANCH   6  10
ATOM     10  C   UNL     1      -5.675 -11.334  14.883  0.00  0.00    +0.020 C 
BRANCH  10  13
ATOM     13  C   UNL     1      -5.928 -10.943  13.433  0.00  0.00    +0.084 C 
BRANCH  13   5
ATOM      5  N   UNL     1      -4.673 -10.569  12.794  0.00  0.00    -0.303 NA
BRANCH   5  16
ATOM     16  C   UNL     1      -4.904  -9.573  11.747  0.00  0.00    +0.081 C 
ATOM     19  C   UNL     1      -6.326  -9.039  11.800  0.00  0.00    +0.020 C 
ENDBRANCH   5  16
BRANCH   5  17
ATOM     17  C   UNL     1      -4.006 -11.747  12.236  0.00  0.00    +0.081 C 
ATOM     20  C   UNL     1      -3.051 -11.359  11.119  0.00  0.00    +0.020 C 
ENDBRANCH   5  17
ENDBRANCH  13   5
ENDBRANCH  10  13
ENDBRANCH   6  10
BRANCH   7  12
ATOM     12  C   UNL     1      -2.751 -11.415  15.746  0.00  0.00    +0.124 C 
BRANCH  12  15
ATOM      3  O   UNL     1      -1.573  -9.935  14.208  0.00  0.00    -0.251 OA
ATOM     15  C   UNL     1      -1.633 -10.525  15.276  0.00  0.00    +0.305 C 
BRANCH  15   2
ATOM      2  O   UNL     1      -0.667 -10.461  16.229  0.00  0.00    -0.481 OA
ATOM     21  H   UNL     1      -1.027 -10.631  17.126  0.00  0.00    +0.295 HD
ENDBRANCH  15   2
ENDBRANCH  12  15
ENDBRANCH   7  12
TORSDOF 8
ENDMDL
MODEL 4
REMARK VINA RESULT:      -4.8     14.018     16.376
REMARK  Name = 25312536
REMARK  11 active torsions:
REMARK  status: ('A' for Active; 'I' for Inactive)
REMARK    1  A    between atoms: O_2  and  C_15
REMARK    2  A    between atoms: N_5  and  C_13
REMARK    3  A    between atoms: N_5  and  C_16
REMARK    4  A    between atoms: N_5  and  C_17
REMARK    5  A    between atoms: C_6  and  C_10
REMARK    6  A    between atoms: C_7  and  C_12
REMARK    7  A    between atoms: C_10  and  C_13
REMARK    8  A    between atoms: C_12  and  C_15
REMARK    9  A    between atoms: C_14  and  C_18
REMARK   10  A    between atoms: C_16  and  C_19
REMARK   11  A    between atoms: C_17  and  C_20
REMARK                            x       y       z     vdW  Elec       q    Type
REMARK                         _______ _______ _______ _____ _____    ______ ____
ROOT
ATOM      1  O   UNL     1       9.727  11.204   5.595  0.00  0.00    -0.276 OA
ATOM      4  N   UNL     1      10.625   9.270   6.518  0.00  0.00    -0.301 N 
ATOM      6  C   UNL     1      10.751   6.796   6.708  0.00  0.00    +0.011 C 
ATOM      7  C   UNL     1       9.960   6.895   8.038  0.00  0.00    +0.006 C 
ATOM      8  C   UNL     1      11.518   8.107   6.457  0.00  0.00    +0.111 C 
ATOM      9  C   UNL     1       9.077   8.154   8.078  0.00  0.00    +0.023 C 
ATOM     11  C   UNL     1       9.888   9.411   7.773  0.00  0.00    +0.108 C 
ATOM     14  C   UNL     1      10.466  10.219   5.509  0.00  0.00    +0.212 C 
ATOM     18  C   UNL     1      11.258  10.001   4.244  0.00  0.00    +0.109 C 
ENDROOT
BRANCH   6  10
ATOM     10  C   UNL     1       9.883   6.446   5.493  0.00  0.00    +0.020 C 
BRANCH  10  13
ATOM     13  C   UNL     1      10.301   5.110   4.895  0.00  0.00    +0.084 C 
BRANCH  13   5
ATOM      5  N   UNL     1      11.066   5.332   3.673  0.00  0.00    -0.303 NA
BRANCH   5  16
ATOM     16  C   UNL     1      10.712   6.617   3.069  0.00  0.00    +0.081 C 
ATOM     19  C   UNL     1       9.917   6.423   1.789  0.00  0.00    +0.020 C 
ENDBRANCH   5  16
BRANCH   5  17
ATOM     17  C   UNL     1      10.843   4.244   2.720  0.00  0.00    +0.081 C 
ATOM     20  C   UNL     1      12.158   3.732   2.154  0.00  0.00    +0.020 C 
ENDBRANCH   5  17
ENDBRANCH  13   5
ENDBRANCH  10  13
ENDBRANCH   6  10
BRANCH   7  12
ATOM     12  C   UNL     1       9.132   5.647   8.339  0.00  0.00    +0.124 C 
BRANCH  12  15
ATOM      3  O   UNL     1      10.035   4.676  10.386  0.00  0.00    -0.251 OA
ATOM     15  C   UNL     1       9.902   4.658   9.171  0.00  0.00    +0.305 C 
BRANCH  15   2
ATOM      2  O   UNL     1      10.450   3.711   8.366  0.00  0.00    -0.481 OA
ATOM     21  H   UNL     1      11.305   4.005   7.985  0.00  0.00    +0.295 HD
ENDBRANCH  15   2
ENDBRANCH  12  15
ENDBRANCH   7  12
TORSDOF 8
ENDMDL
MODEL 5
REMARK VINA RESULT:      -4.8     16.111     18.477
REMARK  Name = 25312536
REMARK  11 active torsions:
REMARK  status: ('A' for Active; 'I' for Inactive)
REMARK    1  A    between atoms: O_2  and  C_15
REMARK    2  A    between atoms: N_5  and  C_13
REMARK    3  A    between atoms: N_5  and  C_16
REMARK    4  A    between atoms: N_5  and  C_17
REMARK    5  A    between atoms: C_6  and  C_10
REMARK    6  A    between atoms: C_7  and  C_12
REMARK    7  A    between atoms: C_10  and  C_13
REMARK    8  A    between atoms: C_12  and  C_15
REMARK    9  A    between atoms: C_14  and  C_18
REMARK   10  A    between atoms: C_16  and  C_19
REMARK   11  A    between atoms: C_17  and  C_20
REMARK                            x       y       z     vdW  Elec       q    Type
REMARK                         _______ _______ _______ _____ _____    ______ ____
ROOT
ATOM      1  O   UNL     1       7.814   8.643   1.967  0.00  0.00    -0.276 OA
ATOM      4  N   UNL     1       9.326   8.014   3.614  0.00  0.00    -0.301 N 
ATOM      6  C   UNL     1      10.760   6.320   4.731  0.00  0.00    +0.011 C 
ATOM      7  C   UNL     1       9.704   6.226   5.862  0.00  0.00    +0.006 C 
ATOM      8  C   UNL     1      10.690   7.705   4.063  0.00  0.00    +0.111 C 
ATOM      9  C   UNL     1       8.301   6.607   5.360  0.00  0.00    +0.023 C 
ATOM     11  C   UNL     1       8.311   7.967   4.665  0.00  0.00    +0.108 C 
ATOM     14  C   UNL     1       8.964   8.362   2.314  0.00  0.00    +0.212 C 
ATOM     18  C   UNL     1      10.069   8.384   1.287  0.00  0.00    +0.109 C 
ENDROOT
BRANCH   6  10
ATOM     10  C   UNL     1      10.640   5.214   3.676  0.00  0.00    +0.020 C 
BRANCH  10  13
ATOM     13  C   UNL     1      11.806   5.267   2.698  0.00  0.00    +0.084 C 
BRANCH  13   5
ATOM      5  N   UNL     1      11.627   4.263   1.657  0.00  0.00    -0.303 NA
BRANCH   5  16
ATOM     16  C   UNL     1      12.713   3.282   1.694  0.00  0.00    +0.081 C 
ATOM     19  C   UNL     1      13.779   3.603   0.660  0.00  0.00    +0.020 C 
ENDBRANCH   5  16
BRANCH   5  17
ATOM     17  C   UNL     1      11.556   4.893   0.338  0.00  0.00    +0.081 C 
ATOM     20  C   UNL     1      10.118   5.002  -0.142  0.00  0.00    +0.020 C 
ENDBRANCH   5  17
ENDBRANCH  13   5
ENDBRANCH  10  13
ENDBRANCH   6  10
BRANCH   7  12
ATOM     12  C   UNL     1       9.678   4.862   6.549  0.00  0.00    +0.124 C 
BRANCH  12  15
ATOM      3  O   UNL     1       9.985   5.985   8.691  0.00  0.00    -0.251 OA
ATOM     15  C   UNL     1      10.011   4.970   8.011  0.00  0.00    +0.305 C 
BRANCH  15   2
ATOM      2  O   UNL     1      10.357   3.748   8.494  0.00  0.00    -0.481 OA
ATOM     21  H   UNL     1       9.812   3.033   8.100  0.00  0.00    +0.295 HD
ENDBRANCH  15   2
ENDBRANCH  12  15
ENDBRANCH   7  12
TORSDOF 8
ENDMDL
MODEL 6
REMARK VINA RESULT:      -4.7     25.295     26.680
REMARK  Name = 25312536
REMARK  11 active torsions:
REMARK  status: ('A' for Active; 'I' for Inactive)
REMARK    1  A    between atoms: O_2  and  C_15
REMARK    2  A    between atoms: N_5  and  C_13
REMARK    3  A    between atoms: N_5  and  C_16
REMARK    4  A    between atoms: N_5  and  C_17
REMARK    5  A    between atoms: C_6  and  C_10
REMARK    6  A    between atoms: C_7  and  C_12
REMARK    7  A    between atoms: C_10  and  C_13
REMARK    8  A    between atoms: C_12  and  C_15
REMARK    9  A    between atoms: C_14  and  C_18
REMARK   10  A    between atoms: C_16  and  C_19
REMARK   11  A    between atoms: C_17  and  C_20
REMARK                            x       y       z     vdW  Elec       q    Type
REMARK                         _______ _______ _______ _____ _____    ______ ____
ROOT
ATOM      1  O   UNL     1     -12.437  12.270  19.691  0.00  0.00    -0.276 OA
ATOM      4  N   UNL     1     -11.515  10.203  20.213  0.00  0.00    -0.301 N 
ATOM      6  C   UNL     1     -11.231   7.770  19.797  0.00  0.00    +0.011 C 
ATOM      7  C   UNL     1     -12.177   7.493  20.994  0.00  0.00    +0.006 C 
ATOM      8  C   UNL     1     -10.538   9.131  19.982  0.00  0.00    +0.111 C 
ATOM      9  C   UNL     1     -13.148   8.662  21.231  0.00  0.00    +0.023 C 
ATOM     11  C   UNL     1     -12.400   9.987  21.356  0.00  0.00    +0.108 C 
ATOM     14  C   UNL     1     -11.624  11.371  19.460  0.00  0.00    +0.212 C 
ATOM     18  C   UNL     1     -10.677  11.517  18.296  0.00  0.00    +0.109 C 
ENDROOT
BRANCH   6  10
ATOM     10  C   UNL     1     -11.925   7.707  18.430  0.00  0.00    +0.020 C 
BRANCH  10  13
ATOM     13  C   UNL     1     -10.946   8.032  17.310  0.00  0.00    +0.084 C 
BRANCH  13   5
ATOM      5  N   UNL     1     -11.677   8.337  16.086  0.00  0.00    -0.303 NA
BRANCH   5  16
ATOM     16  C   UNL     1     -10.774   8.868  15.064  0.00  0.00    +0.081 C 
ATOM     19  C   UNL     1     -10.440   7.813  14.023  0.00  0.00    +0.020 C 
ENDBRANCH   5  16
BRANCH   5  17
ATOM     17  C   UNL     1     -12.757   9.288  16.354  0.00  0.00    +0.081 C 
ATOM     20  C   UNL     1     -12.798  10.381  15.298  0.00  0.00    +0.020 C 
ENDBRANCH   5  17
ENDBRANCH  13   5
ENDBRANCH  10  13
ENDBRANCH   6  10
BRANCH   7  12
ATOM     12  C   UNL     1     -12.940   6.176  20.865  0.00  0.00    +0.124 C 
BRANCH  12  15
ATOM      3  O   UNL     1     -14.196   5.886  22.934  0.00  0.00    -0.251 OA
ATOM     15  C   UNL     1     -13.259   5.585  22.211  0.00  0.00    +0.305 C 
BRANCH  15   2
ATOM      2  O   UNL     1     -12.336   4.639  22.526  0.00  0.00    -0.481 OA
ATOM     21  H   UNL     1     -12.129   4.637  23.485  0.00  0.00    +0.295 HD
ENDBRANCH  15   2
ENDBRANCH  12  15
ENDBRANCH   7  12
TORSDOF 8
ENDMDL
MODEL 7
REMARK VINA RESULT:      -4.6     26.107     28.457
REMARK  Name = 25312536
REMARK  11 active torsions:
REMARK  status: ('A' for Active; 'I' for Inactive)
REMARK    1  A    between atoms: O_2  and  C_15
REMARK    2  A    between atoms: N_5  and  C_13
REMARK    3  A    between atoms: N_5  and  C_16
REMARK    4  A    between atoms: N_5  and  C_17
REMARK    5  A    between atoms: C_6  and  C_10
REMARK    6  A    between atoms: C_7  and  C_12
REMARK    7  A    between atoms: C_10  and  C_13
REMARK    8  A    between atoms: C_12  and  C_15
REMARK    9  A    between atoms: C_14  and  C_18
REMARK   10  A    between atoms: C_16  and  C_19
REMARK   11  A    between atoms: C_17  and  C_20
REMARK                            x       y       z     vdW  Elec       q    Type
REMARK                         _______ _______ _______ _____ _____    ______ ____
ROOT
ATOM      1  O   UNL     1      -7.992 -13.381  19.217  0.00  0.00    -0.276 OA
ATOM      4  N   UNL     1      -6.327 -11.829  18.756  0.00  0.00    -0.301 N 
ATOM      6  C   UNL     1      -5.238 -10.176  17.254  0.00  0.00    +0.011 C 
ATOM      7  C   UNL     1      -4.144 -11.231  16.948  0.00  0.00    +0.006 C 
ATOM      8  C   UNL     1      -5.850 -10.445  18.640  0.00  0.00    +0.111 C 
ATOM      9  C   UNL     1      -4.673 -12.664  17.130  0.00  0.00    +0.023 C 
ATOM     11  C   UNL     1      -5.310 -12.849  18.505  0.00  0.00    +0.108 C 
ATOM     14  C   UNL     1      -7.623 -12.210  19.101  0.00  0.00    +0.212 C 
ATOM     18  C   UNL     1      -8.614 -11.099  19.340  0.00  0.00    +0.109 C 
ENDROOT
BRANCH   6  10
ATOM     10  C   UNL     1      -6.340 -10.097  16.191  0.00  0.00    +0.020 C 
BRANCH  10  13
ATOM     13  C   UNL     1      -7.469  -9.183  16.646  0.00  0.00    +0.084 C 
BRANCH  13   5
ATOM      5  N   UNL     1      -8.669  -9.447  15.860  0.00  0.00    -0.303 NA
BRANCH   5  16
ATOM     16  C   UNL     1      -8.316  -9.795  14.483  0.00  0.00    +0.081 C 
ATOM     19  C   UNL     1      -9.516  -9.669  13.560  0.00  0.00    +0.020 C 
ENDBRANCH   5  16
BRANCH   5  17
ATOM     17  C   UNL     1      -9.563  -8.288  15.879  0.00  0.00    +0.081 C 
ATOM     20  C   UNL     1      -9.950  -7.916  17.301  0.00  0.00    +0.020 C 
ENDBRANCH   5  17
ENDBRANCH  13   5
ENDBRANCH  10  13
ENDBRANCH   6  10
BRANCH   7  12
ATOM     12  C   UNL     1      -3.515 -11.061  15.566  0.00  0.00    +0.124 C 
BRANCH  12  15
ATOM      3  O   UNL     1      -1.439 -10.024  14.817  0.00  0.00    -0.251 OA
ATOM     15  C   UNL     1      -2.074 -10.639  15.660  0.00  0.00    +0.305 C 
BRANCH  15   2
ATOM      2  O   UNL     1      -1.554 -11.047  16.847  0.00  0.00    -0.481 OA
ATOM     21  H   UNL     1      -1.394 -12.016  16.862  0.00  0.00    +0.295 HD
ENDBRANCH  15   2
ENDBRANCH  12  15
ENDBRANCH   7  12
TORSDOF 8
ENDMDL
MODEL 8
REMARK VINA RESULT:      -4.6     26.988     29.220
REMARK  Name = 25312536
REMARK  11 active torsions:
REMARK  status: ('A' for Active; 'I' for Inactive)
REMARK    1  A    between atoms: O_2  and  C_15
REMARK    2  A    between atoms: N_5  and  C_13
REMARK    3  A    between atoms: N_5  and  C_16
REMARK    4  A    between atoms: N_5  and  C_17
REMARK    5  A    between atoms: C_6  and  C_10
REMARK    6  A    between atoms: C_7  and  C_12
REMARK    7  A    between atoms: C_10  and  C_13
REMARK    8  A    between atoms: C_12  and  C_15
REMARK    9  A    between atoms: C_14  and  C_18
REMARK   10  A    between atoms: C_16  and  C_19
REMARK   11  A    between atoms: C_17  and  C_20
REMARK                            x       y       z     vdW  Elec       q    Type
REMARK                         _______ _______ _______ _____ _____    ______ ____
ROOT
ATOM      1  O   UNL     1      -2.404 -10.522  15.449  0.00  0.00    -0.276 OA
ATOM      4  N   UNL     1      -4.415 -11.400  16.211  0.00  0.00    -0.301 N 
ATOM      6  C   UNL     1      -6.758 -11.133  16.993  0.00  0.00    +0.011 C 
ATOM      7  C   UNL     1      -6.263 -11.381  18.441  0.00  0.00    +0.006 C 
ATOM      8  C   UNL     1      -5.807 -11.813  15.992  0.00  0.00    +0.111 C 
ATOM      9  C   UNL     1      -4.787 -10.981  18.611  0.00  0.00    +0.023 C 
ATOM     11  C   UNL     1      -3.907 -11.651  17.559  0.00  0.00    +0.108 C 
ATOM     14  C   UNL     1      -3.580 -10.837  15.247  0.00  0.00    +0.212 C 
ATOM     18  C   UNL     1      -4.179 -10.607  13.882  0.00  0.00    +0.109 C 
ENDROOT
BRANCH   6  10
ATOM     10  C   UNL     1      -6.931  -9.651  16.640  0.00  0.00    +0.020 C 
BRANCH  10  13
ATOM     13  C   UNL     1      -8.283  -9.403  15.986  0.00  0.00    +0.084 C 
BRANCH  13   5
ATOM      5  N   UNL     1      -9.331  -9.403  17.000  0.00  0.00    -0.303 NA
BRANCH   5  16
ATOM     16  C   UNL     1     -10.541 -10.052  16.491  0.00  0.00    +0.081 C 
ATOM     19  C   UNL     1     -10.369 -11.560  16.425  0.00  0.00    +0.020 C 
ENDBRANCH   5  16
BRANCH   5  17
ATOM     17  C   UNL     1      -9.631  -8.037  17.432  0.00  0.00    +0.081 C 
ATOM     20  C   UNL     1     -10.418  -7.286  16.370  0.00  0.00    +0.020 C 
ENDBRANCH   5  17
ENDBRANCH  13   5
ENDBRANCH  10  13
ENDBRANCH   6  10
BRANCH   7  12
ATOM     12  C   UNL     1      -7.131 -10.698  19.498  0.00  0.00    +0.124 C 
BRANCH  12  15
ATOM      3  O   UNL     1      -8.690 -12.572  19.497  0.00  0.00    -0.251 OA
ATOM     15  C   UNL     1      -8.462 -11.382  19.648  0.00  0.00    +0.305 C 
BRANCH  15   2
ATOM      2  O   UNL     1      -9.409 -10.469  19.987  0.00  0.00    -0.481 OA
ATOM     21  H   UNL     1      -9.150  -9.951  20.780  0.00  0.00    +0.295 HD
ENDBRANCH  15   2
ENDBRANCH  12  15
ENDBRANCH   7  12
TORSDOF 8
ENDMDL
MODEL 9
REMARK VINA RESULT:      -4.5     25.198     27.151
REMARK  Name = 25312536
REMARK  11 active torsions:
REMARK  status: ('A' for Active; 'I' for Inactive)
REMARK    1  A    between atoms: O_2  and  C_15
REMARK    2  A    between atoms: N_5  and  C_13
REMARK    3  A    between atoms: N_5  and  C_16
REMARK    4  A    between atoms: N_5  and  C_17
REMARK    5  A    between atoms: C_6  and  C_10
REMARK    6  A    between atoms: C_7  and  C_12
REMARK    7  A    between atoms: C_10  and  C_13
REMARK    8  A    between atoms: C_12  and  C_15
REMARK    9  A    between atoms: C_14  and  C_18
REMARK   10  A    between atoms: C_16  and  C_19
REMARK   11  A    between atoms: C_17  and  C_20
REMARK                            x       y       z     vdW  Elec       q    Type
REMARK                         _______ _______ _______ _____ _____    ______ ____
ROOT
ATOM      1  O   UNL     1      -9.686   9.437  18.198  0.00  0.00    -0.276 OA
ATOM      4  N   UNL     1     -11.828   8.928  18.938  0.00  0.00    -0.301 N 
ATOM      6  C   UNL     1     -13.544   8.789  20.729  0.00  0.00    +0.011 C 
ATOM      7  C   UNL     1     -13.315   7.256  20.778  0.00  0.00    +0.006 C 
ATOM      8  C   UNL     1     -13.185   9.328  19.332  0.00  0.00    +0.111 C 
ATOM      9  C   UNL     1     -11.899   6.881  20.309  0.00  0.00    +0.023 C 
ATOM     11  C   UNL     1     -11.589   7.486  18.942  0.00  0.00    +0.108 C 
ATOM     14  C   UNL     1     -10.811   9.800  18.551  0.00  0.00    +0.212 C 
ATOM     18  C   UNL     1     -11.135  11.273  18.577  0.00  0.00    +0.109 C 
ENDROOT
BRANCH   6  10
ATOM     10  C   UNL     1     -12.784   9.566  21.811  0.00  0.00    +0.020 C 
BRANCH  10  13
ATOM     13  C   UNL     1     -13.054  11.060  21.697  0.00  0.00    +0.084 C 
BRANCH  13   5
ATOM      5  N   UNL     1     -12.933  11.687  23.008  0.00  0.00    -0.303 NA
BRANCH   5  16
ATOM     16  C   UNL     1     -12.769  10.673  24.052  0.00  0.00    +0.081 C 
ATOM     19  C   UNL     1     -11.670  11.061  25.026  0.00  0.00    +0.020 C 
ENDBRANCH   5  16
BRANCH   5  17
ATOM     17  C   UNL     1     -14.102  12.521  23.291  0.00  0.00    +0.081 C 
ATOM     20  C   UNL     1     -15.215  11.708  23.931  0.00  0.00    +0.020 C 
ENDBRANCH   5  17
ENDBRANCH  13   5
ENDBRANCH  10  13
ENDBRANCH   6  10
BRANCH   7  12
ATOM     12  C   UNL     1     -13.608   6.648  22.148  0.00  0.00    +0.124 C 
BRANCH  12  15
ATOM      3  O   UNL     1     -14.908   4.678  21.541  0.00  0.00    -0.251 OA
ATOM     15  C   UNL     1     -13.917   5.180  22.050  0.00  0.00    +0.305 C 
BRANCH  15   2
ATOM      2  O   UNL     1     -12.915   4.462  22.620  0.00  0.00    -0.481 OA
ATOM     21  H   UNL     1     -12.629   4.849  23.475  0.00  0.00    +0.295 HD
ENDBRANCH  15   2
ENDBRANCH  12  15
ENDBRANCH   7  12
TORSDOF 8
ENDMDL
MODEL 10
REMARK VINA RESULT:      -4.4     25.771     28.377
REMARK  Name = 25312536
REMARK  11 active torsions:
REMARK  status: ('A' for Active; 'I' for Inactive)
REMARK    1  A    between atoms: O_2  and  C_15
REMARK    2  A    between atoms: N_5  and  C_13
REMARK    3  A    between atoms: N_5  and  C_16
REMARK    4  A    between atoms: N_5  and  C_17
REMARK    5  A    between atoms: C_6  and  C_10
REMARK    6  A    between atoms: C_7  and  C_12
REMARK    7  A    between atoms: C_10  and  C_13
REMARK    8  A    between atoms: C_12  and  C_15
REMARK    9  A    between atoms: C_14  and  C_18
REMARK   10  A    between atoms: C_16  and  C_19
REMARK   11  A    between atoms: C_17  and  C_20
REMARK                            x       y       z     vdW  Elec       q    Type
REMARK                         _______ _______ _______ _____ _____    ______ ____
ROOT
ATOM      1  O   UNL     1      14.670  -9.135  -5.015  0.00  0.00    -0.276 OA
ATOM      4  N   UNL     1      15.998  -7.230  -5.056  0.00  0.00    -0.301 N 
ATOM      6  C   UNL     1      17.461  -5.563  -3.936  0.00  0.00    +0.011 C 
ATOM      7  C   UNL     1      16.274  -4.565  -3.954  0.00  0.00    +0.006 C 
ATOM      8  C   UNL     1      17.311  -6.574  -5.087  0.00  0.00    +0.111 C 
ATOM      9  C   UNL     1      14.920  -5.296  -3.972  0.00  0.00    +0.023 C 
ATOM     11  C   UNL     1      14.857  -6.317  -5.105  0.00  0.00    +0.108 C 
ATOM     14  C   UNL     1      15.785  -8.607  -5.014  0.00  0.00    +0.212 C 
ATOM     18  C   UNL     1      17.013  -9.481  -4.961  0.00  0.00    +0.109 C 
ENDROOT
BRANCH   6  10
ATOM     10  C   UNL     1      17.635  -6.298  -2.602  0.00  0.00    +0.020 C 
BRANCH  10  13
ATOM     13  C   UNL     1      19.088  -6.261  -2.148  0.00  0.00    +0.084 C 
BRANCH  13   5
ATOM      5  N   UNL     1      19.435  -4.917  -1.704  0.00  0.00    -0.303 NA
BRANCH   5  16
ATOM     16  C   UNL     1      20.848  -4.636  -1.964  0.00  0.00    +0.081 C 
ATOM     19  C   UNL     1      21.049  -3.199  -2.415  0.00  0.00    +0.020 C 
ENDBRANCH   5  16
BRANCH   5  17
ATOM     17  C   UNL     1      19.138  -4.751  -0.280  0.00  0.00    +0.081 C 
ATOM     20  C   UNL     1      20.148  -5.493   0.581  0.00  0.00    +0.020 C 
ENDBRANCH   5  17
ENDBRANCH  13   5
ENDBRANCH  10  13
ENDBRANCH   6  10
BRANCH   7  12
ATOM     12  C   UNL     1      16.324  -3.552  -2.812  0.00  0.00    +0.124 C 
BRANCH  12  15
ATOM      3  O   UNL     1      17.626  -2.010  -4.179  0.00  0.00    -0.251 OA
ATOM     15  C   UNL     1      17.317  -2.456  -3.085  0.00  0.00    +0.305 C 
BRANCH  15   2
ATOM      2  O   UNL     1      17.843  -2.013  -1.913  0.00  0.00    -0.481 OA
ATOM     21  H   UNL     1      17.840  -1.033  -1.860  0.00  0.00    +0.295 HD
ENDBRANCH  15   2
ENDBRANCH  12  15
ENDBRANCH   7  12
TORSDOF 8
ENDMDL
