MODEL 1
REMARK VINA RESULT:      -7.2      0.000      0.000
REMARK  Name = 71693153
REMARK  12 active torsions:
REMARK  status: ('A' for Active; 'I' for Inactive)
REMARK    1  A    between atoms: N_2  and  C_13
REMARK    2  A    between atoms: N_5  and  C_26
REMARK    3  A    between atoms: C_6  and  C_10
REMARK    4  A    between atoms: C_7  and  C_13
REMARK    5  A    between atoms: C_9  and  C_14
REMARK    6  A    between atoms: C_10  and  C_15
REMARK    7  A    between atoms: C_10  and  C_16
REMARK    8  A    between atoms: C_11  and  C_17
REMARK    9  A    between atoms: C_14  and  C_18
REMARK   10  A    between atoms: C_22  and  C_27
REMARK   11  A    between atoms: C_26  and  C_28
REMARK   12  A    between atoms: C_28  and  C_29
REMARK                            x       y       z     vdW  Elec       q    Type
REMARK                         _______ _______ _______ _____ _____    ______ ____
ROOT
ATOM      6  C   UNL     1      13.577   8.252  19.095  0.00  0.00    +0.000 C 
ATOM      7  C   UNL     1      15.111   8.077  19.226  0.00  0.00    +0.032 C 
ATOM      8  C   UNL     1      13.183   9.720  19.319  0.00  0.00    +0.012 C 
ATOM      9  C   UNL     1      13.617  10.235  20.705  0.00  0.00    +0.022 C 
ATOM     11  C   UNL     1      15.052   9.863  21.020  0.00  0.00    -0.073 C 
ATOM     12  C   UNL     1      15.707   8.906  20.339  0.00  0.00    -0.022 C 
ATOM     17  C   UNL     1      15.732  10.649  22.105  0.00  0.00    +0.039 C 
ENDROOT
BRANCH   6  10
ATOM     10  C   UNL     1      13.065   7.779  17.731  0.00  0.00    -0.013 C 
ATOM     15  C   UNL     1      11.684   8.364  17.450  0.00  0.00    +0.007 C 
ATOM     16  C   UNL     1      14.049   8.164  16.631  0.00  0.00    +0.007 C 
ENDBRANCH   6  10
BRANCH   7  13
ATOM     13  C   UNL     1      15.485   6.604  19.429  0.00  0.00    +0.113 C 
BRANCH  13   2
ATOM      1  O   UNL     1      17.452   6.252  21.511  0.00  0.00    -0.253 OA
ATOM      2  N   UNL     1      16.891   6.410  19.261  0.00  0.00    -0.299 N 
ATOM      5  N   UNL     1      19.093   6.075  19.880  0.00  0.00    -0.299 N 
ATOM     19  C   UNL     1      17.785   6.246  20.326  0.00  0.00    +0.300 C 
ATOM     30  H   UNL     1      17.259   6.321  18.319  0.00  0.00    +0.150 HD
ATOM     32  H   UNL     1      19.274   6.093  18.881  0.00  0.00    +0.150 HD
BRANCH   5  26
ATOM     26  C   UNL     1      20.208   5.885  20.778  0.00  0.00    +0.105 C 
BRANCH  26  28
ATOM     28  C   UNL     1      20.955   4.585  20.509  0.00  0.00    +0.015 C 
ATOM     29  C   UNL     1      21.712   4.078  21.728  0.00  0.00    +0.005 C 
ENDBRANCH  26  28
ENDBRANCH   5  26
ENDBRANCH  13   2
ENDBRANCH   7  13
BRANCH   9  14
ATOM     14  C   UNL     1      12.669   9.737  21.801  0.00  0.00    +0.082 C 
BRANCH  14  18
ATOM      3  N   UNL     1      12.100  10.991  23.890  0.00  0.00    -0.342 N 
ATOM      4  N   UNL     1      11.341  11.868  21.995  0.00  0.00    -0.232 NA
ATOM     18  C   UNL     1      12.023  10.881  22.529  0.00  0.00    +0.109 A 
ATOM     20  C   UNL     1      11.423  12.124  24.258  0.00  0.00    +0.066 A 
ATOM     21  C   UNL     1      10.957  12.654  23.057  0.00  0.00    +0.092 A 
ATOM     22  C   UNL     1      10.208  13.843  23.078  0.00  0.00    -0.023 A 
ATOM     23  C   UNL     1      11.185  12.714  25.499  0.00  0.00    +0.028 A 
ATOM     24  C   UNL     1       9.956  14.452  24.314  0.00  0.00    +0.005 A 
ATOM     25  C   UNL     1      10.436  13.896  25.502  0.00  0.00    +0.002 A 
ATOM     27  C   UNL     1       9.673  14.476  21.836  0.00  0.00    +0.046 C 
ATOM     31  H   UNL     1      12.573  10.352  24.515  0.00  0.00    +0.167 HD
ENDBRANCH  14  18
ENDBRANCH   9  14
TORSDOF 7
ENDMDL
MODEL 2
REMARK VINA RESULT:      -7.1      2.560      5.025
REMARK  Name = 71693153
REMARK  12 active torsions:
REMARK  status: ('A' for Active; 'I' for Inactive)
REMARK    1  A    between atoms: N_2  and  C_13
REMARK    2  A    between atoms: N_5  and  C_26
REMARK    3  A    between atoms: C_6  and  C_10
REMARK    4  A    between atoms: C_7  and  C_13
REMARK    5  A    between atoms: C_9  and  C_14
REMARK    6  A    between atoms: C_10  and  C_15
REMARK    7  A    between atoms: C_10  and  C_16
REMARK    8  A    between atoms: C_11  and  C_17
REMARK    9  A    between atoms: C_14  and  C_18
REMARK   10  A    between atoms: C_22  and  C_27
REMARK   11  A    between atoms: C_26  and  C_28
REMARK   12  A    between atoms: C_28  and  C_29
REMARK                            x       y       z     vdW  Elec       q    Type
REMARK                         _______ _______ _______ _____ _____    ______ ____
ROOT
ATOM      6  C   UNL     1      14.937   9.027  21.085  0.00  0.00    +0.000 C 
ATOM      7  C   UNL     1      15.097   7.578  20.561  0.00  0.00    +0.032 C 
ATOM      8  C   UNL     1      14.036   9.050  22.330  0.00  0.00    +0.012 C 
ATOM      9  C   UNL     1      12.636   8.475  22.047  0.00  0.00    +0.022 C 
ATOM     11  C   UNL     1      12.707   7.166  21.288  0.00  0.00    -0.073 C 
ATOM     12  C   UNL     1      13.820   6.776  20.641  0.00  0.00    -0.022 C 
ATOM     17  C   UNL     1      11.484   6.292  21.327  0.00  0.00    +0.039 C 
ENDROOT
BRANCH   6  10
ATOM     10  C   UNL     1      16.289   9.667  21.411  0.00  0.00    -0.013 C 
ATOM     15  C   UNL     1      17.362   8.593  21.565  0.00  0.00    +0.007 C 
ATOM     16  C   UNL     1      16.678  10.668  20.328  0.00  0.00    +0.007 C 
ENDBRANCH   6  10
BRANCH   7  13
ATOM     13  C   UNL     1      15.617   7.566  19.118  0.00  0.00    +0.113 C 
BRANCH  13   2
ATOM      1  O   UNL     1      14.743   9.801  17.516  0.00  0.00    -0.253 OA
ATOM      2  N   UNL     1      14.533   7.585  18.188  0.00  0.00    -0.299 N 
ATOM      5  N   UNL     1      13.079   8.458  16.615  0.00  0.00    -0.299 N 
ATOM     19  C   UNL     1      14.168   8.715  17.444  0.00  0.00    +0.300 C 
ATOM     30  H   UNL     1      14.037   6.720  18.003  0.00  0.00    +0.150 HD
ATOM     32  H   UNL     1      12.664   7.531  16.629  0.00  0.00    +0.150 HD
BRANCH   5  26
ATOM     26  C   UNL     1      12.505   9.455  15.743  0.00  0.00    +0.105 C 
BRANCH  26  28
ATOM     28  C   UNL     1      10.993   9.317  15.618  0.00  0.00    +0.015 C 
ATOM     29  C   UNL     1      10.382   8.503  16.751  0.00  0.00    +0.005 C 
ENDBRANCH  26  28
ENDBRANCH   5  26
ENDBRANCH  13   2
ENDBRANCH   7  13
BRANCH   9  14
ATOM     14  C   UNL     1      11.761   9.491  21.306  0.00  0.00    +0.082 C 
BRANCH  14  18
ATOM      3  N   UNL     1      11.351  10.551  23.536  0.00  0.00    -0.342 N 
ATOM      4  N   UNL     1      11.194  11.900  21.778  0.00  0.00    -0.232 NA
ATOM     18  C   UNL     1      11.432  10.671  22.177  0.00  0.00    +0.109 A 
ATOM     20  C   UNL     1      11.040  11.783  24.048  0.00  0.00    +0.066 A 
ATOM     21  C   UNL     1      10.947  12.609  22.930  0.00  0.00    +0.092 A 
ATOM     22  C   UNL     1      10.635  13.967  23.107  0.00  0.00    -0.023 A 
ATOM     23  C   UNL     1      10.838  12.234  25.353  0.00  0.00    +0.028 A 
ATOM     24  C   UNL     1      10.427  14.442  24.409  0.00  0.00    +0.005 A 
ATOM     25  C   UNL     1      10.528  13.589  25.510  0.00  0.00    +0.002 A 
ATOM     27  C   UNL     1      10.516  14.919  21.962  0.00  0.00    +0.046 C 
ATOM     31  H   UNL     1      11.495   9.704  24.071  0.00  0.00    +0.167 HD
ENDBRANCH  14  18
ENDBRANCH   9  14
TORSDOF 7
ENDMDL
MODEL 3
REMARK VINA RESULT:      -6.9      3.298      5.133
REMARK  Name = 71693153
REMARK  12 active torsions:
REMARK  status: ('A' for Active; 'I' for Inactive)
REMARK    1  A    between atoms: N_2  and  C_13
REMARK    2  A    between atoms: N_5  and  C_26
REMARK    3  A    between atoms: C_6  and  C_10
REMARK    4  A    between atoms: C_7  and  C_13
REMARK    5  A    between atoms: C_9  and  C_14
REMARK    6  A    between atoms: C_10  and  C_15
REMARK    7  A    between atoms: C_10  and  C_16
REMARK    8  A    between atoms: C_11  and  C_17
REMARK    9  A    between atoms: C_14  and  C_18
REMARK   10  A    between atoms: C_22  and  C_27
REMARK   11  A    between atoms: C_26  and  C_28
REMARK   12  A    between atoms: C_28  and  C_29
REMARK                            x       y       z     vdW  Elec       q    Type
REMARK                         _______ _______ _______ _____ _____    ______ ____
ROOT
ATOM      6  C   UNL     1      13.774   8.972  19.778  0.00  0.00    +0.000 C 
ATOM      7  C   UNL     1      13.854   7.530  19.218  0.00  0.00    +0.032 C 
ATOM      8  C   UNL     1      13.549   8.945  21.298  0.00  0.00    +0.012 C 
ATOM      9  C   UNL     1      12.258   8.199  21.683  0.00  0.00    +0.022 C 
ATOM     11  C   UNL     1      12.134   6.875  20.957  0.00  0.00    -0.073 C 
ATOM     12  C   UNL     1      12.866   6.589  19.865  0.00  0.00    -0.022 C 
ATOM     17  C   UNL     1      11.184   5.868  21.542  0.00  0.00    +0.039 C 
ENDROOT
BRANCH   6  10
ATOM     10  C   UNL     1      15.035   9.779  19.454  0.00  0.00    -0.013 C 
ATOM     15  C   UNL     1      14.711  11.268  19.386  0.00  0.00    +0.007 C 
ATOM     16  C   UNL     1      16.120   9.509  20.492  0.00  0.00    +0.007 C 
ENDBRANCH   6  10
BRANCH   7  13
ATOM     13  C   UNL     1      13.653   7.515  17.698  0.00  0.00    +0.113 C 
BRANCH  13   2
ATOM      1  O   UNL     1      14.190   8.591  15.075  0.00  0.00    -0.253 OA
ATOM      2  N   UNL     1      13.320   8.819  17.218  0.00  0.00    -0.299 N 
ATOM      5  N   UNL     1      13.180  10.577  15.721  0.00  0.00    -0.299 N 
ATOM     19  C   UNL     1      13.616   9.270  15.925  0.00  0.00    +0.300 C 
ATOM     30  H   UNL     1      12.782   9.435  17.819  0.00  0.00    +0.150 HD
ATOM     32  H   UNL     1      12.722  11.063  16.486  0.00  0.00    +0.150 HD
BRANCH   5  26
ATOM     26  C   UNL     1      13.362  11.277  14.472  0.00  0.00    +0.105 C 
BRANCH  26  28
ATOM     28  C   UNL     1      14.261  12.499  14.617  0.00  0.00    +0.015 C 
ATOM     29  C   UNL     1      15.557  12.191  15.354  0.00  0.00    +0.005 C 
ENDBRANCH  26  28
ENDBRANCH   5  26
ENDBRANCH  13   2
ENDBRANCH   7  13
BRANCH   9  14
ATOM     14  C   UNL     1      11.023   9.074  21.443  0.00  0.00    +0.082 C 
BRANCH  14  18
ATOM      3  N   UNL     1      11.008  10.243  23.655  0.00  0.00    -0.342 N 
ATOM      4  N   UNL     1      11.127  11.554  21.865  0.00  0.00    -0.232 NA
ATOM     18  C   UNL     1      11.054  10.314  22.290  0.00  0.00    +0.109 A 
ATOM     20  C   UNL     1      11.053  11.523  24.142  0.00  0.00    +0.066 A 
ATOM     21  C   UNL     1      11.127  12.324  23.005  0.00  0.00    +0.092 A 
ATOM     22  C   UNL     1      11.188  13.720  23.154  0.00  0.00    -0.023 A 
ATOM     23  C   UNL     1      11.037  12.035  25.440  0.00  0.00    +0.028 A 
ATOM     24  C   UNL     1      11.172  14.256  24.448  0.00  0.00    +0.005 A 
ATOM     25  C   UNL     1      11.098  13.426  25.570  0.00  0.00    +0.002 A 
ATOM     27  C   UNL     1      11.269  14.649  21.987  0.00  0.00    +0.046 C 
ATOM     31  H   UNL     1      10.951   9.398  24.208  0.00  0.00    +0.167 HD
ENDBRANCH  14  18
ENDBRANCH   9  14
TORSDOF 7
ENDMDL
MODEL 4
REMARK VINA RESULT:      -6.7     28.434     30.552
REMARK  Name = 71693153
REMARK  12 active torsions:
REMARK  status: ('A' for Active; 'I' for Inactive)
REMARK    1  A    between atoms: N_2  and  C_13
REMARK    2  A    between atoms: N_5  and  C_26
REMARK    3  A    between atoms: C_6  and  C_10
REMARK    4  A    between atoms: C_7  and  C_13
REMARK    5  A    between atoms: C_9  and  C_14
REMARK    6  A    between atoms: C_10  and  C_15
REMARK    7  A    between atoms: C_10  and  C_16
REMARK    8  A    between atoms: C_11  and  C_17
REMARK    9  A    between atoms: C_14  and  C_18
REMARK   10  A    between atoms: C_22  and  C_27
REMARK   11  A    between atoms: C_26  and  C_28
REMARK   12  A    between atoms: C_28  and  C_29
REMARK                            x       y       z     vdW  Elec       q    Type
REMARK                         _______ _______ _______ _____ _____    ______ ____
ROOT
ATOM      6  C   UNL     1      -9.820  -9.030  16.229  0.00  0.00    +0.000 C 
ATOM      7  C   UNL     1     -10.455 -10.355  16.719  0.00  0.00    +0.032 C 
ATOM      8  C   UNL     1      -9.492  -9.115  14.730  0.00  0.00    +0.012 C 
ATOM      9  C   UNL     1      -8.523 -10.269  14.410  0.00  0.00    +0.022 C 
ATOM     11  C   UNL     1      -8.941 -11.559  15.085  0.00  0.00    -0.073 C 
ATOM     12  C   UNL     1      -9.816 -11.579  16.107  0.00  0.00    -0.022 C 
ATOM     17  C   UNL     1      -8.365 -12.832  14.530  0.00  0.00    +0.039 C 
ENDROOT
BRANCH   6  10
ATOM     10  C   UNL     1     -10.734  -7.830  16.493  0.00  0.00    -0.013 C 
ATOM     15  C   UNL     1     -10.260  -6.616  15.699  0.00  0.00    +0.007 C 
ATOM     16  C   UNL     1     -12.178  -8.174  16.144  0.00  0.00    +0.007 C 
ENDBRANCH   6  10
BRANCH   7  13
ATOM     13  C   UNL     1     -10.402 -10.462  18.248  0.00  0.00    +0.113 C 
BRANCH  13   2
ATOM      1  O   UNL     1      -8.320 -12.234  19.170  0.00  0.00    -0.253 OA
ATOM      2  N   UNL     1      -9.111 -10.092  18.737  0.00  0.00    -0.299 N 
ATOM      5  N   UNL     1      -6.983 -10.386  19.594  0.00  0.00    -0.299 N 
ATOM     19  C   UNL     1      -8.150 -11.016  19.169  0.00  0.00    +0.300 C 
ATOM     30  H   UNL     1      -8.845  -9.113  18.713  0.00  0.00    +0.150 HD
ATOM     32  H   UNL     1      -6.938  -9.372  19.564  0.00  0.00    +0.150 HD
BRANCH   5  26
ATOM     26  C   UNL     1      -5.837 -11.112  20.087  0.00  0.00    +0.105 C 
BRANCH  26  28
ATOM     28  C   UNL     1      -4.929 -11.597  18.963  0.00  0.00    +0.015 C 
ATOM     29  C   UNL     1      -4.865 -10.620  17.797  0.00  0.00    +0.005 C 
ENDBRANCH  26  28
ENDBRANCH   5  26
ENDBRANCH  13   2
ENDBRANCH   7  13
BRANCH   9  14
ATOM     14  C   UNL     1      -7.083  -9.899  14.779  0.00  0.00    +0.082 C 
BRANCH  14  18
ATOM      3  N   UNL     1      -6.569  -8.934  12.528  0.00  0.00    -0.342 N 
ATOM      4  N   UNL     1      -5.085 -10.384  13.324  0.00  0.00    -0.232 NA
ATOM     18  C   UNL     1      -6.220  -9.764  13.556  0.00  0.00    +0.109 A 
ATOM     20  C   UNL     1      -5.595  -9.024  11.568  0.00  0.00    +0.066 A 
ATOM     21  C   UNL     1      -4.680  -9.936  12.088  0.00  0.00    +0.092 A 
ATOM     22  C   UNL     1      -3.537 -10.260  11.338  0.00  0.00    -0.023 A 
ATOM     23  C   UNL     1      -5.441  -8.405  10.327  0.00  0.00    +0.028 A 
ATOM     24  C   UNL     1      -3.361  -9.652  10.089  0.00  0.00    +0.005 A 
ATOM     25  C   UNL     1      -4.297  -8.741   9.594  0.00  0.00    +0.002 A 
ATOM     27  C   UNL     1      -2.507 -11.228  11.823  0.00  0.00    +0.046 C 
ATOM     31  H   UNL     1      -7.398  -8.355  12.482  0.00  0.00    +0.167 HD
ENDBRANCH  14  18
ENDBRANCH   9  14
TORSDOF 7
ENDMDL
MODEL 5
REMARK VINA RESULT:      -6.6      4.180      7.419
REMARK  Name = 71693153
REMARK  12 active torsions:
REMARK  status: ('A' for Active; 'I' for Inactive)
REMARK    1  A    between atoms: N_2  and  C_13
REMARK    2  A    between atoms: N_5  and  C_26
REMARK    3  A    between atoms: C_6  and  C_10
REMARK    4  A    between atoms: C_7  and  C_13
REMARK    5  A    between atoms: C_9  and  C_14
REMARK    6  A    between atoms: C_10  and  C_15
REMARK    7  A    between atoms: C_10  and  C_16
REMARK    8  A    between atoms: C_11  and  C_17
REMARK    9  A    between atoms: C_14  and  C_18
REMARK   10  A    between atoms: C_22  and  C_27
REMARK   11  A    between atoms: C_26  and  C_28
REMARK   12  A    between atoms: C_28  and  C_29
REMARK                            x       y       z     vdW  Elec       q    Type
REMARK                         _______ _______ _______ _____ _____    ______ ____
ROOT
ATOM      6  C   UNL     1      20.290   5.849  21.755  0.00  0.00    +0.000 C 
ATOM      7  C   UNL     1      20.740   7.118  22.522  0.00  0.00    +0.032 C 
ATOM      8  C   UNL     1      19.549   6.236  20.466  0.00  0.00    +0.012 C 
ATOM      9  C   UNL     1      18.308   7.105  20.744  0.00  0.00    +0.022 C 
ATOM     11  C   UNL     1      18.613   8.229  21.712  0.00  0.00    -0.073 C 
ATOM     12  C   UNL     1      19.712   8.224  22.489  0.00  0.00    -0.022 C 
ATOM     17  C   UNL     1      17.650   9.383  21.735  0.00  0.00    +0.039 C 
ENDROOT
BRANCH   6  10
ATOM     10  C   UNL     1      21.473   4.936  21.421  0.00  0.00    -0.013 C 
ATOM     15  C   UNL     1      20.979   3.614  20.844  0.00  0.00    +0.007 C 
ATOM     16  C   UNL     1      22.421   5.630  20.448  0.00  0.00    +0.007 C 
ENDBRANCH   6  10
BRANCH   7  13
ATOM     13  C   UNL     1      21.090   6.790  23.978  0.00  0.00    +0.113 C 
BRANCH  13   2
ATOM      1  O   UNL     1      19.965   6.605  26.629  0.00  0.00    -0.253 OA
ATOM      2  N   UNL     1      20.738   7.873  24.841  0.00  0.00    -0.299 N 
ATOM      5  N   UNL     1      19.945   8.922  26.743  0.00  0.00    -0.299 N 
ATOM     19  C   UNL     1      20.193   7.701  26.120  0.00  0.00    +0.300 C 
ATOM     30  H   UNL     1      20.950   8.819  24.543  0.00  0.00    +0.150 HD
ATOM     32  H   UNL     1      20.158   9.778  26.241  0.00  0.00    +0.150 HD
BRANCH   5  26
ATOM     26  C   UNL     1      19.384   9.024  28.070  0.00  0.00    +0.105 C 
BRANCH  26  28
ATOM     28  C   UNL     1      20.272   9.824  29.015  0.00  0.00    +0.015 C 
ATOM     29  C   UNL     1      21.426  10.510  28.298  0.00  0.00    +0.005 C 
ENDBRANCH  26  28
ENDBRANCH   5  26
ENDBRANCH  13   2
ENDBRANCH   7  13
BRANCH   9  14
ATOM     14  C   UNL     1      17.139   6.251  21.246  0.00  0.00    +0.082 C 
BRANCH  14  18
ATOM      3  N   UNL     1      14.723   6.867  21.468  0.00  0.00    -0.342 N 
ATOM      4  N   UNL     1      15.586   7.046  19.429  0.00  0.00    -0.232 NA
ATOM     18  C   UNL     1      15.830   6.724  20.679  0.00  0.00    +0.109 A 
ATOM     20  C   UNL     1      13.697   7.309  20.675  0.00  0.00    +0.066 A 
ATOM     21  C   UNL     1      14.261   7.413  19.406  0.00  0.00    +0.092 A 
ATOM     22  C   UNL     1      13.462   7.850  18.336  0.00  0.00    -0.023 A 
ATOM     23  C   UNL     1      12.365   7.619  20.950  0.00  0.00    +0.028 A 
ATOM     24  C   UNL     1      12.121   8.165  18.588  0.00  0.00    +0.005 A 
ATOM     25  C   UNL     1      11.584   8.052  19.873  0.00  0.00    +0.002 A 
ATOM     27  C   UNL     1      13.989   7.988  16.945  0.00  0.00    +0.046 C 
ATOM     31  H   UNL     1      14.669   6.680  22.462  0.00  0.00    +0.167 HD
ENDBRANCH  14  18
ENDBRANCH   9  14
TORSDOF 7
ENDMDL
MODEL 6
REMARK VINA RESULT:      -6.6     28.636     31.175
REMARK  Name = 71693153
REMARK  12 active torsions:
REMARK  status: ('A' for Active; 'I' for Inactive)
REMARK    1  A    between atoms: N_2  and  C_13
REMARK    2  A    between atoms: N_5  and  C_26
REMARK    3  A    between atoms: C_6  and  C_10
REMARK    4  A    between atoms: C_7  and  C_13
REMARK    5  A    between atoms: C_9  and  C_14
REMARK    6  A    between atoms: C_10  and  C_15
REMARK    7  A    between atoms: C_10  and  C_16
REMARK    8  A    between atoms: C_11  and  C_17
REMARK    9  A    between atoms: C_14  and  C_18
REMARK   10  A    between atoms: C_22  and  C_27
REMARK   11  A    between atoms: C_26  and  C_28
REMARK   12  A    between atoms: C_28  and  C_29
REMARK                            x       y       z     vdW  Elec       q    Type
REMARK                         _______ _______ _______ _____ _____    ______ ____
ROOT
ATOM      6  C   UNL     1      -6.704 -11.270  17.869  0.00  0.00    +0.000 C 
ATOM      7  C   UNL     1      -7.918 -10.709  18.650  0.00  0.00    +0.032 C 
ATOM      8  C   UNL     1      -6.080 -10.176  16.989  0.00  0.00    +0.012 C 
ATOM      9  C   UNL     1      -7.087  -9.597  15.977  0.00  0.00    +0.022 C 
ATOM     11  C   UNL     1      -8.413  -9.266  16.629  0.00  0.00    -0.073 C 
ATOM     12  C   UNL     1      -8.762  -9.762  17.830  0.00  0.00    -0.022 C 
ATOM     17  C   UNL     1      -9.313  -8.315  15.890  0.00  0.00    +0.039 C 
ENDROOT
BRANCH   6  10
ATOM     10  C   UNL     1      -5.642 -11.850  18.808  0.00  0.00    -0.013 C 
ATOM     15  C   UNL     1      -4.256 -11.733  18.180  0.00  0.00    +0.007 C 
ATOM     16  C   UNL     1      -5.685 -11.145  20.159  0.00  0.00    +0.007 C 
ENDBRANCH   6  10
BRANCH   7  13
ATOM     13  C   UNL     1      -8.800 -11.841  19.190  0.00  0.00    +0.113 C 
BRANCH  13   2
ATOM      1  O   UNL     1     -11.663 -12.016  18.874  0.00  0.00    -0.253 OA
ATOM      2  N   UNL     1      -9.796 -11.328  20.077  0.00  0.00    -0.299 N 
ATOM      5  N   UNL     1     -11.918 -10.866  20.873  0.00  0.00    -0.299 N 
ATOM     19  C   UNL     1     -11.174 -11.454  19.853  0.00  0.00    +0.300 C 
ATOM     30  H   UNL     1      -9.498 -10.906  20.950  0.00  0.00    +0.150 HD
ATOM     32  H   UNL     1     -11.426 -10.416  21.639  0.00  0.00    +0.150 HD
BRANCH   5  26
ATOM     26  C   UNL     1     -13.362 -10.857  20.884  0.00  0.00    +0.105 C 
BRANCH  26  28
ATOM     28  C   UNL     1     -13.939  -9.599  20.247  0.00  0.00    +0.015 C 
ATOM     29  C   UNL     1     -15.234  -9.147  20.906  0.00  0.00    +0.005 C 
ENDBRANCH  26  28
ENDBRANCH   5  26
ENDBRANCH  13   2
ENDBRANCH   7  13
BRANCH   9  14
ATOM     14  C   UNL     1      -7.281 -10.543  14.788  0.00  0.00    +0.082 C 
BRANCH  14  18
ATOM      3  N   UNL     1      -6.590  -9.289  12.736  0.00  0.00    -0.342 N 
ATOM      4  N   UNL     1      -5.146 -10.806  13.478  0.00  0.00    -0.232 NA
ATOM     18  C   UNL     1      -6.314 -10.239  13.679  0.00  0.00    +0.109 A 
ATOM     20  C   UNL     1      -5.530  -9.239  11.869  0.00  0.00    +0.066 A 
ATOM     21  C   UNL     1      -4.642 -10.197  12.352  0.00  0.00    +0.092 A 
ATOM     22  C   UNL     1      -3.427 -10.405  11.678  0.00  0.00    -0.023 A 
ATOM     23  C   UNL     1      -5.279  -8.463  10.736  0.00  0.00    +0.028 A 
ATOM     24  C   UNL     1      -3.154  -9.638  10.539  0.00  0.00    +0.005 A 
ATOM     25  C   UNL     1      -4.065  -8.684  10.078  0.00  0.00    +0.002 A 
ATOM     27  C   UNL     1      -2.420 -11.411  12.132  0.00  0.00    +0.046 C 
ATOM     31  H   UNL     1      -7.426  -8.721  12.687  0.00  0.00    +0.167 HD
ENDBRANCH  14  18
ENDBRANCH   9  14
TORSDOF 7
ENDMDL
MODEL 7
REMARK VINA RESULT:      -6.5     27.261     30.106
REMARK  Name = 71693153
REMARK  12 active torsions:
REMARK  status: ('A' for Active; 'I' for Inactive)
REMARK    1  A    between atoms: N_2  and  C_13
REMARK    2  A    between atoms: N_5  and  C_26
REMARK    3  A    between atoms: C_6  and  C_10
REMARK    4  A    between atoms: C_7  and  C_13
REMARK    5  A    between atoms: C_9  and  C_14
REMARK    6  A    between atoms: C_10  and  C_15
REMARK    7  A    between atoms: C_10  and  C_16
REMARK    8  A    between atoms: C_11  and  C_17
REMARK    9  A    between atoms: C_14  and  C_18
REMARK   10  A    between atoms: C_22  and  C_27
REMARK   11  A    between atoms: C_26  and  C_28
REMARK   12  A    between atoms: C_28  and  C_29
REMARK                            x       y       z     vdW  Elec       q    Type
REMARK                         _______ _______ _______ _____ _____    ______ ____
ROOT
ATOM      6  C   UNL     1      -2.912 -12.585  13.428  0.00  0.00    +0.000 C 
ATOM      7  C   UNL     1      -1.798 -11.564  13.770  0.00  0.00    +0.032 C 
ATOM      8  C   UNL     1      -2.977 -12.820  11.911  0.00  0.00    +0.012 C 
ATOM      9  C   UNL     1      -3.248 -11.520  11.131  0.00  0.00    +0.022 C 
ATOM     11  C   UNL     1      -2.364 -10.385  11.602  0.00  0.00    -0.073 C 
ATOM     12  C   UNL     1      -1.712 -10.428  12.779  0.00  0.00    -0.022 C 
ATOM     17  C   UNL     1      -2.207  -9.216  10.670  0.00  0.00    +0.039 C 
ENDROOT
BRANCH   6  10
ATOM     10  C   UNL     1      -2.703 -13.919  14.152  0.00  0.00    -0.013 C 
ATOM     15  C   UNL     1      -4.047 -14.543  14.514  0.00  0.00    +0.007 C 
ATOM     16  C   UNL     1      -1.881 -14.869  13.289  0.00  0.00    +0.007 C 
ENDBRANCH   6  10
BRANCH   7  13
ATOM     13  C   UNL     1      -1.981 -10.997  15.183  0.00  0.00    +0.113 C 
BRANCH  13   2
ATOM      1  O   UNL     1      -4.126 -11.425  17.065  0.00  0.00    -0.253 OA
ATOM      2  N   UNL     1      -3.202 -10.260  15.278  0.00  0.00    -0.299 N 
ATOM      5  N   UNL     1      -5.282  -9.662  16.095  0.00  0.00    -0.299 N 
ATOM     19  C   UNL     1      -4.200 -10.530  16.224  0.00  0.00    +0.300 C 
ATOM     30  H   UNL     1      -3.332  -9.456  14.674  0.00  0.00    +0.150 HD
ATOM     32  H   UNL     1      -5.258  -8.958  15.364  0.00  0.00    +0.150 HD
BRANCH   5  26
ATOM     26  C   UNL     1      -6.444  -9.727  16.949  0.00  0.00    +0.105 C 
BRANCH  26  28
ATOM     28  C   UNL     1      -7.737  -9.455  16.191  0.00  0.00    +0.015 C 
ATOM     29  C   UNL     1      -8.872  -9.014  17.105  0.00  0.00    +0.005 C 
ENDBRANCH  26  28
ENDBRANCH   5  26
ENDBRANCH  13   2
ENDBRANCH   7  13
BRANCH   9  14
ATOM     14  C   UNL     1      -4.728 -11.130  11.207  0.00  0.00    +0.082 C 
BRANCH  14  18
ATOM      3  N   UNL     1      -6.196  -9.710   9.760  0.00  0.00    -0.342 N 
ATOM      4  N   UNL     1      -4.895 -11.162   8.694  0.00  0.00    -0.232 NA
ATOM     18  C   UNL     1      -5.251 -10.693   9.868  0.00  0.00    +0.109 A 
ATOM     20  C   UNL     1      -6.467  -9.534   8.429  0.00  0.00    +0.066 A 
ATOM     21  C   UNL     1      -5.643 -10.453   7.783  0.00  0.00    +0.092 A 
ATOM     22  C   UNL     1      -5.675 -10.534   6.381  0.00  0.00    -0.023 A 
ATOM     23  C   UNL     1      -7.336  -8.677   7.753  0.00  0.00    +0.028 A 
ATOM     24  C   UNL     1      -6.541  -9.684   5.682  0.00  0.00    +0.005 A 
ATOM     25  C   UNL     1      -7.356  -8.772   6.357  0.00  0.00    +0.002 A 
ATOM     27  C   UNL     1      -4.824 -11.491   5.613  0.00  0.00    +0.046 C 
ATOM     31  H   UNL     1      -6.619  -9.201  10.526  0.00  0.00    +0.167 HD
ENDBRANCH  14  18
ENDBRANCH   9  14
TORSDOF 7
ENDMDL
MODEL 8
REMARK VINA RESULT:      -6.5     14.834     19.214
REMARK  Name = 71693153
REMARK  12 active torsions:
REMARK  status: ('A' for Active; 'I' for Inactive)
REMARK    1  A    between atoms: N_2  and  C_13
REMARK    2  A    between atoms: N_5  and  C_26
REMARK    3  A    between atoms: C_6  and  C_10
REMARK    4  A    between atoms: C_7  and  C_13
REMARK    5  A    between atoms: C_9  and  C_14
REMARK    6  A    between atoms: C_10  and  C_15
REMARK    7  A    between atoms: C_10  and  C_16
REMARK    8  A    between atoms: C_11  and  C_17
REMARK    9  A    between atoms: C_14  and  C_18
REMARK   10  A    between atoms: C_22  and  C_27
REMARK   11  A    between atoms: C_26  and  C_28
REMARK   12  A    between atoms: C_28  and  C_29
REMARK                            x       y       z     vdW  Elec       q    Type
REMARK                         _______ _______ _______ _____ _____    ______ ____
ROOT
ATOM      6  C   UNL     1       9.077   8.469   5.130  0.00  0.00    +0.000 C 
ATOM      7  C   UNL     1       8.687   8.055   6.571  0.00  0.00    +0.032 C 
ATOM      8  C   UNL     1       8.791   7.323   4.147  0.00  0.00    +0.012 C 
ATOM      9  C   UNL     1       9.557   6.038   4.511  0.00  0.00    +0.022 C 
ATOM     11  C   UNL     1       9.439   5.709   5.985  0.00  0.00    -0.073 C 
ATOM     12  C   UNL     1       9.035   6.621   6.889  0.00  0.00    -0.022 C 
ATOM     17  C   UNL     1       9.752   4.296   6.392  0.00  0.00    +0.039 C 
ENDROOT
BRANCH   6  10
ATOM     10  C   UNL     1       8.339   9.734   4.682  0.00  0.00    -0.013 C 
ATOM     15  C   UNL     1       9.240  10.590   3.797  0.00  0.00    +0.007 C 
ATOM     16  C   UNL     1       7.053   9.368   3.948  0.00  0.00    +0.007 C 
ENDBRANCH   6  10
BRANCH   7  13
ATOM     13  C   UNL     1       9.336   8.980   7.607  0.00  0.00    +0.113 C 
BRANCH  13   2
ATOM      1  O   UNL     1      11.326  10.807   6.593  0.00  0.00    -0.253 OA
ATOM      2  N   UNL     1      10.754   8.805   7.625  0.00  0.00    -0.299 N 
ATOM      5  N   UNL     1      12.978   9.321   7.258  0.00  0.00    -0.299 N 
ATOM     19  C   UNL     1      11.659   9.742   7.111  0.00  0.00    +0.300 C 
ATOM     30  H   UNL     1      11.136   7.989   8.093  0.00  0.00    +0.150 HD
ATOM     32  H   UNL     1      13.157   8.420   7.691  0.00  0.00    +0.150 HD
BRANCH   5  26
ATOM     26  C   UNL     1      14.105  10.104   6.810  0.00  0.00    +0.105 C 
BRANCH  26  28
ATOM     28  C   UNL     1      15.211   9.242   6.213  0.00  0.00    +0.015 C 
ATOM     29  C   UNL     1      14.933   7.752   6.351  0.00  0.00    +0.005 C 
ENDBRANCH  26  28
ENDBRANCH   5  26
ENDBRANCH  13   2
ENDBRANCH   7  13
BRANCH   9  14
ATOM     14  C   UNL     1      11.027   6.132   4.086  0.00  0.00    +0.082 C 
BRANCH  14  18
ATOM      3  N   UNL     1      12.291   4.600   2.564  0.00  0.00    -0.342 N 
ATOM      4  N   UNL     1      10.544   5.637   1.664  0.00  0.00    -0.232 NA
ATOM     18  C   UNL     1      11.257   5.474   2.755  0.00  0.00    +0.109 A 
ATOM     20  C   UNL     1      12.242   4.170   1.264  0.00  0.00    +0.066 A 
ATOM     21  C   UNL     1      11.142   4.832   0.722  0.00  0.00    +0.092 A 
ATOM     22  C   UNL     1      10.805   4.610  -0.623  0.00  0.00    -0.023 A 
ATOM     23  C   UNL     1      13.039   3.287   0.536  0.00  0.00    +0.028 A 
ATOM     24  C   UNL     1      11.592   3.727  -1.373  0.00  0.00    +0.005 A 
ATOM     25  C   UNL     1      12.689   3.078  -0.802  0.00  0.00    +0.002 A 
ATOM     27  C   UNL     1       9.642   5.280  -1.280  0.00  0.00    +0.046 C 
ATOM     31  H   UNL     1      12.972   4.319   3.258  0.00  0.00    +0.167 HD
ENDBRANCH  14  18
ENDBRANCH   9  14
TORSDOF 7
ENDMDL
MODEL 9
REMARK VINA RESULT:      -6.5     14.896     17.751
REMARK  Name = 71693153
REMARK  12 active torsions:
REMARK  status: ('A' for Active; 'I' for Inactive)
REMARK    1  A    between atoms: N_2  and  C_13
REMARK    2  A    between atoms: N_5  and  C_26
REMARK    3  A    between atoms: C_6  and  C_10
REMARK    4  A    between atoms: C_7  and  C_13
REMARK    5  A    between atoms: C_9  and  C_14
REMARK    6  A    between atoms: C_10  and  C_15
REMARK    7  A    between atoms: C_10  and  C_16
REMARK    8  A    between atoms: C_11  and  C_17
REMARK    9  A    between atoms: C_14  and  C_18
REMARK   10  A    between atoms: C_22  and  C_27
REMARK   11  A    between atoms: C_26  and  C_28
REMARK   12  A    between atoms: C_28  and  C_29
REMARK                            x       y       z     vdW  Elec       q    Type
REMARK                         _______ _______ _______ _____ _____    ______ ____
ROOT
ATOM      6  C   UNL     1      14.048   8.305   3.325  0.00  0.00    +0.000 C 
ATOM      7  C   UNL     1      15.484   8.445   2.763  0.00  0.00    +0.032 C 
ATOM      8  C   UNL     1      13.900   9.111   4.625  0.00  0.00    +0.012 C 
ATOM      9  C   UNL     1      14.895   8.656   5.710  0.00  0.00    +0.022 C 
ATOM     11  C   UNL     1      16.299   8.511   5.160  0.00  0.00    -0.073 C 
ATOM     12  C   UNL     1      16.544   8.431   3.839  0.00  0.00    -0.022 C 
ATOM     17  C   UNL     1      17.421   8.504   6.160  0.00  0.00    +0.039 C 
ENDROOT
BRANCH   6  10
ATOM     10  C   UNL     1      12.993   8.758   2.311  0.00  0.00    -0.013 C 
ATOM     15  C   UNL     1      11.622   8.207   2.688  0.00  0.00    +0.007 C 
ATOM     16  C   UNL     1      12.959  10.280   2.224  0.00  0.00    +0.007 C 
ENDBRANCH   6  10
BRANCH   7  13
ATOM     13  C   UNL     1      15.786   7.347   1.736  0.00  0.00    +0.113 C 
BRANCH  13   2
ATOM      1  O   UNL     1      13.679   5.828   0.480  0.00  0.00    -0.253 OA
ATOM      2  N   UNL     1      15.257   6.091   2.166  0.00  0.00    -0.299 N 
ATOM      5  N   UNL     1      13.906   4.214   2.131  0.00  0.00    -0.299 N 
ATOM     19  C   UNL     1      14.228   5.413   1.499  0.00  0.00    +0.300 C 
ATOM     30  H   UNL     1      15.688   5.629   2.959  0.00  0.00    +0.150 HD
ATOM     32  H   UNL     1      14.409   3.957   2.974  0.00  0.00    +0.150 HD
BRANCH   5  26
ATOM     26  C   UNL     1      12.878   3.324   1.645  0.00  0.00    +0.105 C 
BRANCH  26  28
ATOM     28  C   UNL     1      11.556   3.510   2.377  0.00  0.00    +0.015 C 
ATOM     29  C   UNL     1      10.582   4.400   1.617  0.00  0.00    +0.005 C 
ENDBRANCH  26  28
ENDBRANCH   5  26
ENDBRANCH  13   2
ENDBRANCH   7  13
BRANCH   9  14
ATOM     14  C   UNL     1      14.430   7.357   6.376  0.00  0.00    +0.082 C 
BRANCH  14  18
ATOM      3  N   UNL     1      12.291   6.256   5.687  0.00  0.00    -0.342 N 
ATOM      4  N   UNL     1      12.086   8.033   7.004  0.00  0.00    -0.232 NA
ATOM     18  C   UNL     1      12.932   7.246   6.378  0.00  0.00    +0.109 A 
ATOM     20  C   UNL     1      10.944   6.414   5.879  0.00  0.00    +0.066 A 
ATOM     21  C   UNL     1      10.841   7.531   6.705  0.00  0.00    +0.092 A 
ATOM     22  C   UNL     1       9.568   7.973   7.102  0.00  0.00    -0.023 A 
ATOM     23  C   UNL     1       9.839   5.698   5.417  0.00  0.00    +0.028 A 
ATOM     24  C   UNL     1       8.444   7.271   6.649  0.00  0.00    +0.005 A 
ATOM     25  C   UNL     1       8.579   6.154   5.821  0.00  0.00    +0.002 A 
ATOM     27  C   UNL     1       9.371   9.162   7.985  0.00  0.00    +0.046 C 
ATOM     31  H   UNL     1      12.732   5.533   5.132  0.00  0.00    +0.167 HD
ENDBRANCH  14  18
ENDBRANCH   9  14
TORSDOF 7
ENDMDL
MODEL 10
REMARK VINA RESULT:      -6.4     27.737     30.677
REMARK  Name = 71693153
REMARK  12 active torsions:
REMARK  status: ('A' for Active; 'I' for Inactive)
REMARK    1  A    between atoms: N_2  and  C_13
REMARK    2  A    between atoms: N_5  and  C_26
REMARK    3  A    between atoms: C_6  and  C_10
REMARK    4  A    between atoms: C_7  and  C_13
REMARK    5  A    between atoms: C_9  and  C_14
REMARK    6  A    between atoms: C_10  and  C_15
REMARK    7  A    between atoms: C_10  and  C_16
REMARK    8  A    between atoms: C_11  and  C_17
REMARK    9  A    between atoms: C_14  and  C_18
REMARK   10  A    between atoms: C_22  and  C_27
REMARK   11  A    between atoms: C_26  and  C_28
REMARK   12  A    between atoms: C_28  and  C_29
REMARK                            x       y       z     vdW  Elec       q    Type
REMARK                         _______ _______ _______ _____ _____    ______ ____
ROOT
ATOM      6  C   UNL     1      -6.424  -9.816  10.029  0.00  0.00    +0.000 C 
ATOM      7  C   UNL     1      -5.520  -9.211   8.927  0.00  0.00    +0.032 C 
ATOM      8  C   UNL     1      -5.967  -9.344  11.418  0.00  0.00    +0.012 C 
ATOM      9  C   UNL     1      -4.507  -9.735  11.715  0.00  0.00    +0.022 C 
ATOM     11  C   UNL     1      -3.589  -9.411  10.554  0.00  0.00    -0.073 C 
ATOM     12  C   UNL     1      -4.061  -9.166   9.318  0.00  0.00    -0.022 C 
ATOM     17  C   UNL     1      -2.119  -9.329  10.855  0.00  0.00    +0.039 C 
ENDROOT
BRANCH   6  10
ATOM     10  C   UNL     1      -7.898  -9.455   9.818  0.00  0.00    -0.013 C 
ATOM     15  C   UNL     1      -8.687  -9.664  11.106  0.00  0.00    +0.007 C 
ATOM     16  C   UNL     1      -8.028  -8.016   9.331  0.00  0.00    +0.007 C 
ENDBRANCH   6  10
BRANCH   7  13
ATOM     13  C   UNL     1      -5.671  -9.974   7.606  0.00  0.00    +0.113 C 
BRANCH  13   2
ATOM      1  O   UNL     1      -8.142  -9.652   6.151  0.00  0.00    -0.253 OA
ATOM      2  N   UNL     1      -5.922  -9.073   6.526  0.00  0.00    -0.299 N 
ATOM      5  N   UNL     1      -7.124  -8.019   4.855  0.00  0.00    -0.299 N 
ATOM     19  C   UNL     1      -7.155  -8.975   5.867  0.00  0.00    +0.300 C 
ATOM     30  H   UNL     1      -5.192  -8.421   6.259  0.00  0.00    +0.150 HD
ATOM     32  H   UNL     1      -6.259  -7.514   4.687  0.00  0.00    +0.150 HD
BRANCH   5  26
ATOM     26  C   UNL     1      -8.267  -7.722   4.024  0.00  0.00    +0.105 C 
BRANCH  26  28
ATOM     28  C   UNL     1      -8.037  -8.098   2.566  0.00  0.00    +0.015 C 
ATOM     29  C   UNL     1      -8.477  -9.521   2.250  0.00  0.00    +0.005 C 
ENDBRANCH  26  28
ENDBRANCH   5  26
ENDBRANCH  13   2
ENDBRANCH   7  13
BRANCH   9  14
ATOM     14  C   UNL     1      -4.399 -11.214  12.102  0.00  0.00    +0.082 C 
BRANCH  14  18
ATOM      3  N   UNL     1      -4.414 -10.341  14.447  0.00  0.00    -0.342 N 
ATOM      4  N   UNL     1      -4.684 -12.536  14.227  0.00  0.00    -0.232 NA
ATOM     18  C   UNL     1      -4.503 -11.402  13.589  0.00  0.00    +0.109 A 
ATOM     20  C   UNL     1      -4.546 -10.823  15.724  0.00  0.00    +0.066 A 
ATOM     21  C   UNL     1      -4.712 -12.196  15.560  0.00  0.00    +0.092 A 
ATOM     22  C   UNL     1      -4.878 -13.005  16.696  0.00  0.00    -0.023 A 
ATOM     23  C   UNL     1      -4.534 -10.195  16.970  0.00  0.00    +0.028 A 
ATOM     24  C   UNL     1      -4.868 -12.397  17.958  0.00  0.00    +0.005 A 
ATOM     25  C   UNL     1      -4.699 -11.017  18.090  0.00  0.00    +0.002 A 
ATOM     27  C   UNL     1      -5.063 -14.485  16.607  0.00  0.00    +0.046 C 
ATOM     31  H   UNL     1      -4.277  -9.373  14.188  0.00  0.00    +0.167 HD
ENDBRANCH  14  18
ENDBRANCH   9  14
TORSDOF 7
ENDMDL
