MODEL 1
REMARK VINA RESULT:      -6.4      0.000      0.000
REMARK  Name = 75536746
REMARK  5 active torsions:
REMARK  status: ('A' for Active; 'I' for Inactive)
REMARK    1  A    between atoms: O_2  and  C_10
REMARK    2  A    between atoms: N_6  and  C_9
REMARK    3  A    between atoms: N_6  and  C_12
REMARK    4  A    between atoms: N_7  and  C_16
REMARK    5  A    between atoms: C_11  and  C_16
REMARK                            x       y       z     vdW  Elec       q    Type
REMARK                         _______ _______ _______ _____ _____    ______ ____
ROOT
ATOM      1  O   UNL     1      12.352   9.040  21.527  0.00  0.00    -0.371 OA
ATOM      9  C   UNL     1      12.326   7.157  20.078  0.00  0.00    +0.111 C 
ATOM     10  C   UNL     1      13.734   7.353  20.611  0.00  0.00    +0.164 C 
ATOM     11  C   UNL     1      13.464   8.189  21.854  0.00  0.00    +0.165 C 
ATOM     13  C   UNL     1      11.710   8.519  20.349  0.00  0.00    +0.181 C 
ENDROOT
BRANCH  10   2
ATOM      2  O   UNL     1      14.373   6.131  20.925  0.00  0.00    -0.388 OA
ATOM     25  H   UNL     1      14.106   5.468  20.267  0.00  0.00    +0.210 HD
ENDBRANCH  10   2
BRANCH   9   6
ATOM      6  N   UNL     1      12.280   6.784  18.674  0.00  0.00    -0.306 NA
ATOM     24  H   UNL     1      11.366   6.396  18.444  0.00  0.00    +0.123 HD
BRANCH   6  12
ATOM      3  O   UNL     1      12.896   9.011  15.168  0.00  0.00    -0.380 OA
ATOM     12  C   UNL     1      12.558   7.934  17.817  0.00  0.00    +0.058 C 
ATOM     14  C   UNL     1      13.819   7.685  16.983  0.00  0.00    +0.047 C 
ATOM     15  C   UNL     1      11.372   8.235  16.895  0.00  0.00    +0.047 C 
ATOM     17  C   UNL     1      14.041   8.830  16.001  0.00  0.00    +0.161 C 
ATOM     18  C   UNL     1      11.729   9.349  15.918  0.00  0.00    +0.161 C 
ENDBRANCH   6  12
ENDBRANCH   9   6
BRANCH  11  16
ATOM     16  C   UNL     1      14.651   9.036  22.277  0.00  0.00    +0.140 C 
BRANCH  16   7
ATOM      4  O   UNL     1      20.633   7.089  21.006  0.00  0.00    -0.377 OA
ATOM      5  O   UNL     1      17.106  10.394  22.065  0.00  0.00    -0.253 OA
ATOM      7  N   UNL     1      15.899   8.458  21.830  0.00  0.00    -0.297 N 
ATOM      8  N   UNL     1      18.201   8.500  21.296  0.00  0.00    -0.281 N 
ATOM     19  C   UNL     1      17.072   9.199  21.754  0.00  0.00    +0.302 C 
ATOM     20  C   UNL     1      19.479   9.206  21.177  0.00  0.00    +0.137 C 
ATOM     21  C   UNL     1      18.214   7.129  20.764  0.00  0.00    +0.137 C 
ATOM     22  C   UNL     1      20.626   8.346  21.686  0.00  0.00    +0.179 C 
ATOM     23  C   UNL     1      19.433   6.364  21.270  0.00  0.00    +0.179 C 
ATOM     26  H   UNL     1      15.864   7.486  21.559  0.00  0.00    +0.150 HD
ENDBRANCH  16   7
ENDBRANCH  11  16
TORSDOF 5
ENDMDL
MODEL 2
REMARK VINA RESULT:      -6.4      2.884      5.499
REMARK  Name = 75536746
REMARK  5 active torsions:
REMARK  status: ('A' for Active; 'I' for Inactive)
REMARK    1  A    between atoms: O_2  and  C_10
REMARK    2  A    between atoms: N_6  and  C_9
REMARK    3  A    between atoms: N_6  and  C_12
REMARK    4  A    between atoms: N_7  and  C_16
REMARK    5  A    between atoms: C_11  and  C_16
REMARK                            x       y       z     vdW  Elec       q    Type
REMARK                         _______ _______ _______ _____ _____    ______ ____
ROOT
ATOM      1  O   UNL     1      10.783   8.686  20.148  0.00  0.00    -0.371 OA
ATOM      9  C   UNL     1      12.420   7.113  19.447  0.00  0.00    +0.111 C 
ATOM     10  C   UNL     1      12.309   7.071  20.962  0.00  0.00    +0.164 C 
ATOM     11  C   UNL     1      10.932   7.687  21.171  0.00  0.00    +0.165 C 
ATOM     13  C   UNL     1      11.780   8.455  19.136  0.00  0.00    +0.181 C 
ENDROOT
BRANCH  10   2
ATOM      2  O   UNL     1      12.383   5.756  21.477  0.00  0.00    -0.388 OA
ATOM     25  H   UNL     1      13.319   5.532  21.611  0.00  0.00    +0.210 HD
ENDBRANCH  10   2
BRANCH   9   6
ATOM      6  N   UNL     1      13.785   7.010  18.961  0.00  0.00    -0.306 NA
ATOM     24  H   UNL     1      13.902   7.579  18.123  0.00  0.00    +0.123 HD
BRANCH   6  12
ATOM      3  O   UNL     1      17.438   8.145  20.693  0.00  0.00    -0.380 OA
ATOM     12  C   UNL     1      14.740   7.434  19.982  0.00  0.00    +0.058 C 
ATOM     14  C   UNL     1      15.851   6.390  20.140  0.00  0.00    +0.047 C 
ATOM     15  C   UNL     1      15.347   8.797  19.639  0.00  0.00    +0.047 C 
ATOM     17  C   UNL     1      16.911   6.887  21.116  0.00  0.00    +0.161 C 
ATOM     18  C   UNL     1      16.436   9.161  20.642  0.00  0.00    +0.161 C 
ENDBRANCH   6  12
ENDBRANCH   9   6
BRANCH  11  16
ATOM     16  C   UNL     1      10.762   8.323  22.539  0.00  0.00    +0.140 C 
BRANCH  16   7
ATOM      4  O   UNL     1      14.793  12.907  24.522  0.00  0.00    -0.377 OA
ATOM      5  O   UNL     1      10.372  10.954  23.458  0.00  0.00    -0.253 OA
ATOM      7  N   UNL     1      11.806   9.286  22.808  0.00  0.00    -0.297 N 
ATOM      8  N   UNL     1      12.650  11.392  23.472  0.00  0.00    -0.281 N 
ATOM     19  C   UNL     1      11.530  10.570  23.261  0.00  0.00    +0.302 C 
ATOM     20  C   UNL     1      12.451  12.765  23.943  0.00  0.00    +0.137 C 
ATOM     21  C   UNL     1      14.041  11.068  23.121  0.00  0.00    +0.137 C 
ATOM     22  C   UNL     1      13.469  13.127  25.013  0.00  0.00    +0.179 C 
ATOM     23  C   UNL     1      14.997  11.528  24.216  0.00  0.00    +0.179 C 
ATOM     26  H   UNL     1      12.751   8.976  22.630  0.00  0.00    +0.150 HD
ENDBRANCH  16   7
ENDBRANCH  11  16
TORSDOF 5
ENDMDL
MODEL 3
REMARK VINA RESULT:      -6.4      2.424      4.442
REMARK  Name = 75536746
REMARK  5 active torsions:
REMARK  status: ('A' for Active; 'I' for Inactive)
REMARK    1  A    between atoms: O_2  and  C_10
REMARK    2  A    between atoms: N_6  and  C_9
REMARK    3  A    between atoms: N_6  and  C_12
REMARK    4  A    between atoms: N_7  and  C_16
REMARK    5  A    between atoms: C_11  and  C_16
REMARK                            x       y       z     vdW  Elec       q    Type
REMARK                         _______ _______ _______ _____ _____    ______ ____
ROOT
ATOM      1  O   UNL     1      13.482   6.789  20.722  0.00  0.00    -0.371 OA
ATOM      9  C   UNL     1      11.343   7.811  20.553  0.00  0.00    +0.111 C 
ATOM     10  C   UNL     1      12.134   8.104  19.290  0.00  0.00    +0.164 C 
ATOM     11  C   UNL     1      13.176   6.995  19.332  0.00  0.00    +0.165 C 
ATOM     13  C   UNL     1      12.450   7.406  21.512  0.00  0.00    +0.181 C 
ENDROOT
BRANCH  10   2
ATOM      2  O   UNL     1      11.339   8.038  18.122  0.00  0.00    -0.388 OA
ATOM     25  H   UNL     1      11.904   7.758  17.383  0.00  0.00    +0.210 HD
ENDBRANCH  10   2
BRANCH   9   6
ATOM      6  N   UNL     1      10.566   8.942  21.030  0.00  0.00    -0.306 NA
ATOM     24  H   UNL     1       9.735   8.615  21.522  0.00  0.00    +0.123 HD
BRANCH   6  12
ATOM      3  O   UNL     1      11.684  12.293  23.301  0.00  0.00    -0.380 OA
ATOM     12  C   UNL     1      11.362   9.790  21.915  0.00  0.00    +0.058 C 
ATOM     14  C   UNL     1      11.766  11.081  21.196  0.00  0.00    +0.047 C 
ATOM     15  C   UNL     1      10.594  10.122  23.198  0.00  0.00    +0.047 C 
ATOM     17  C   UNL     1      12.490  12.018  22.156  0.00  0.00    +0.161 C 
ATOM     18  C   UNL     1      11.384  11.113  24.047  0.00  0.00    +0.161 C 
ENDBRANCH   6  12
ENDBRANCH   9   6
BRANCH  11  16
ATOM     16  C   UNL     1      14.446   7.336  18.572  0.00  0.00    +0.140 C 
BRANCH  16   7
ATOM      4  O   UNL     1      20.038   7.521  21.716  0.00  0.00    -0.377 OA
ATOM      5  O   UNL     1      16.658   5.600  18.654  0.00  0.00    -0.253 OA
ATOM      7  N   UNL     1      15.578   7.455  19.462  0.00  0.00    -0.297 N 
ATOM      8  N   UNL     1      17.661   6.798  20.369  0.00  0.00    -0.281 N 
ATOM     19  C   UNL     1      16.635   6.553  19.440  0.00  0.00    +0.302 C 
ATOM     20  C   UNL     1      18.811   5.892  20.420  0.00  0.00    +0.137 C 
ATOM     21  C   UNL     1      17.641   7.812  21.434  0.00  0.00    +0.137 C 
ATOM     22  C   UNL     1      20.109   6.668  20.571  0.00  0.00    +0.179 C 
ATOM     23  C   UNL     1      19.001   8.490  21.562  0.00  0.00    +0.179 C 
ATOM     26  H   UNL     1      15.549   8.225  20.115  0.00  0.00    +0.150 HD
ENDBRANCH  16   7
ENDBRANCH  11  16
TORSDOF 5
ENDMDL
MODEL 4
REMARK VINA RESULT:      -6.3      2.520      7.789
REMARK  Name = 75536746
REMARK  5 active torsions:
REMARK  status: ('A' for Active; 'I' for Inactive)
REMARK    1  A    between atoms: O_2  and  C_10
REMARK    2  A    between atoms: N_6  and  C_9
REMARK    3  A    between atoms: N_6  and  C_12
REMARK    4  A    between atoms: N_7  and  C_16
REMARK    5  A    between atoms: C_11  and  C_16
REMARK                            x       y       z     vdW  Elec       q    Type
REMARK                         _______ _______ _______ _____ _____    ______ ____
ROOT
ATOM      1  O   UNL     1      17.188   5.972  18.998  0.00  0.00    -0.371 OA
ATOM      9  C   UNL     1      17.732   6.408  21.269  0.00  0.00    +0.111 C 
ATOM     10  C   UNL     1      16.407   7.075  20.940  0.00  0.00    +0.164 C 
ATOM     11  C   UNL     1      15.979   6.284  19.711  0.00  0.00    +0.165 C 
ATOM     13  C   UNL     1      18.305   6.178  19.881  0.00  0.00    +0.181 C 
ENDROOT
BRANCH  10   2
ATOM      2  O   UNL     1      15.467   6.967  21.991  0.00  0.00    -0.388 OA
ATOM     25  H   UNL     1      15.942   7.042  22.835  0.00  0.00    +0.210 HD
ENDBRANCH  10   2
BRANCH   9   6
ATOM      6  N   UNL     1      18.597   7.217  22.112  0.00  0.00    -0.306 NA
ATOM     24  H   UNL     1      18.496   6.939  23.087  0.00  0.00    +0.123 HD
BRANCH   6  12
ATOM      3  O   UNL     1      22.782   7.513  22.289  0.00  0.00    -0.380 OA
ATOM     12  C   UNL     1      19.995   7.089  21.705  0.00  0.00    +0.058 C 
ATOM     14  C   UNL     1      20.652   8.469  21.615  0.00  0.00    +0.047 C 
ATOM     15  C   UNL     1      20.773   6.200  22.679  0.00  0.00    +0.047 C 
ATOM     17  C   UNL     1      22.139   8.330  21.310  0.00  0.00    +0.161 C 
ATOM     18  C   UNL     1      22.254   6.186  22.316  0.00  0.00    +0.161 C 
ENDBRANCH   6  12
ENDBRANCH   9   6
BRANCH  11  16
ATOM     16  C   UNL     1      15.031   7.050  18.805  0.00  0.00    +0.140 C 
BRANCH  16   7
ATOM      4  O   UNL     1      10.822  10.107  22.565  0.00  0.00    -0.377 OA
ATOM      5  O   UNL     1      12.333   6.575  19.446  0.00  0.00    -0.253 OA
ATOM      7  N   UNL     1      14.176   7.936  19.563  0.00  0.00    -0.297 N 
ATOM      8  N   UNL     1      12.144   8.589  20.581  0.00  0.00    -0.281 N 
ATOM     19  C   UNL     1      12.849   7.626  19.838  0.00  0.00    +0.302 C 
ATOM     20  C   UNL     1      10.737   8.348  20.910  0.00  0.00    +0.137 C 
ATOM     21  C   UNL     1      12.634   9.924  20.954  0.00  0.00    +0.137 C 
ATOM     22  C   UNL     1      10.438   8.747  22.346  0.00  0.00    +0.179 C 
ATOM     23  C   UNL     1      12.229  10.270  22.383  0.00  0.00    +0.179 C 
ATOM     26  H   UNL     1      14.595   8.803  19.868  0.00  0.00    +0.150 HD
ENDBRANCH  16   7
ENDBRANCH  11  16
TORSDOF 5
ENDMDL
MODEL 5
REMARK VINA RESULT:      -6.0      3.140      4.880
REMARK  Name = 75536746
REMARK  5 active torsions:
REMARK  status: ('A' for Active; 'I' for Inactive)
REMARK    1  A    between atoms: O_2  and  C_10
REMARK    2  A    between atoms: N_6  and  C_9
REMARK    3  A    between atoms: N_6  and  C_12
REMARK    4  A    between atoms: N_7  and  C_16
REMARK    5  A    between atoms: C_11  and  C_16
REMARK                            x       y       z     vdW  Elec       q    Type
REMARK                         _______ _______ _______ _____ _____    ______ ____
ROOT
ATOM      1  O   UNL     1      17.281   7.098  21.576  0.00  0.00    -0.371 OA
ATOM      9  C   UNL     1      15.532   6.474  20.094  0.00  0.00    +0.111 C 
ATOM     10  C   UNL     1      16.861   6.360  19.367  0.00  0.00    +0.164 C 
ATOM     11  C   UNL     1      17.828   6.265  20.540  0.00  0.00    +0.165 C 
ATOM     13  C   UNL     1      15.904   7.372  21.261  0.00  0.00    +0.181 C 
ENDROOT
BRANCH  10   2
ATOM      2  O   UNL     1      16.930   5.221  18.532  0.00  0.00    -0.388 OA
ATOM     25  H   UNL     1      17.115   4.445  19.087  0.00  0.00    +0.210 HD
ENDBRANCH  10   2
BRANCH   9   6
ATOM      6  N   UNL     1      14.465   7.023  19.274  0.00  0.00    -0.306 NA
ATOM     24  H   UNL     1      14.101   6.307  18.646  0.00  0.00    +0.123 HD
BRANCH   6  12
ATOM      3  O   UNL     1      10.567   8.006  20.484  0.00  0.00    -0.380 OA
ATOM     12  C   UNL     1      13.384   7.549  20.103  0.00  0.00    +0.058 C 
ATOM     14  C   UNL     1      12.620   8.644  19.351  0.00  0.00    +0.047 C 
ATOM     15  C   UNL     1      12.422   6.436  20.527  0.00  0.00    +0.047 C 
ATOM     17  C   UNL     1      11.418   9.108  20.166  0.00  0.00    +0.161 C 
ATOM     18  C   UNL     1      11.231   7.022  21.277  0.00  0.00    +0.161 C 
ENDBRANCH   6  12
ENDBRANCH   9   6
BRANCH  11  16
ATOM     16  C   UNL     1      19.234   6.728  20.197  0.00  0.00    +0.140 C 
BRANCH  16   7
ATOM      4  O   UNL     1      24.179   3.114  22.115  0.00  0.00    -0.377 OA
ATOM      5  O   UNL     1      22.024   7.042  20.013  0.00  0.00    -0.253 OA
ATOM      7  N   UNL     1      20.219   5.732  20.553  0.00  0.00    -0.297 N 
ATOM      8  N   UNL     1      22.417   4.900  20.813  0.00  0.00    -0.281 N 
ATOM     19  C   UNL     1      21.584   5.966  20.433  0.00  0.00    +0.302 C 
ATOM     20  C   UNL     1      23.870   5.057  20.711  0.00  0.00    +0.137 C 
ATOM     21  C   UNL     1      21.978   3.544  21.175  0.00  0.00    +0.137 C 
ATOM     22  C   UNL     1      24.567   4.478  21.932  0.00  0.00    +0.179 C 
ATOM     23  C   UNL     1      22.777   3.016  22.363  0.00  0.00    +0.179 C 
ATOM     26  H   UNL     1      19.858   4.847  20.879  0.00  0.00    +0.150 HD
ENDBRANCH  16   7
ENDBRANCH  11  16
TORSDOF 5
ENDMDL
MODEL 6
REMARK VINA RESULT:      -5.9      2.810      6.943
REMARK  Name = 75536746
REMARK  5 active torsions:
REMARK  status: ('A' for Active; 'I' for Inactive)
REMARK    1  A    between atoms: O_2  and  C_10
REMARK    2  A    between atoms: N_6  and  C_9
REMARK    3  A    between atoms: N_6  and  C_12
REMARK    4  A    between atoms: N_7  and  C_16
REMARK    5  A    between atoms: C_11  and  C_16
REMARK                            x       y       z     vdW  Elec       q    Type
REMARK                         _______ _______ _______ _____ _____    ______ ____
ROOT
ATOM      1  O   UNL     1      13.623   9.067  19.159  0.00  0.00    -0.371 OA
ATOM      9  C   UNL     1      15.103   7.725  20.446  0.00  0.00    +0.111 C 
ATOM     10  C   UNL     1      13.678   7.473  20.907  0.00  0.00    +0.164 C 
ATOM     11  C   UNL     1      12.889   7.953  19.696  0.00  0.00    +0.165 C 
ATOM     13  C   UNL     1      14.951   9.047  19.712  0.00  0.00    +0.181 C 
ENDROOT
BRANCH  10   2
ATOM      2  O   UNL     1      13.431   6.110  21.191  0.00  0.00    -0.388 OA
ATOM     25  H   UNL     1      13.242   5.652  20.356  0.00  0.00    +0.210 HD
ENDBRANCH  10   2
BRANCH   9   6
ATOM      6  N   UNL     1      16.064   7.789  21.534  0.00  0.00    -0.306 NA
ATOM     24  H   UNL     1      15.947   6.987  22.153  0.00  0.00    +0.123 HD
BRANCH   6  12
ATOM      3  O   UNL     1      20.242   7.376  21.468  0.00  0.00    -0.380 OA
ATOM     12  C   UNL     1      17.433   7.822  21.024  0.00  0.00    +0.058 C 
ATOM     14  C   UNL     1      18.293   8.771  21.866  0.00  0.00    +0.047 C 
ATOM     15  C   UNL     1      18.053   6.422  21.014  0.00  0.00    +0.047 C 
ATOM     17  C   UNL     1      19.746   8.714  21.411  0.00  0.00    +0.161 C 
ATOM     18  C   UNL     1      19.521   6.495  20.607  0.00  0.00    +0.161 C 
ENDBRANCH   6  12
ENDBRANCH   9   6
BRANCH  11  16
ATOM     16  C   UNL     1      11.474   8.386  20.035  0.00  0.00    +0.140 C 
BRANCH  16   7
ATOM      4  O   UNL     1      11.821  13.319  24.126  0.00  0.00    -0.377 OA
ATOM      5  O   UNL     1      10.898   8.649  22.777  0.00  0.00    -0.253 OA
ATOM      7  N   UNL     1      11.465   9.625  20.780  0.00  0.00    -0.297 N 
ATOM      8  N   UNL     1      11.195  10.948  22.720  0.00  0.00    -0.281 N 
ATOM     19  C   UNL     1      11.169   9.670  22.137  0.00  0.00    +0.302 C 
ATOM     20  C   UNL     1      10.889  11.090  24.146  0.00  0.00    +0.137 C 
ATOM     21  C   UNL     1      11.357  12.224  22.006  0.00  0.00    +0.137 C 
ATOM     22  C   UNL     1      11.844  12.066  24.814  0.00  0.00    +0.179 C 
ATOM     23  C   UNL     1      12.273  13.166  22.781  0.00  0.00    +0.179 C 
ATOM     26  H   UNL     1      11.669  10.461  20.251  0.00  0.00    +0.150 HD
ENDBRANCH  16   7
ENDBRANCH  11  16
TORSDOF 5
ENDMDL
MODEL 7
REMARK VINA RESULT:      -5.9     26.001     28.497
REMARK  Name = 75536746
REMARK  5 active torsions:
REMARK  status: ('A' for Active; 'I' for Inactive)
REMARK    1  A    between atoms: O_2  and  C_10
REMARK    2  A    between atoms: N_6  and  C_9
REMARK    3  A    between atoms: N_6  and  C_12
REMARK    4  A    between atoms: N_7  and  C_16
REMARK    5  A    between atoms: C_11  and  C_16
REMARK                            x       y       z     vdW  Elec       q    Type
REMARK                         _______ _______ _______ _____ _____    ______ ____
ROOT
ATOM      1  O   UNL     1      -1.099 -11.422  15.052  0.00  0.00    -0.371 OA
ATOM      9  C   UNL     1      -3.184 -10.988  16.105  0.00  0.00    +0.111 C 
ATOM     10  C   UNL     1      -3.437 -11.596  14.736  0.00  0.00    +0.164 C 
ATOM     11  C   UNL     1      -2.099 -12.271  14.464  0.00  0.00    +0.165 C 
ATOM     13  C   UNL     1      -1.747 -10.516  15.962  0.00  0.00    +0.181 C 
ENDROOT
BRANCH  10   2
ATOM      2  O   UNL     1      -4.504 -12.524  14.741  0.00  0.00    -0.388 OA
ATOM     25  H   UNL     1      -5.071 -12.335  15.507  0.00  0.00    +0.210 HD
ENDBRANCH  10   2
BRANCH   9   6
ATOM      6  N   UNL     1      -4.103  -9.914  16.444  0.00  0.00    -0.306 NA
ATOM     24  H   UNL     1      -4.668  -9.667  15.632  0.00  0.00    +0.123 HD
BRANCH   6  12
ATOM      3  O   UNL     1      -6.675 -12.265  18.785  0.00  0.00    -0.380 OA
ATOM     12  C   UNL     1      -4.973 -10.298  17.553  0.00  0.00    +0.058 C 
ATOM     14  C   UNL     1      -6.386 -10.596  17.043  0.00  0.00    +0.047 C 
ATOM     15  C   UNL     1      -4.416 -11.516  18.296  0.00  0.00    +0.047 C 
ATOM     17  C   UNL     1      -7.262 -11.113  18.179  0.00  0.00    +0.161 C 
ATOM     18  C   UNL     1      -5.400 -11.982  19.362  0.00  0.00    +0.161 C 
ENDBRANCH   6  12
ENDBRANCH   9   6
BRANCH  11  16
ATOM     16  C   UNL     1      -1.811 -12.455  12.984  0.00  0.00    +0.140 C 
BRANCH  16   7
ATOM      4  O   UNL     1      -5.777  -9.714   8.747  0.00  0.00    -0.377 OA
ATOM      5  O   UNL     1      -1.743 -10.007  11.598  0.00  0.00    -0.253 OA
ATOM      7  N   UNL     1      -2.877 -11.918  12.168  0.00  0.00    -0.297 N 
ATOM      8  N   UNL     1      -3.886 -10.307  10.762  0.00  0.00    -0.281 N 
ATOM     19  C   UNL     1      -2.764 -10.697  11.513  0.00  0.00    +0.302 C 
ATOM     20  C   UNL     1      -3.856  -9.030  10.045  0.00  0.00    +0.137 C 
ATOM     21  C   UNL     1      -5.188 -10.990  10.731  0.00  0.00    +0.137 C 
ATOM     22  C   UNL     1      -4.457  -9.172   8.656  0.00  0.00    +0.179 C 
ATOM     23  C   UNL     1      -5.747 -11.024   9.313  0.00  0.00    +0.179 C 
ATOM     26  H   UNL     1      -3.717 -12.475  12.114  0.00  0.00    +0.150 HD
ENDBRANCH  16   7
ENDBRANCH  11  16
TORSDOF 5
ENDMDL
MODEL 8
REMARK VINA RESULT:      -5.8     26.597     28.880
REMARK  Name = 75536746
REMARK  5 active torsions:
REMARK  status: ('A' for Active; 'I' for Inactive)
REMARK    1  A    between atoms: O_2  and  C_10
REMARK    2  A    between atoms: N_6  and  C_9
REMARK    3  A    between atoms: N_6  and  C_12
REMARK    4  A    between atoms: N_7  and  C_16
REMARK    5  A    between atoms: C_11  and  C_16
REMARK                            x       y       z     vdW  Elec       q    Type
REMARK                         _______ _______ _______ _____ _____    ______ ____
ROOT
ATOM      1  O   UNL     1      -3.993 -10.319  14.061  0.00  0.00    -0.371 OA
ATOM      9  C   UNL     1      -3.502 -10.917  16.308  0.00  0.00    +0.111 C 
ATOM     10  C   UNL     1      -2.382 -11.409  15.408  0.00  0.00    +0.164 C 
ATOM     11  C   UNL     1      -2.575 -10.519  14.187  0.00  0.00    +0.165 C 
ATOM     13  C   UNL     1      -4.618 -10.693  15.302  0.00  0.00    +0.181 C 
ENDROOT
BRANCH  10   2
ATOM      2  O   UNL     1      -1.103 -11.240  15.988  0.00  0.00    -0.388 OA
ATOM     25  H   UNL     1      -1.068 -10.362  16.402  0.00  0.00    +0.210 HD
ENDBRANCH  10   2
BRANCH   9   6
ATOM      6  N   UNL     1      -3.864 -11.858  17.355  0.00  0.00    -0.306 NA
ATOM     24  H   UNL     1      -3.217 -11.775  18.139  0.00  0.00    +0.123 HD
BRANCH   6  12
ATOM      3  O   UNL     1      -7.201 -11.861  19.903  0.00  0.00    -0.380 OA
ATOM     12  C   UNL     1      -5.231 -11.629  17.816  0.00  0.00    +0.058 C 
ATOM     14  C   UNL     1      -5.905 -12.960  18.166  0.00  0.00    +0.047 C 
ATOM     15  C   UNL     1      -5.256 -10.694  19.029  0.00  0.00    +0.047 C 
ATOM     17  C   UNL     1      -7.286 -12.715  18.762  0.00  0.00    +0.161 C 
ATOM     18  C   UNL     1      -6.673 -10.575  19.577  0.00  0.00    +0.161 C 
ENDBRANCH   6  12
ENDBRANCH   9   6
BRANCH  11  16
ATOM     16  C   UNL     1      -2.027 -11.129  12.909  0.00  0.00    +0.140 C 
BRANCH  16   7
ATOM      4  O   UNL     1      -5.704  -9.628   7.867  0.00  0.00    -0.377 OA
ATOM      5  O   UNL     1      -3.265 -12.674  10.909  0.00  0.00    -0.253 OA
ATOM      7  N   UNL     1      -2.707 -10.611  11.743  0.00  0.00    -0.297 N 
ATOM      8  N   UNL     1      -3.913 -10.793   9.718  0.00  0.00    -0.281 N 
ATOM     19  C   UNL     1      -3.295 -11.444  10.798  0.00  0.00    +0.302 C 
ATOM     20  C   UNL     1      -4.553 -11.594   8.671  0.00  0.00    +0.137 C 
ATOM     21  C   UNL     1      -3.864  -9.351   9.432  0.00  0.00    +0.137 C 
ATOM     22  C   UNL     1      -5.886 -10.990   8.260  0.00  0.00    +0.179 C 
ATOM     23  C   UNL     1      -5.223  -8.846   8.960  0.00  0.00    +0.179 C 
ATOM     26  H   UNL     1      -2.715  -9.606  11.645  0.00  0.00    +0.150 HD
ENDBRANCH  16   7
ENDBRANCH  11  16
TORSDOF 5
ENDMDL
MODEL 9
REMARK VINA RESULT:      -5.5      5.680      7.383
REMARK  Name = 75536746
REMARK  5 active torsions:
REMARK  status: ('A' for Active; 'I' for Inactive)
REMARK    1  A    between atoms: O_2  and  C_10
REMARK    2  A    between atoms: N_6  and  C_9
REMARK    3  A    between atoms: N_6  and  C_12
REMARK    4  A    between atoms: N_7  and  C_16
REMARK    5  A    between atoms: C_11  and  C_16
REMARK                            x       y       z     vdW  Elec       q    Type
REMARK                         _______ _______ _______ _____ _____    ______ ____
ROOT
ATOM      1  O   UNL     1      10.597  13.126  23.143  0.00  0.00    -0.371 OA
ATOM      9  C   UNL     1      11.576  10.961  23.119  0.00  0.00    +0.111 C 
ATOM     10  C   UNL     1      11.555  11.480  24.546  0.00  0.00    +0.164 C 
ATOM     11  C   UNL     1      10.474  12.548  24.454  0.00  0.00    +0.165 C 
ATOM     13  C   UNL     1      11.395  12.247  22.330  0.00  0.00    +0.181 C 
ENDROOT
BRANCH  10   2
ATOM      2  O   UNL     1      11.226  10.475  25.486  0.00  0.00    -0.388 OA
ATOM     25  H   UNL     1      10.422  10.750  25.959  0.00  0.00    +0.210 HD
ENDBRANCH  10   2
BRANCH   9   6
ATOM      6  N   UNL     1      12.797  10.253  22.775  0.00  0.00    -0.306 NA
ATOM     24  H   UNL     1      13.322  10.027  23.619  0.00  0.00    +0.123 HD
BRANCH   6  12
ATOM      3  O   UNL     1      10.809   7.609  20.189  0.00  0.00    -0.380 OA
ATOM     12  C   UNL     1      12.503   9.028  22.034  0.00  0.00    +0.058 C 
ATOM     14  C   UNL     1      11.129   8.481  22.434  0.00  0.00    +0.047 C 
ATOM     15  C   UNL     1      12.551   9.272  20.523  0.00  0.00    +0.047 C 
ATOM     17  C   UNL     1      10.768   7.275  21.576  0.00  0.00    +0.161 C 
ATOM     18  C   UNL     1      12.111   8.021  19.771  0.00  0.00    +0.161 C 
ENDBRANCH   6  12
ENDBRANCH   9   6
BRANCH  11  16
ATOM     16  C   UNL     1      10.611  13.633  25.508  0.00  0.00    +0.140 C 
BRANCH  16   7
ATOM      4  O   UNL     1      16.117  14.217  28.754  0.00  0.00    -0.377 OA
ATOM      5  O   UNL     1      12.673  15.546  25.458  0.00  0.00    -0.253 OA
ATOM      7  N   UNL     1      11.871  13.532  26.209  0.00  0.00    -0.297 N 
ATOM      8  N   UNL     1      14.016  14.281  26.864  0.00  0.00    -0.281 N 
ATOM     19  C   UNL     1      12.841  14.525  26.133  0.00  0.00    +0.302 C 
ATOM     20  C   UNL     1      15.095  15.272  26.835  0.00  0.00    +0.137 C 
ATOM     21  C   UNL     1      14.358  13.034  27.564  0.00  0.00    +0.137 C 
ATOM     22  C   UNL     1      15.688  15.472  28.220  0.00  0.00    +0.179 C 
ATOM     23  C   UNL     1      15.010  13.329  28.910  0.00  0.00    +0.179 C 
ATOM     26  H   UNL     1      12.014  12.688  26.745  0.00  0.00    +0.150 HD
ENDBRANCH  16   7
ENDBRANCH  11  16
TORSDOF 5
ENDMDL
MODEL 10
REMARK VINA RESULT:      -5.5     26.426     28.718
REMARK  Name = 75536746
REMARK  5 active torsions:
REMARK  status: ('A' for Active; 'I' for Inactive)
REMARK    1  A    between atoms: O_2  and  C_10
REMARK    2  A    between atoms: N_6  and  C_9
REMARK    3  A    between atoms: N_6  and  C_12
REMARK    4  A    between atoms: N_7  and  C_16
REMARK    5  A    between atoms: C_11  and  C_16
REMARK                            x       y       z     vdW  Elec       q    Type
REMARK                         _______ _______ _______ _____ _____    ______ ____
ROOT
ATOM      1  O   UNL     1      -3.924 -12.308  15.612  0.00  0.00    -0.371 OA
ATOM      9  C   UNL     1      -2.118 -11.993  14.100  0.00  0.00    +0.111 C 
ATOM     10  C   UNL     1      -2.551 -10.643  14.643  0.00  0.00    +0.164 C 
ATOM     11  C   UNL     1      -3.281 -11.059  15.914  0.00  0.00    +0.165 C 
ATOM     13  C   UNL     1      -3.335 -12.847  14.415  0.00  0.00    +0.181 C 
ENDROOT
BRANCH  10   2
ATOM      2  O   UNL     1      -1.456  -9.790  14.918  0.00  0.00    -0.388 OA
ATOM     25  H   UNL     1      -0.696 -10.089  14.394  0.00  0.00    +0.210 HD
ENDBRANCH  10   2
BRANCH   9   6
ATOM      6  N   UNL     1      -1.791 -11.974  12.684  0.00  0.00    -0.306 NA
ATOM     24  H   UNL     1      -1.704 -12.926  12.331  0.00  0.00    +0.123 HD
BRANCH   6  12
ATOM      3  O   UNL     1      -3.740 -10.252   9.388  0.00  0.00    -0.380 OA
ATOM     12  C   UNL     1      -2.809 -11.256  11.920  0.00  0.00    +0.058 C 
ATOM     14  C   UNL     1      -2.200 -10.019  11.252  0.00  0.00    +0.047 C 
ATOM     15  C   UNL     1      -3.446 -12.162  10.862  0.00  0.00    +0.047 C 
ATOM     17  C   UNL     1      -3.230  -9.338  10.358  0.00  0.00    +0.161 C 
ATOM     18  C   UNL     1      -4.407 -11.363   9.989  0.00  0.00    +0.161 C 
ENDBRANCH   6  12
ENDBRANCH   9   6
BRANCH  11  16
ATOM     16  C   UNL     1      -4.316 -10.045  16.369  0.00  0.00    +0.140 C 
BRANCH  16   7
ATOM      4  O   UNL     1      -9.133 -12.479  19.842  0.00  0.00    -0.377 OA
ATOM      5  O   UNL     1      -7.007  -9.295  16.708  0.00  0.00    -0.253 OA
ATOM      7  N   UNL     1      -5.239 -10.623  17.319  0.00  0.00    -0.297 N 
ATOM      8  N   UNL     1      -7.331 -10.850  18.398  0.00  0.00    -0.281 N 
ATOM     19  C   UNL     1      -6.557 -10.195  17.424  0.00  0.00    +0.302 C 
ATOM     20  C   UNL     1      -8.730 -10.457  18.582  0.00  0.00    +0.137 C 
ATOM     21  C   UNL     1      -6.838 -11.818  19.389  0.00  0.00    +0.137 C 
ATOM     22  C   UNL     1      -9.619 -11.677  18.763  0.00  0.00    +0.179 C 
ATOM     23  C   UNL     1      -7.823 -12.970  19.557  0.00  0.00    +0.179 C 
ATOM     26  H   UNL     1      -4.865 -11.347  17.916  0.00  0.00    +0.150 HD
ENDBRANCH  16   7
ENDBRANCH  11  16
TORSDOF 5
ENDMDL
