MODEL 1
REMARK VINA RESULT:      -7.5      0.000      0.000
REMARK  Name = 11882109
REMARK  11 active torsions:
REMARK  status: ('A' for Active; 'I' for Inactive)
REMARK    1  A    between atoms: N_6  and  C_12
REMARK    2  A    between atoms: N_7  and  C_18
REMARK    3  A    between atoms: N_8  and  C_30
REMARK    4  A    between atoms: N_9  and  C_25
REMARK    5  A    between atoms: C_13  and  C_16
REMARK    6  A    between atoms: C_17  and  C_19
REMARK    7  A    between atoms: C_18  and  C_21
REMARK    8  A    between atoms: C_18  and  C_24
REMARK    9  A    between atoms: C_21  and  C_22
REMARK   10  A    between atoms: C_25  and  C_32
REMARK   11  A    between atoms: C_25  and  C_33
REMARK                            x       y       z     vdW  Elec       q    Type
REMARK                         _______ _______ _______ _____ _____    ______ ____
ROOT
ATOM      2  O   UNL     1      11.197  12.998  21.134  0.00  0.00    -0.268 OA
ATOM      5  N   UNL     1      12.903  11.837  22.167  0.00  0.00    -0.283 N 
ATOM     12  C   UNL     1      14.745  10.600  21.331  0.00  0.00    +0.105 C 
ATOM     13  C   UNL     1      13.385  11.187  20.952  0.00  0.00    +0.182 C 
ATOM     14  C   UNL     1      14.611  10.338  22.833  0.00  0.00    +0.043 C 
ATOM     15  C   UNL     1      13.730  11.481  23.321  0.00  0.00    +0.111 C 
ATOM     17  C   UNL     1      11.847  12.753  22.151  0.00  0.00    +0.264 C 
ENDROOT
BRANCH  12   6
ATOM      3  O   UNL     1      17.486   9.973  20.684  0.00  0.00    -0.253 OA
ATOM      6  N   UNL     1      15.811  11.536  21.061  0.00  0.00    -0.294 N 
ATOM      9  N   UNL     1      17.936  12.246  20.541  0.00  0.00    -0.297 N 
ATOM     20  C   UNL     1      17.112  11.143  20.756  0.00  0.00    +0.300 C 
ATOM     38  H   UNL     1      15.621  12.528  21.163  0.00  0.00    +0.151 HD
ATOM     40  H   UNL     1      17.552  13.173  20.695  0.00  0.00    +0.150 HD
BRANCH   9  25
ATOM     25  C   UNL     1      19.335  12.123  20.208  0.00  0.00    +0.068 C 
ATOM     32  C   UNL     1      20.148  11.782  21.451  0.00  0.00    +0.027 C 
ATOM     33  C   UNL     1      19.841  13.401  19.551  0.00  0.00    +0.027 C 
ENDBRANCH   9  25
ENDBRANCH  12   6
BRANCH  17  19
ATOM      8  N   UNL     1      12.111  14.549  23.877  0.00  0.00    -0.346 N 
ATOM     19  C   UNL     1      11.526  13.398  23.419  0.00  0.00    +0.104 A 
ATOM     23  C   UNL     1      10.608  12.988  24.360  0.00  0.00    +0.032 A 
ATOM     27  C   UNL     1      11.580  14.880  25.097  0.00  0.00    +0.086 A 
ATOM     28  C   UNL     1      10.642  13.925  25.422  0.00  0.00    +0.020 A 
ATOM     30  C   UNL     1      13.132  15.310  23.192  0.00  0.00    +0.149 C 
ENDBRANCH  17  19
BRANCH  13  16
ATOM      1  O   UNL     1      11.371   9.943  21.272  0.00  0.00    -0.274 OA
ATOM      7  N   UNL     1      12.807   9.337  19.543  0.00  0.00    -0.302 N 
ATOM     16  C   UNL     1      12.400  10.105  20.621  0.00  0.00    +0.236 C 
ATOM     39  H   UNL     1      13.627   9.627  19.020  0.00  0.00    +0.150 HD
BRANCH   7  18
ATOM     18  C   UNL     1      12.047   8.218  19.038  0.00  0.00    +0.163 C 
BRANCH  18  24
ATOM      4  O   UNL     1      10.783   7.950  16.979  0.00  0.00    -0.274 OA
ATOM     11  N   UNL     1      12.332   9.642  17.105  0.00  0.00    -0.328 N 
ATOM     24  C   UNL     1      11.650   8.554  17.608  0.00  0.00    +0.231 C 
ATOM     42  H   UNL     1      13.029  10.145  17.645  0.00  0.00    +0.145 HD
ATOM     43  H   UNL     1      12.153   9.980  16.165  0.00  0.00    +0.145 HD
ENDBRANCH  18  24
BRANCH  18  21
ATOM     21  C   UNL     1      12.844   6.908  19.079  0.00  0.00    +0.069 C 
BRANCH  21  22
ATOM     10  N   UNL     1      14.841   6.996  22.164  0.00  0.00    -0.360 N 
ATOM     22  C   UNL     1      13.881   6.882  20.166  0.00  0.00    -0.020 A 
ATOM     26  C   UNL     1      15.271   6.628  20.006  0.00  0.00    +0.003 A 
ATOM     29  C   UNL     1      13.647   7.105  21.504  0.00  0.00    +0.087 A 
ATOM     31  C   UNL     1      15.851   6.705  21.274  0.00  0.00    +0.047 A 
ATOM     34  C   UNL     1      16.096   6.339  18.900  0.00  0.00    +0.010 A 
ATOM     35  C   UNL     1      17.218   6.506  21.493  0.00  0.00    +0.026 A 
ATOM     36  C   UNL     1      17.466   6.138  19.104  0.00  0.00    +0.001 A 
ATOM     37  C   UNL     1      18.016   6.220  20.381  0.00  0.00    +0.002 A 
ATOM     41  H   UNL     1      14.964   7.112  23.160  0.00  0.00    +0.165 HD
ENDBRANCH  21  22
ENDBRANCH  18  21
ENDBRANCH   7  18
ENDBRANCH  13  16
TORSDOF 8
ENDMDL
MODEL 2
REMARK VINA RESULT:      -7.5      2.508      3.999
REMARK  Name = 11882109
REMARK  11 active torsions:
REMARK  status: ('A' for Active; 'I' for Inactive)
REMARK    1  A    between atoms: N_6  and  C_12
REMARK    2  A    between atoms: N_7  and  C_18
REMARK    3  A    between atoms: N_8  and  C_30
REMARK    4  A    between atoms: N_9  and  C_25
REMARK    5  A    between atoms: C_13  and  C_16
REMARK    6  A    between atoms: C_17  and  C_19
REMARK    7  A    between atoms: C_18  and  C_21
REMARK    8  A    between atoms: C_18  and  C_24
REMARK    9  A    between atoms: C_21  and  C_22
REMARK   10  A    between atoms: C_25  and  C_32
REMARK   11  A    between atoms: C_25  and  C_33
REMARK                            x       y       z     vdW  Elec       q    Type
REMARK                         _______ _______ _______ _____ _____    ______ ____
ROOT
ATOM      2  O   UNL     1      10.917  11.073  21.973  0.00  0.00    -0.268 OA
ATOM      5  N   UNL     1      13.080  11.727  22.438  0.00  0.00    -0.283 N 
ATOM     12  C   UNL     1      15.118  11.513  21.245  0.00  0.00    +0.105 C 
ATOM     13  C   UNL     1      13.691  10.974  21.347  0.00  0.00    +0.182 C 
ATOM     14  C   UNL     1      15.423  11.978  22.671  0.00  0.00    +0.043 C 
ATOM     15  C   UNL     1      14.083  12.497  23.175  0.00  0.00    +0.111 C 
ATOM     17  C   UNL     1      11.697  11.755  22.639  0.00  0.00    +0.264 C 
ENDROOT
BRANCH  12   6
ATOM      3  O   UNL     1      15.418  11.348  18.380  0.00  0.00    -0.253 OA
ATOM      6  N   UNL     1      15.194  12.615  20.314  0.00  0.00    -0.294 N 
ATOM      9  N   UNL     1      15.385  13.667  18.278  0.00  0.00    -0.297 N 
ATOM     20  C   UNL     1      15.340  12.441  18.939  0.00  0.00    +0.300 C 
ATOM     38  H   UNL     1      15.208  13.560  20.683  0.00  0.00    +0.151 HD
ATOM     40  H   UNL     1      15.387  14.517  18.834  0.00  0.00    +0.150 HD
BRANCH   9  25
ATOM     25  C   UNL     1      15.532  13.777  16.846  0.00  0.00    +0.068 C 
ATOM     32  C   UNL     1      16.313  15.036  16.489  0.00  0.00    +0.027 C 
ATOM     33  C   UNL     1      14.167  13.764  16.167  0.00  0.00    +0.027 C 
ENDBRANCH   9  25
ENDBRANCH  12   6
BRANCH  17  19
ATOM      8  N   UNL     1      10.852  13.931  23.546  0.00  0.00    -0.346 N 
ATOM     19  C   UNL     1      11.212  12.619  23.709  0.00  0.00    +0.104 A 
ATOM     23  C   UNL     1      11.031  12.293  25.035  0.00  0.00    +0.032 A 
ATOM     27  C   UNL     1      10.442  14.447  24.748  0.00  0.00    +0.086 A 
ATOM     28  C   UNL     1      10.544  13.450  25.693  0.00  0.00    +0.020 A 
ATOM     30  C   UNL     1      10.889  14.672  22.304  0.00  0.00    +0.149 C 
ENDBRANCH  17  19
BRANCH  13  16
ATOM      1  O   UNL     1      14.476   9.091  22.589  0.00  0.00    -0.274 OA
ATOM      7  N   UNL     1      12.720   8.799  21.090  0.00  0.00    -0.302 N 
ATOM     16  C   UNL     1      13.684   9.532  21.760  0.00  0.00    +0.236 C 
ATOM     39  H   UNL     1      12.056   9.290  20.501  0.00  0.00    +0.150 HD
BRANCH   7  18
ATOM     18  C   UNL     1      12.523   7.382  21.291  0.00  0.00    +0.163 C 
BRANCH  18  24
ATOM      4  O   UNL     1      10.521   8.039  22.504  0.00  0.00    -0.274 OA
ATOM     11  N   UNL     1      10.542   6.004  21.439  0.00  0.00    -0.328 N 
ATOM     24  C   UNL     1      11.111   7.197  21.830  0.00  0.00    +0.231 C 
ATOM     42  H   UNL     1      11.034   5.327  20.863  0.00  0.00    +0.145 HD
ATOM     43  H   UNL     1       9.597   5.760  21.719  0.00  0.00    +0.145 HD
ENDBRANCH  18  24
BRANCH  18  21
ATOM     21  C   UNL     1      12.711   6.580  19.998  0.00  0.00    +0.069 C 
BRANCH  21  22
ATOM     10  N   UNL     1      14.668   8.465  17.521  0.00  0.00    -0.360 N 
ATOM     22  C   UNL     1      13.255   7.405  18.866  0.00  0.00    -0.020 A 
ATOM     26  C   UNL     1      12.501   8.031  17.834  0.00  0.00    +0.003 A 
ATOM     29  C   UNL     1      14.583   7.689  18.646  0.00  0.00    +0.087 A 
ATOM     31  C   UNL     1      13.411   8.690  17.004  0.00  0.00    +0.047 A 
ATOM     34  C   UNL     1      11.128   8.102  17.527  0.00  0.00    +0.010 A 
ATOM     35  C   UNL     1      13.015   9.418  15.878  0.00  0.00    +0.026 A 
ATOM     36  C   UNL     1      10.717   8.828  16.402  0.00  0.00    +0.001 A 
ATOM     37  C   UNL     1      11.648   9.474  15.592  0.00  0.00    +0.002 A 
ATOM     41  H   UNL     1      15.527   8.821  17.127  0.00  0.00    +0.165 HD
ENDBRANCH  21  22
ENDBRANCH  18  21
ENDBRANCH   7  18
ENDBRANCH  13  16
TORSDOF 8
ENDMDL
MODEL 3
REMARK VINA RESULT:      -7.4     27.276     30.666
REMARK  Name = 11882109
REMARK  11 active torsions:
REMARK  status: ('A' for Active; 'I' for Inactive)
REMARK    1  A    between atoms: N_6  and  C_12
REMARK    2  A    between atoms: N_7  and  C_18
REMARK    3  A    between atoms: N_8  and  C_30
REMARK    4  A    between atoms: N_9  and  C_25
REMARK    5  A    between atoms: C_13  and  C_16
REMARK    6  A    between atoms: C_17  and  C_19
REMARK    7  A    between atoms: C_18  and  C_21
REMARK    8  A    between atoms: C_18  and  C_24
REMARK    9  A    between atoms: C_21  and  C_22
REMARK   10  A    between atoms: C_25  and  C_32
REMARK   11  A    between atoms: C_25  and  C_33
REMARK                            x       y       z     vdW  Elec       q    Type
REMARK                         _______ _______ _______ _____ _____    ______ ____
ROOT
ATOM      2  O   UNL     1      -4.943  -8.298  10.856  0.00  0.00    -0.268 OA
ATOM      5  N   UNL     1      -6.643  -9.757  11.406  0.00  0.00    -0.283 N 
ATOM     12  C   UNL     1      -7.551 -10.462  13.480  0.00  0.00    +0.105 C 
ATOM     13  C   UNL     1      -6.335  -9.798  12.832  0.00  0.00    +0.182 C 
ATOM     14  C   UNL     1      -8.100 -11.358  12.367  0.00  0.00    +0.043 C 
ATOM     15  C   UNL     1      -7.825 -10.564  11.097  0.00  0.00    +0.111 C 
ATOM     17  C   UNL     1      -5.931  -8.950  10.515  0.00  0.00    +0.264 C 
ENDROOT
BRANCH  12   6
ATOM      3  O   UNL     1      -8.071  -9.524  16.159  0.00  0.00    -0.253 OA
ATOM      6  N   UNL     1      -8.530  -9.479  13.883  0.00  0.00    -0.294 N 
ATOM      9  N   UNL     1      -9.718  -8.125  15.312  0.00  0.00    -0.297 N 
ATOM     20  C   UNL     1      -8.713  -9.084  15.206  0.00  0.00    +0.300 C 
ATOM     38  H   UNL     1      -9.158  -9.105  13.179  0.00  0.00    +0.151 HD
ATOM     40  H   UNL     1     -10.242  -7.879  14.478  0.00  0.00    +0.150 HD
BRANCH   9  25
ATOM     25  C   UNL     1     -10.114  -7.544  16.574  0.00  0.00    +0.068 C 
ATOM     32  C   UNL     1     -10.924  -8.545  17.388  0.00  0.00    +0.027 C 
ATOM     33  C   UNL     1     -10.896  -6.256  16.345  0.00  0.00    +0.027 C 
ENDBRANCH   9  25
ENDBRANCH  12   6
BRANCH  17  19
ATOM      8  N   UNL     1      -5.923  -9.747   8.140  0.00  0.00    -0.346 N 
ATOM     19  C   UNL     1      -6.400  -8.933   9.134  0.00  0.00    +0.104 A 
ATOM     23  C   UNL     1      -7.374  -8.127   8.589  0.00  0.00    +0.032 A 
ATOM     27  C   UNL     1      -6.579  -9.472   6.968  0.00  0.00    +0.086 A 
ATOM     28  C   UNL     1      -7.487  -8.467   7.218  0.00  0.00    +0.020 A 
ATOM     30  C   UNL     1      -4.889 -10.747   8.288  0.00  0.00    +0.149 C 
ENDBRANCH  17  19
BRANCH  13  16
ATOM      1  O   UNL     1      -4.774 -11.464  12.131  0.00  0.00    -0.274 OA
ATOM      7  N   UNL     1      -4.450 -10.407  14.179  0.00  0.00    -0.302 N 
ATOM     16  C   UNL     1      -5.108 -10.647  12.986  0.00  0.00    +0.236 C 
ATOM     39  H   UNL     1      -4.763  -9.637  14.762  0.00  0.00    +0.150 HD
BRANCH   7  18
ATOM     18  C   UNL     1      -3.252 -11.110  14.577  0.00  0.00    +0.163 C 
BRANCH  18  24
ATOM      4  O   UNL     1      -1.733 -10.164  12.932  0.00  0.00    -0.274 OA
ATOM     11  N   UNL     1      -1.434  -9.621  15.144  0.00  0.00    -0.328 N 
ATOM     24  C   UNL     1      -2.067 -10.278  14.110  0.00  0.00    +0.231 C 
ATOM     42  H   UNL     1      -1.735  -9.706  16.110  0.00  0.00    +0.145 HD
ATOM     43  H   UNL     1      -0.635  -9.020  14.968  0.00  0.00    +0.145 HD
ENDBRANCH  18  24
BRANCH  18  21
ATOM     21  C   UNL     1      -3.186 -11.332  16.093  0.00  0.00    +0.069 C 
BRANCH  21  22
ATOM     10  N   UNL     1      -5.846 -13.726  16.935  0.00  0.00    -0.360 N 
ATOM     22  C   UNL     1      -4.354 -12.111  16.628  0.00  0.00    -0.020 A 
ATOM     26  C   UNL     1      -5.256 -11.695  17.647  0.00  0.00    +0.003 A 
ATOM     29  C   UNL     1      -4.742 -13.363  16.210  0.00  0.00    +0.087 A 
ATOM     31  C   UNL     1      -6.182 -12.726  17.820  0.00  0.00    +0.047 A 
ATOM     34  C   UNL     1      -5.374 -10.536  18.439  0.00  0.00    +0.010 A 
ATOM     35  C   UNL     1      -7.223 -12.656  18.751  0.00  0.00    +0.026 A 
ATOM     36  C   UNL     1      -6.412 -10.453  19.375  0.00  0.00    +0.001 A 
ATOM     37  C   UNL     1      -7.321 -11.498  19.527  0.00  0.00    +0.002 A 
ATOM     41  H   UNL     1      -6.342 -14.600  16.835  0.00  0.00    +0.165 HD
ENDBRANCH  21  22
ENDBRANCH  18  21
ENDBRANCH   7  18
ENDBRANCH  13  16
TORSDOF 8
ENDMDL
MODEL 4
REMARK VINA RESULT:      -7.3      2.597      3.820
REMARK  Name = 11882109
REMARK  11 active torsions:
REMARK  status: ('A' for Active; 'I' for Inactive)
REMARK    1  A    between atoms: N_6  and  C_12
REMARK    2  A    between atoms: N_7  and  C_18
REMARK    3  A    between atoms: N_8  and  C_30
REMARK    4  A    between atoms: N_9  and  C_25
REMARK    5  A    between atoms: C_13  and  C_16
REMARK    6  A    between atoms: C_17  and  C_19
REMARK    7  A    between atoms: C_18  and  C_21
REMARK    8  A    between atoms: C_18  and  C_24
REMARK    9  A    between atoms: C_21  and  C_22
REMARK   10  A    between atoms: C_25  and  C_32
REMARK   11  A    between atoms: C_25  and  C_33
REMARK                            x       y       z     vdW  Elec       q    Type
REMARK                         _______ _______ _______ _____ _____    ______ ____
ROOT
ATOM      2  O   UNL     1      15.128  13.862  21.398  0.00  0.00    -0.268 OA
ATOM      5  N   UNL     1      14.756  11.733  22.208  0.00  0.00    -0.283 N 
ATOM     12  C   UNL     1      15.375   9.582  21.424  0.00  0.00    +0.105 C 
ATOM     13  C   UNL     1      15.217  11.045  21.006  0.00  0.00    +0.182 C 
ATOM     14  C   UNL     1      14.352   9.425  22.552  0.00  0.00    +0.043 C 
ATOM     15  C   UNL     1      14.375  10.779  23.250  0.00  0.00    +0.111 C 
ATOM     17  C   UNL     1      14.794  13.125  22.328  0.00  0.00    +0.264 C 
ENDROOT
BRANCH  12   6
ATOM      3  O   UNL     1      16.920   7.181  21.006  0.00  0.00    -0.253 OA
ATOM      6  N   UNL     1      16.713   9.316  21.897  0.00  0.00    -0.294 N 
ATOM      9  N   UNL     1      18.658   8.131  22.216  0.00  0.00    -0.297 N 
ATOM     20  C   UNL     1      17.386   8.122  21.647  0.00  0.00    +0.300 C 
ATOM     38  H   UNL     1      17.161  10.003  22.494  0.00  0.00    +0.151 HD
ATOM     40  H   UNL     1      18.925   8.925  22.790  0.00  0.00    +0.150 HD
BRANCH   9  25
ATOM     25  C   UNL     1      19.569   7.016  22.110  0.00  0.00    +0.068 C 
ATOM     32  C   UNL     1      20.367   6.859  23.398  0.00  0.00    +0.027 C 
ATOM     33  C   UNL     1      20.489   7.192  20.908  0.00  0.00    +0.027 C 
ENDBRANCH   9  25
ENDBRANCH  12   6
BRANCH  17  19
ATOM      8  N   UNL     1      15.237  13.903  24.667  0.00  0.00    -0.346 N 
ATOM     19  C   UNL     1      14.389  13.679  23.614  0.00  0.00    +0.104 A 
ATOM     23  C   UNL     1      13.125  14.066  24.001  0.00  0.00    +0.032 A 
ATOM     27  C   UNL     1      14.534  14.429  25.719  0.00  0.00    +0.086 A 
ATOM     28  C   UNL     1      13.216  14.540  25.333  0.00  0.00    +0.020 A 
ATOM     30  C   UNL     1      16.658  13.635  24.681  0.00  0.00    +0.149 C 
ENDBRANCH  17  19
BRANCH  13  16
ATOM      1  O   UNL     1      13.064  11.737  20.239  0.00  0.00    -0.274 OA
ATOM      7  N   UNL     1      14.498  10.663  18.752  0.00  0.00    -0.302 N 
ATOM     16  C   UNL     1      14.138  11.202  19.976  0.00  0.00    +0.236 C 
ATOM     39  H   UNL     1      15.451  10.337  18.625  0.00  0.00    +0.150 HD
BRANCH   7  18
ATOM     18  C   UNL     1      13.627  10.666  17.600  0.00  0.00    +0.163 C 
BRANCH  18  24
ATOM      4  O   UNL     1      15.529  11.777  16.572  0.00  0.00    -0.274 OA
ATOM     11  N   UNL     1      13.648  11.419  15.303  0.00  0.00    -0.328 N 
ATOM     24  C   UNL     1      14.378  11.357  16.471  0.00  0.00    +0.231 C 
ATOM     42  H   UNL     1      12.706  11.048  15.228  0.00  0.00    +0.145 HD
ATOM     43  H   UNL     1      14.037  11.844  14.467  0.00  0.00    +0.145 HD
ENDBRANCH  18  24
BRANCH  18  21
ATOM     21  C   UNL     1      13.214   9.250  17.180  0.00  0.00    +0.069 C 
BRANCH  21  22
ATOM     10  N   UNL     1      14.142   6.605  19.560  0.00  0.00    -0.360 N 
ATOM     22  C   UNL     1      13.351   8.243  18.288  0.00  0.00    -0.020 A 
ATOM     26  C   UNL     1      12.447   8.044  19.368  0.00  0.00    +0.003 A 
ATOM     29  C   UNL     1      14.383   7.345  18.433  0.00  0.00    +0.087 A 
ATOM     31  C   UNL     1      12.966   7.010  20.151  0.00  0.00    +0.047 A 
ATOM     34  C   UNL     1      11.232   8.643  19.755  0.00  0.00    +0.010 A 
ATOM     35  C   UNL     1      12.330   6.546  21.307  0.00  0.00    +0.026 A 
ATOM     36  C   UNL     1      10.584   8.189  20.910  0.00  0.00    +0.001 A 
ATOM     37  C   UNL     1      11.127   7.157  21.672  0.00  0.00    +0.002 A 
ATOM     41  H   UNL     1      14.740   5.868  19.908  0.00  0.00    +0.165 HD
ENDBRANCH  21  22
ENDBRANCH  18  21
ENDBRANCH   7  18
ENDBRANCH  13  16
TORSDOF 8
ENDMDL
MODEL 5
REMARK VINA RESULT:      -7.1     26.970     30.962
REMARK  Name = 11882109
REMARK  11 active torsions:
REMARK  status: ('A' for Active; 'I' for Inactive)
REMARK    1  A    between atoms: N_6  and  C_12
REMARK    2  A    between atoms: N_7  and  C_18
REMARK    3  A    between atoms: N_8  and  C_30
REMARK    4  A    between atoms: N_9  and  C_25
REMARK    5  A    between atoms: C_13  and  C_16
REMARK    6  A    between atoms: C_17  and  C_19
REMARK    7  A    between atoms: C_18  and  C_21
REMARK    8  A    between atoms: C_18  and  C_24
REMARK    9  A    between atoms: C_21  and  C_22
REMARK   10  A    between atoms: C_25  and  C_32
REMARK   11  A    between atoms: C_25  and  C_33
REMARK                            x       y       z     vdW  Elec       q    Type
REMARK                         _______ _______ _______ _____ _____    ______ ____
ROOT
ATOM      2  O   UNL     1      -5.968 -13.684  14.335  0.00  0.00    -0.268 OA
ATOM      5  N   UNL     1      -5.380 -12.836  16.399  0.00  0.00    -0.283 N 
ATOM     12  C   UNL     1      -5.911 -10.814  17.518  0.00  0.00    +0.105 C 
ATOM     13  C   UNL     1      -5.893 -11.492  16.148  0.00  0.00    +0.182 C 
ATOM     14  C   UNL     1      -4.787 -11.523  18.278  0.00  0.00    +0.043 C 
ATOM     15  C   UNL     1      -4.846 -12.953  17.756  0.00  0.00    +0.111 C 
ATOM     17  C   UNL     1      -5.505 -13.866  15.462  0.00  0.00    +0.264 C 
ENDROOT
BRANCH  12   6
ATOM      3  O   UNL     1      -8.213  -9.078  17.384  0.00  0.00    -0.253 OA
ATOM      6  N   UNL     1      -7.182 -11.003  18.177  0.00  0.00    -0.294 N 
ATOM      9  N   UNL     1      -9.347 -10.533  18.793  0.00  0.00    -0.297 N 
ATOM     20  C   UNL     1      -8.244 -10.109  18.056  0.00  0.00    +0.300 C 
ATOM     38  H   UNL     1      -7.286 -11.789  18.810  0.00  0.00    +0.151 HD
ATOM     40  H   UNL     1      -9.251 -11.360  19.375  0.00  0.00    +0.150 HD
BRANCH   9  25
ATOM     25  C   UNL     1     -10.585  -9.791  18.844  0.00  0.00    +0.068 C 
ATOM     32  C   UNL     1     -11.284 -10.018  20.179  0.00  0.00    +0.027 C 
ATOM     33  C   UNL     1     -11.485 -10.175  17.676  0.00  0.00    +0.027 C 
ENDBRANCH   9  25
ENDBRANCH  12   6
BRANCH  17  19
ATOM      8  N   UNL     1      -5.808 -16.132  16.486  0.00  0.00    -0.346 N 
ATOM     19  C   UNL     1      -5.032 -15.182  15.875  0.00  0.00    +0.104 A 
ATOM     23  C   UNL     1      -3.763 -15.699  15.736  0.00  0.00    +0.032 A 
ATOM     27  C   UNL     1      -5.054 -17.249  16.737  0.00  0.00    +0.086 A 
ATOM     28  C   UNL     1      -3.777 -17.007  16.281  0.00  0.00    +0.020 A 
ATOM     30  C   UNL     1      -7.209 -15.995  16.818  0.00  0.00    +0.149 C 
ENDBRANCH  17  19
BRANCH  13  16
ATOM      1  O   UNL     1      -5.249  -9.882  14.506  0.00  0.00    -0.274 OA
ATOM      7  N   UNL     1      -3.663 -11.404  15.274  0.00  0.00    -0.302 N 
ATOM     16  C   UNL     1      -4.919 -10.823  15.223  0.00  0.00    +0.236 C 
ATOM     39  H   UNL     1      -3.482 -12.112  15.978  0.00  0.00    +0.150 HD
BRANCH   7  18
ATOM     18  C   UNL     1      -2.554 -10.958  14.464  0.00  0.00    +0.163 C 
BRANCH  18  24
ATOM      4  O   UNL     1      -0.793  -9.428  15.144  0.00  0.00    -0.274 OA
ATOM     11  N   UNL     1      -1.472 -11.048  16.624  0.00  0.00    -0.328 N 
ATOM     24  C   UNL     1      -1.505 -10.393  15.411  0.00  0.00    +0.231 C 
ATOM     42  H   UNL     1      -2.083 -11.830  16.838  0.00  0.00    +0.145 HD
ATOM     43  H   UNL     1      -0.826 -10.763  17.353  0.00  0.00    +0.145 HD
ENDBRANCH  18  24
BRANCH  18  21
ATOM     21  C   UNL     1      -1.957 -12.093  13.621  0.00  0.00    +0.069 C 
BRANCH  21  22
ATOM     10  N   UNL     1      -3.851 -13.408  10.757  0.00  0.00    -0.360 N 
ATOM     22  C   UNL     1      -2.728 -12.358  12.359  0.00  0.00    -0.020 A 
ATOM     26  C   UNL     1      -3.091 -11.401  11.370  0.00  0.00    +0.003 A 
ATOM     29  C   UNL     1      -3.210 -13.582  11.955  0.00  0.00    +0.087 A 
ATOM     31  C   UNL     1      -3.795 -12.086  10.377  0.00  0.00    +0.047 A 
ATOM     34  C   UNL     1      -2.887 -10.015  11.224  0.00  0.00    +0.010 A 
ATOM     35  C   UNL     1      -4.307 -11.451   9.240  0.00  0.00    +0.026 A 
ATOM     36  C   UNL     1      -3.395  -9.366  10.092  0.00  0.00    +0.001 A 
ATOM     37  C   UNL     1      -4.093 -10.075   9.117  0.00  0.00    +0.002 A 
ATOM     41  H   UNL     1      -4.301 -14.143  10.229  0.00  0.00    +0.165 HD
ENDBRANCH  21  22
ENDBRANCH  18  21
ENDBRANCH   7  18
ENDBRANCH  13  16
TORSDOF 8
ENDMDL
MODEL 6
REMARK VINA RESULT:      -7.1     14.546     18.485
REMARK  Name = 11882109
REMARK  11 active torsions:
REMARK  status: ('A' for Active; 'I' for Inactive)
REMARK    1  A    between atoms: N_6  and  C_12
REMARK    2  A    between atoms: N_7  and  C_18
REMARK    3  A    between atoms: N_8  and  C_30
REMARK    4  A    between atoms: N_9  and  C_25
REMARK    5  A    between atoms: C_13  and  C_16
REMARK    6  A    between atoms: C_17  and  C_19
REMARK    7  A    between atoms: C_18  and  C_21
REMARK    8  A    between atoms: C_18  and  C_24
REMARK    9  A    between atoms: C_21  and  C_22
REMARK   10  A    between atoms: C_25  and  C_32
REMARK   11  A    between atoms: C_25  and  C_33
REMARK                            x       y       z     vdW  Elec       q    Type
REMARK                         _______ _______ _______ _____ _____    ______ ____
ROOT
ATOM      2  O   UNL     1      11.135   3.487   2.996  0.00  0.00    -0.268 OA
ATOM      5  N   UNL     1      11.581   5.750   2.980  0.00  0.00    -0.283 N 
ATOM     12  C   UNL     1      12.505   7.220   4.596  0.00  0.00    +0.105 C 
ATOM     13  C   UNL     1      11.855   5.848   4.411  0.00  0.00    +0.182 C 
ATOM     14  C   UNL     1      11.917   8.047   3.451  0.00  0.00    +0.043 C 
ATOM     15  C   UNL     1      11.773   7.040   2.317  0.00  0.00    +0.111 C 
ATOM     17  C   UNL     1      11.281   4.533   2.363  0.00  0.00    +0.264 C 
ENDROOT
BRANCH  12   6
ATOM      3  O   UNL     1      14.410   9.335   5.073  0.00  0.00    -0.253 OA
ATOM      6  N   UNL     1      13.943   7.136   4.489  0.00  0.00    -0.294 N 
ATOM      9  N   UNL     1      16.125   7.856   4.563  0.00  0.00    -0.297 N 
ATOM     20  C   UNL     1      14.790   8.213   4.739  0.00  0.00    +0.300 C 
ATOM     38  H   UNL     1      14.353   6.270   4.153  0.00  0.00    +0.151 HD
ATOM     40  H   UNL     1      16.335   6.926   4.215  0.00  0.00    +0.150 HD
BRANCH   9  25
ATOM     25  C   UNL     1      17.214   8.785   4.757  0.00  0.00    +0.068 C 
ATOM     32  C   UNL     1      18.345   8.487   3.780  0.00  0.00    +0.027 C 
ATOM     33  C   UNL     1      17.703   8.739   6.200  0.00  0.00    +0.027 C 
ENDBRANCH   9  25
ENDBRANCH  12   6
BRANCH  17  19
ATOM      8  N   UNL     1      12.061   4.133   0.017  0.00  0.00    -0.346 N 
ATOM     19  C   UNL     1      11.119   4.561   0.914  0.00  0.00    +0.104 A 
ATOM     23  C   UNL     1      10.028   5.007   0.200  0.00  0.00    +0.032 A 
ATOM     27  C   UNL     1      11.588   4.297  -1.260  0.00  0.00    +0.086 A 
ATOM     28  C   UNL     1      10.326   4.841  -1.175  0.00  0.00    +0.020 A 
ATOM     30  C   UNL     1      13.358   3.586   0.348  0.00  0.00    +0.149 C 
ENDBRANCH  17  19
BRANCH  13  16
ATOM      1  O   UNL     1       9.477   5.652   4.493  0.00  0.00    -0.274 OA
ATOM      7  N   UNL     1      10.657   5.885   6.485  0.00  0.00    -0.302 N 
ATOM     16  C   UNL     1      10.531   5.775   5.111  0.00  0.00    +0.236 C 
ATOM     39  H   UNL     1      11.587   5.883   6.891  0.00  0.00    +0.150 HD
BRANCH   7  18
ATOM     18  C   UNL     1       9.529   5.867   7.387  0.00  0.00    +0.163 C 
BRANCH  18  24
ATOM      4  O   UNL     1       9.641   4.922   9.623  0.00  0.00    -0.274 OA
ATOM     11  N   UNL     1      10.168   3.579   7.835  0.00  0.00    -0.328 N 
ATOM     24  C   UNL     1       9.791   4.774   8.412  0.00  0.00    +0.231 C 
ATOM     42  H   UNL     1      10.265   3.466   6.831  0.00  0.00    +0.145 HD
ATOM     43  H   UNL     1      10.361   2.763   8.406  0.00  0.00    +0.145 HD
ENDBRANCH  18  24
BRANCH  18  21
ATOM     21  C   UNL     1       9.321   7.217   8.085  0.00  0.00    +0.069 C 
BRANCH  21  22
ATOM     10  N   UNL     1      10.940  10.109   6.495  0.00  0.00    -0.360 N 
ATOM     22  C   UNL     1       9.762   8.386   7.251  0.00  0.00    -0.020 A 
ATOM     26  C   UNL     1       9.096   8.913   6.110  0.00  0.00    +0.003 A 
ATOM     29  C   UNL     1      10.893   9.142   7.463  0.00  0.00    +0.087 A 
ATOM     31  C   UNL     1       9.856   9.993   5.655  0.00  0.00    +0.047 A 
ATOM     34  C   UNL     1       7.916   8.575   5.419  0.00  0.00    +0.010 A 
ATOM     35  C   UNL     1       9.493  10.754   4.538  0.00  0.00    +0.026 A 
ATOM     36  C   UNL     1       7.540   9.327   4.300  0.00  0.00    +0.001 A 
ATOM     37  C   UNL     1       8.318  10.399   3.868  0.00  0.00    +0.002 A 
ATOM     41  H   UNL     1      11.666  10.807   6.409  0.00  0.00    +0.165 HD
ENDBRANCH  21  22
ENDBRANCH  18  21
ENDBRANCH   7  18
ENDBRANCH  13  16
TORSDOF 8
ENDMDL
MODEL 7
REMARK VINA RESULT:      -7.0      5.258      9.642
REMARK  Name = 11882109
REMARK  11 active torsions:
REMARK  status: ('A' for Active; 'I' for Inactive)
REMARK    1  A    between atoms: N_6  and  C_12
REMARK    2  A    between atoms: N_7  and  C_18
REMARK    3  A    between atoms: N_8  and  C_30
REMARK    4  A    between atoms: N_9  and  C_25
REMARK    5  A    between atoms: C_13  and  C_16
REMARK    6  A    between atoms: C_17  and  C_19
REMARK    7  A    between atoms: C_18  and  C_21
REMARK    8  A    between atoms: C_18  and  C_24
REMARK    9  A    between atoms: C_21  and  C_22
REMARK   10  A    between atoms: C_25  and  C_32
REMARK   11  A    between atoms: C_25  and  C_33
REMARK                            x       y       z     vdW  Elec       q    Type
REMARK                         _______ _______ _______ _____ _____    ______ ____
ROOT
ATOM      2  O   UNL     1      20.970   4.617  21.387  0.00  0.00    -0.268 OA
ATOM      5  N   UNL     1      21.493   6.495  22.620  0.00  0.00    -0.283 N 
ATOM     12  C   UNL     1      20.303   7.726  24.261  0.00  0.00    +0.105 C 
ATOM     13  C   UNL     1      20.143   6.704  23.134  0.00  0.00    +0.182 C 
ATOM     14  C   UNL     1      21.540   8.524  23.841  0.00  0.00    +0.043 C 
ATOM     15  C   UNL     1      22.424   7.486  23.161  0.00  0.00    +0.111 C 
ATOM     17  C   UNL     1      21.817   5.409  21.802  0.00  0.00    +0.264 C 
ENDROOT
BRANCH  12   6
ATOM      3  O   UNL     1      19.795   8.821  26.882  0.00  0.00    -0.253 OA
ATOM      6  N   UNL     1      20.515   7.074  25.531  0.00  0.00    -0.294 N 
ATOM      9  N   UNL     1      20.534   6.830  27.818  0.00  0.00    -0.297 N 
ATOM     20  C   UNL     1      20.240   7.681  26.755  0.00  0.00    +0.300 C 
ATOM     38  H   UNL     1      20.944   6.154  25.538  0.00  0.00    +0.151 HD
ATOM     40  H   UNL     1      20.967   5.934  27.615  0.00  0.00    +0.150 HD
BRANCH   9  25
ATOM     25  C   UNL     1      20.343   7.209  29.198  0.00  0.00    +0.068 C 
ATOM     32  C   UNL     1      21.689   7.445  29.874  0.00  0.00    +0.027 C 
ATOM     33  C   UNL     1      19.533   6.150  29.935  0.00  0.00    +0.027 C 
ENDBRANCH   9  25
ENDBRANCH  12   6
BRANCH  17  19
ATOM      8  N   UNL     1      24.119   4.463  22.082  0.00  0.00    -0.346 N 
ATOM     19  C   UNL     1      23.220   5.268  21.432  0.00  0.00    +0.104 A 
ATOM     23  C   UNL     1      23.883   5.893  20.399  0.00  0.00    +0.032 A 
ATOM     27  C   UNL     1      25.346   4.565  21.479  0.00  0.00    +0.086 A 
ATOM     28  C   UNL     1      25.228   5.448  20.429  0.00  0.00    +0.020 A 
ATOM     30  C   UNL     1      23.833   3.628  23.228  0.00  0.00    +0.149 C 
ENDBRANCH  17  19
BRANCH  13  16
ATOM      1  O   UNL     1      19.601   8.345  21.486  0.00  0.00    -0.274 OA
ATOM      7  N   UNL     1      18.272   6.442  21.662  0.00  0.00    -0.302 N 
ATOM     16  C   UNL     1      19.331   7.264  22.004  0.00  0.00    +0.236 C 
ATOM     39  H   UNL     1      18.207   5.526  22.093  0.00  0.00    +0.150 HD
BRANCH   7  18
ATOM     18  C   UNL     1      17.326   6.765  20.619  0.00  0.00    +0.163 C 
BRANCH  18  24
ATOM      4  O   UNL     1      16.829   5.626  18.530  0.00  0.00    -0.274 OA
ATOM     11  N   UNL     1      18.894   5.315  19.486  0.00  0.00    -0.328 N 
ATOM     24  C   UNL     1      17.621   5.844  19.444  0.00  0.00    +0.231 C 
ATOM     42  H   UNL     1      19.546   5.522  20.237  0.00  0.00    +0.145 HD
ATOM     43  H   UNL     1      19.225   4.694  18.755  0.00  0.00    +0.145 HD
ENDBRANCH  18  24
BRANCH  18  21
ATOM     21  C   UNL     1      15.873   6.595  21.079  0.00  0.00    +0.069 C 
BRANCH  21  22
ATOM     10  N   UNL     1      14.224   9.499  19.541  0.00  0.00    -0.360 N 
ATOM     22  C   UNL     1      14.957   7.660  20.546  0.00  0.00    -0.020 A 
ATOM     26  C   UNL     1      13.540   7.699  20.667  0.00  0.00    +0.003 A 
ATOM     29  C   UNL     1      15.348   8.780  19.848  0.00  0.00    +0.087 A 
ATOM     31  C   UNL     1      13.105   8.862  20.028  0.00  0.00    +0.047 A 
ATOM     34  C   UNL     1      12.582   6.854  21.262  0.00  0.00    +0.010 A 
ATOM     35  C   UNL     1      11.756   9.224  19.954  0.00  0.00    +0.026 A 
ATOM     36  C   UNL     1      11.228   7.203  21.195  0.00  0.00    +0.001 A 
ATOM     37  C   UNL     1      10.824   8.370  20.550  0.00  0.00    +0.002 A 
ATOM     41  H   UNL     1      14.217  10.371  19.029  0.00  0.00    +0.165 HD
ENDBRANCH  21  22
ENDBRANCH  18  21
ENDBRANCH   7  18
ENDBRANCH  13  16
TORSDOF 8
ENDMDL
MODEL 8
REMARK VINA RESULT:      -6.8     28.643     31.752
REMARK  Name = 11882109
REMARK  11 active torsions:
REMARK  status: ('A' for Active; 'I' for Inactive)
REMARK    1  A    between atoms: N_6  and  C_12
REMARK    2  A    between atoms: N_7  and  C_18
REMARK    3  A    between atoms: N_8  and  C_30
REMARK    4  A    between atoms: N_9  and  C_25
REMARK    5  A    between atoms: C_13  and  C_16
REMARK    6  A    between atoms: C_17  and  C_19
REMARK    7  A    between atoms: C_18  and  C_21
REMARK    8  A    between atoms: C_18  and  C_24
REMARK    9  A    between atoms: C_21  and  C_22
REMARK   10  A    between atoms: C_25  and  C_32
REMARK   11  A    between atoms: C_25  and  C_33
REMARK                            x       y       z     vdW  Elec       q    Type
REMARK                         _______ _______ _______ _____ _____    ______ ____
ROOT
ATOM      2  O   UNL     1      -8.306  -8.518  17.327  0.00  0.00    -0.268 OA
ATOM      5  N   UNL     1      -7.912 -10.130  15.725  0.00  0.00    -0.283 N 
ATOM     12  C   UNL     1      -7.957 -10.087  13.354  0.00  0.00    +0.105 C 
ATOM     13  C   UNL     1      -8.419  -9.341  14.606  0.00  0.00    +0.182 C 
ATOM     14  C   UNL     1      -7.864 -11.541  13.823  0.00  0.00    +0.043 C 
ATOM     15  C   UNL     1      -7.400 -11.423  15.269  0.00  0.00    +0.111 C 
ATOM     17  C   UNL     1      -7.851  -9.622  17.025  0.00  0.00    +0.264 C 
ENDROOT
BRANCH  12   6
ATOM      3  O   UNL     1      -6.535 -10.893  10.975  0.00  0.00    -0.253 OA
ATOM      6  N   UNL     1      -6.672  -9.605  12.903  0.00  0.00    -0.294 N 
ATOM      9  N   UNL     1      -4.830  -9.423  11.540  0.00  0.00    -0.297 N 
ATOM     20  C   UNL     1      -6.057 -10.052  11.736  0.00  0.00    +0.300 C 
ATOM     38  H   UNL     1      -6.163  -8.958  13.497  0.00  0.00    +0.151 HD
ATOM     40  H   UNL     1      -4.486  -8.797  12.261  0.00  0.00    +0.150 HD
BRANCH   9  25
ATOM     25  C   UNL     1      -3.981  -9.702  10.405  0.00  0.00    +0.068 C 
ATOM     32  C   UNL     1      -2.514  -9.593  10.801  0.00  0.00    +0.027 C 
ATOM     33  C   UNL     1      -4.313  -8.766   9.249  0.00  0.00    +0.027 C 
ENDBRANCH   9  25
ENDBRANCH  12   6
BRANCH  17  19
ATOM      8  N   UNL     1      -7.928 -11.341  18.845  0.00  0.00    -0.346 N 
ATOM     19  C   UNL     1      -7.238 -10.481  18.031  0.00  0.00    +0.104 A 
ATOM     23  C   UNL     1      -5.900 -10.587  18.342  0.00  0.00    +0.032 A 
ATOM     27  C   UNL     1      -7.050 -11.995  19.671  0.00  0.00    +0.086 A 
ATOM     28  C   UNL     1      -5.781 -11.545  19.380  0.00  0.00    +0.020 A 
ATOM     30  C   UNL     1      -9.360 -11.541  18.845  0.00  0.00    +0.149 C 
ENDBRANCH  17  19
BRANCH  13  16
ATOM      1  O   UNL     1     -10.591 -10.300  14.347  0.00  0.00    -0.274 OA
ATOM      7  N   UNL     1     -10.403  -8.163  15.251  0.00  0.00    -0.302 N 
ATOM     16  C   UNL     1      -9.915  -9.343  14.718  0.00  0.00    +0.236 C 
ATOM     39  H   UNL     1      -9.744  -7.483  15.615  0.00  0.00    +0.150 HD
BRANCH   7  18
ATOM     18  C   UNL     1     -11.812  -7.905  15.443  0.00  0.00    +0.163 C 
BRANCH  18  24
ATOM      4  O   UNL     1     -11.633  -8.649  17.750  0.00  0.00    -0.274 OA
ATOM     11  N   UNL     1     -13.424  -9.361  16.502  0.00  0.00    -0.328 N 
ATOM     24  C   UNL     1     -12.244  -8.673  16.684  0.00  0.00    +0.231 C 
ATOM     42  H   UNL     1     -13.930  -9.354  15.621  0.00  0.00    +0.145 HD
ATOM     43  H   UNL     1     -13.832  -9.905  17.255  0.00  0.00    +0.145 HD
ENDBRANCH  18  24
BRANCH  18  21
ATOM     21  C   UNL     1     -12.111  -6.410  15.607  0.00  0.00    +0.069 C 
BRANCH  21  22
ATOM     10  N   UNL     1     -15.373  -5.718  14.058  0.00  0.00    -0.360 N 
ATOM     22  C   UNL     1     -13.294  -5.953  14.801  0.00  0.00    -0.020 A 
ATOM     26  C   UNL     1     -13.276  -5.038  13.712  0.00  0.00    +0.003 A 
ATOM     29  C   UNL     1     -14.597  -6.354  14.990  0.00  0.00    +0.087 A 
ATOM     31  C   UNL     1     -14.593  -4.908  13.264  0.00  0.00    +0.047 A 
ATOM     34  C   UNL     1     -12.263  -4.306  13.062  0.00  0.00    +0.010 A 
ATOM     35  C   UNL     1     -14.948  -4.079  12.195  0.00  0.00    +0.026 A 
ATOM     36  C   UNL     1     -12.604  -3.472  11.990  0.00  0.00    +0.001 A 
ATOM     37  C   UNL     1     -13.926  -3.361  11.566  0.00  0.00    +0.002 A 
ATOM     41  H   UNL     1     -16.373  -5.827  13.966  0.00  0.00    +0.165 HD
ENDBRANCH  21  22
ENDBRANCH  18  21
ENDBRANCH   7  18
ENDBRANCH  13  16
TORSDOF 8
ENDMDL
MODEL 9
REMARK VINA RESULT:      -6.7     27.590     30.996
REMARK  Name = 11882109
REMARK  11 active torsions:
REMARK  status: ('A' for Active; 'I' for Inactive)
REMARK    1  A    between atoms: N_6  and  C_12
REMARK    2  A    between atoms: N_7  and  C_18
REMARK    3  A    between atoms: N_8  and  C_30
REMARK    4  A    between atoms: N_9  and  C_25
REMARK    5  A    between atoms: C_13  and  C_16
REMARK    6  A    between atoms: C_17  and  C_19
REMARK    7  A    between atoms: C_18  and  C_21
REMARK    8  A    between atoms: C_18  and  C_24
REMARK    9  A    between atoms: C_21  and  C_22
REMARK   10  A    between atoms: C_25  and  C_32
REMARK   11  A    between atoms: C_25  and  C_33
REMARK                            x       y       z     vdW  Elec       q    Type
REMARK                         _______ _______ _______ _____ _____    ______ ____
ROOT
ATOM      2  O   UNL     1      -5.693 -13.490  13.187  0.00  0.00    -0.268 OA
ATOM      5  N   UNL     1      -4.937 -12.235  14.969  0.00  0.00    -0.283 N 
ATOM     12  C   UNL     1      -5.777 -10.293  16.041  0.00  0.00    +0.105 C 
ATOM     13  C   UNL     1      -5.864 -11.127  14.762  0.00  0.00    +0.182 C 
ATOM     14  C   UNL     1      -4.355 -10.562  16.541  0.00  0.00    +0.043 C 
ATOM     15  C   UNL     1      -4.106 -12.014  16.153  0.00  0.00    +0.111 C 
ATOM     17  C   UNL     1      -4.959 -13.382  14.170  0.00  0.00    +0.264 C 
ENDROOT
BRANCH  12   6
ATOM      3  O   UNL     1      -8.308  -9.037  16.624  0.00  0.00    -0.253 OA
ATOM      6  N   UNL     1      -6.757 -10.721  17.011  0.00  0.00    -0.294 N 
ATOM      9  N   UNL     1      -8.715 -10.676  18.216  0.00  0.00    -0.297 N 
ATOM     20  C   UNL     1      -7.958 -10.050  17.227  0.00  0.00    +0.300 C 
ATOM     38  H   UNL     1      -6.533 -11.510  17.610  0.00  0.00    +0.151 HD
ATOM     40  H   UNL     1      -8.309 -11.466  18.708  0.00  0.00    +0.150 HD
BRANCH   9  25
ATOM     25  C   UNL     1     -10.006 -10.187  18.638  0.00  0.00    +0.068 C 
ATOM     32  C   UNL     1     -10.264 -10.560  20.093  0.00  0.00    +0.027 C 
ATOM     33  C   UNL     1     -11.104 -10.725  17.728  0.00  0.00    +0.027 C 
ENDBRANCH   9  25
ENDBRANCH  12   6
BRANCH  17  19
ATOM      8  N   UNL     1      -2.776 -14.603  14.038  0.00  0.00    -0.346 N 
ATOM     19  C   UNL     1      -4.041 -14.452  14.542  0.00  0.00    +0.104 A 
ATOM     23  C   UNL     1      -4.264 -15.475  15.437  0.00  0.00    +0.032 A 
ATOM     27  C   UNL     1      -2.187 -15.707  14.598  0.00  0.00    +0.086 A 
ATOM     28  C   UNL     1      -3.091 -16.269  15.472  0.00  0.00    +0.020 A 
ATOM     30  C   UNL     1      -2.144 -13.739  13.066  0.00  0.00    +0.149 C 
ENDBRANCH  17  19
BRANCH  13  16
ATOM      1  O   UNL     1      -6.032  -9.479  13.041  0.00  0.00    -0.274 OA
ATOM      7  N   UNL     1      -4.102 -10.774  13.177  0.00  0.00    -0.302 N 
ATOM     16  C   UNL     1      -5.360 -10.357  13.577  0.00  0.00    +0.236 C 
ATOM     39  H   UNL     1      -3.602 -11.439  13.757  0.00  0.00    +0.150 HD
BRANCH   7  18
ATOM     18  C   UNL     1      -3.404 -10.207  12.046  0.00  0.00    +0.163 C 
BRANCH  18  24
ATOM      4  O   UNL     1      -1.047  -9.748  11.671  0.00  0.00    -0.274 OA
ATOM     11  N   UNL     1      -1.748 -10.220  13.807  0.00  0.00    -0.328 N 
ATOM     24  C   UNL     1      -1.947 -10.046  12.454  0.00  0.00    +0.231 C 
ATOM     42  H   UNL     1      -2.505 -10.444  14.445  0.00  0.00    +0.145 HD
ATOM     43  H   UNL     1      -0.823 -10.128  14.214  0.00  0.00    +0.145 HD
ENDBRANCH  18  24
BRANCH  18  21
ATOM     21  C   UNL     1      -3.516 -11.086  10.795  0.00  0.00    +0.069 C 
BRANCH  21  22
ATOM     10  N   UNL     1      -5.076  -8.801   8.374  0.00  0.00    -0.360 N 
ATOM     22  C   UNL     1      -4.173 -10.386   9.639  0.00  0.00    -0.020 A 
ATOM     26  C   UNL     1      -4.578 -10.976   8.409  0.00  0.00    +0.003 A 
ATOM     29  C   UNL     1      -4.492  -9.049   9.587  0.00  0.00    +0.087 A 
ATOM     31  C   UNL     1      -5.141  -9.961   7.634  0.00  0.00    +0.047 A 
ATOM     34  C   UNL     1      -4.520 -12.281   7.880  0.00  0.00    +0.010 A 
ATOM     35  C   UNL     1      -5.651 -10.186   6.350  0.00  0.00    +0.026 A 
ATOM     36  C   UNL     1      -5.026 -12.520   6.597  0.00  0.00    +0.001 A 
ATOM     37  C   UNL     1      -5.582 -11.488   5.846  0.00  0.00    +0.002 A 
ATOM     41  H   UNL     1      -5.411  -7.899   8.065  0.00  0.00    +0.165 HD
ENDBRANCH  21  22
ENDBRANCH  18  21
ENDBRANCH   7  18
ENDBRANCH  13  16
TORSDOF 8
ENDMDL
MODEL 10
REMARK VINA RESULT:      -6.7     12.028     16.231
REMARK  Name = 11882109
REMARK  11 active torsions:
REMARK  status: ('A' for Active; 'I' for Inactive)
REMARK    1  A    between atoms: N_6  and  C_12
REMARK    2  A    between atoms: N_7  and  C_18
REMARK    3  A    between atoms: N_8  and  C_30
REMARK    4  A    between atoms: N_9  and  C_25
REMARK    5  A    between atoms: C_13  and  C_16
REMARK    6  A    between atoms: C_17  and  C_19
REMARK    7  A    between atoms: C_18  and  C_21
REMARK    8  A    between atoms: C_18  and  C_24
REMARK    9  A    between atoms: C_21  and  C_22
REMARK   10  A    between atoms: C_25  and  C_32
REMARK   11  A    between atoms: C_25  and  C_33
REMARK                            x       y       z     vdW  Elec       q    Type
REMARK                         _______ _______ _______ _____ _____    ______ ____
ROOT
ATOM      2  O   UNL     1      14.861   6.996   5.426  0.00  0.00    -0.268 OA
ATOM      5  N   UNL     1      14.472   9.266   5.563  0.00  0.00    -0.283 N 
ATOM     12  C   UNL     1      12.649  10.540   6.386  0.00  0.00    +0.105 C 
ATOM     13  C   UNL     1      13.060   9.144   5.915  0.00  0.00    +0.182 C 
ATOM     14  C   UNL     1      13.595  11.466   5.618  0.00  0.00    +0.043 C 
ATOM     15  C   UNL     1      14.891  10.668   5.536  0.00  0.00    +0.111 C 
ATOM     17  C   UNL     1      15.293   8.149   5.388  0.00  0.00    +0.264 C 
ENDROOT
BRANCH  12   6
ATOM      3  O   UNL     1      11.393  12.487   8.106  0.00  0.00    -0.253 OA
ATOM      6  N   UNL     1      12.827  10.684   7.811  0.00  0.00    -0.294 N 
ATOM      9  N   UNL     1      12.529  11.571   9.912  0.00  0.00    -0.297 N 
ATOM     20  C   UNL     1      12.177  11.657   8.566  0.00  0.00    +0.300 C 
ATOM     38  H   UNL     1      13.507  10.090   8.276  0.00  0.00    +0.151 HD
ATOM     40  H   UNL     1      13.240  10.899  10.183  0.00  0.00    +0.150 HD
BRANCH   9  25
ATOM     25  C   UNL     1      11.999  12.463  10.917  0.00  0.00    +0.068 C 
ATOM     32  C   UNL     1      13.002  12.638  12.050  0.00  0.00    +0.027 C 
ATOM     33  C   UNL     1      10.663  11.947  11.436  0.00  0.00    +0.027 C 
ENDBRANCH   9  25
ENDBRANCH  12   6
BRANCH  17  19
ATOM      8  N   UNL     1      17.269   8.466   3.881  0.00  0.00    -0.346 N 
ATOM     19  C   UNL     1      16.704   8.412   5.128  0.00  0.00    +0.104 A 
ATOM     23  C   UNL     1      17.698   8.648   6.053  0.00  0.00    +0.032 A 
ATOM     27  C   UNL     1      18.609   8.733   3.996  0.00  0.00    +0.086 A 
ATOM     28  C   UNL     1      18.903   8.851   5.336  0.00  0.00    +0.020 A 
ATOM     30  C   UNL     1      16.573   8.275   2.628  0.00  0.00    +0.149 C 
ENDBRANCH  17  19
BRANCH  13  16
ATOM      1  O   UNL     1      12.304   9.493   3.676  0.00  0.00    -0.274 OA
ATOM      7  N   UNL     1      11.711   7.527   4.773  0.00  0.00    -0.302 N 
ATOM     16  C   UNL     1      12.333   8.758   4.661  0.00  0.00    +0.236 C 
ATOM     39  H   UNL     1      11.888   6.965   5.599  0.00  0.00    +0.150 HD
BRANCH   7  18
ATOM     18  C   UNL     1      10.927   6.938   3.713  0.00  0.00    +0.163 C 
BRANCH  18  24
ATOM      4  O   UNL     1      12.739   5.856   2.507  0.00  0.00    -0.274 OA
ATOM     11  N   UNL     1      11.187   4.539   3.569  0.00  0.00    -0.328 N 
ATOM     24  C   UNL     1      11.715   5.751   3.178  0.00  0.00    +0.231 C 
ATOM     42  H   UNL     1      10.353   4.467   4.144  0.00  0.00    +0.145 HD
ATOM     43  H   UNL     1      11.624   3.665   3.292  0.00  0.00    +0.145 HD
ENDBRANCH  18  24
BRANCH  18  21
ATOM     21  C   UNL     1       9.542   6.487   4.195  0.00  0.00    +0.069 C 
BRANCH  21  22
ATOM     10  N   UNL     1       8.723   7.999   7.445  0.00  0.00    -0.360 N 
ATOM     22  C   UNL     1       9.272   6.845   5.629  0.00  0.00    -0.020 A 
ATOM     26  C   UNL     1       9.400   5.987   6.756  0.00  0.00    +0.003 A 
ATOM     29  C   UNL     1       8.854   8.075   6.084  0.00  0.00    +0.087 A 
ATOM     31  C   UNL     1       9.050   6.735   7.883  0.00  0.00    +0.047 A 
ATOM     34  C   UNL     1       9.782   4.642   6.927  0.00  0.00    +0.010 A 
ATOM     35  C   UNL     1       9.062   6.202   9.176  0.00  0.00    +0.026 A 
ATOM     36  C   UNL     1       9.799   4.096   8.216  0.00  0.00    +0.001 A 
ATOM     37  C   UNL     1       9.444   4.865   9.321  0.00  0.00    +0.002 A 
ATOM     41  H   UNL     1       8.429   8.759   8.041  0.00  0.00    +0.165 HD
ENDBRANCH  21  22
ENDBRANCH  18  21
ENDBRANCH   7  18
ENDBRANCH  13  16
TORSDOF 8
ENDMDL
