MODEL 1
REMARK VINA RESULT:      -7.1      0.000      0.000
REMARK  Name = 75536117
REMARK  7 active torsions:
REMARK  status: ('A' for Active; 'I' for Inactive)
REMARK    1  A    between atoms: O_1  and  C_9
REMARK    2  A    between atoms: O_2  and  C_11
REMARK    3  A    between atoms: N_3  and  C_7
REMARK    4  A    between atoms: N_3  and  C_13
REMARK    5  A    between atoms: N_5  and  C_21
REMARK    6  A    between atoms: C_8  and  C_12
REMARK    7  A    between atoms: C_13  and  C_16
REMARK                            x       y       z     vdW  Elec       q    Type
REMARK                         _______ _______ _______ _____ _____    ______ ____
ROOT
ATOM      7  C   UNL     1      12.800   7.042  19.924  0.00  0.00    +0.093 C 
ATOM      8  C   UNL     1      12.867   8.558  19.633  0.00  0.00    +0.042 C 
ATOM      9  C   UNL     1      12.351   6.987  21.384  0.00  0.00    +0.160 C 
ATOM     10  C   UNL     1      11.870   9.216  20.625  0.00  0.00    +0.043 C 
ATOM     11  C   UNL     1      11.274   8.067  21.443  0.00  0.00    +0.145 C 
ENDROOT
BRANCH   8  12
ATOM      4  N   UNL     1      11.181   8.723  16.239  0.00  0.00    -0.263 NA
ATOM     12  C   UNL     1      12.611   8.899  18.181  0.00  0.00    -0.025 A 
ATOM     14  C   UNL     1      13.515   9.666  17.454  0.00  0.00    +0.007 A 
ATOM     15  C   UNL     1      11.469   8.456  17.532  0.00  0.00    +0.114 A 
ATOM     17  C   UNL     1      13.253   9.963  16.121  0.00  0.00    +0.020 A 
ATOM     19  C   UNL     1      12.083   9.472  15.565  0.00  0.00    +0.111 A 
ENDBRANCH   8  12
BRANCH   9   1
ATOM      1  O   UNL     1      11.843   5.712  21.726  0.00  0.00    -0.388 OA
ATOM     23  H   UNL     1      11.957   5.601  22.686  0.00  0.00    +0.210 HD
ENDBRANCH   9   1
BRANCH  11   2
ATOM      2  O   UNL     1      10.080   7.606  20.816  0.00  0.00    -0.389 OA
ATOM     24  H   UNL     1      10.231   6.683  20.547  0.00  0.00    +0.210 HD
ENDBRANCH  11   2
BRANCH   7   3
ATOM      3  N   UNL     1      14.090   6.388  19.730  0.00  0.00    -0.306 NA
ATOM     22  H   UNL     1      13.967   5.378  19.807  0.00  0.00    +0.123 HD
BRANCH   3  13
ATOM     13  C   UNL     1      15.048   6.821  20.738  0.00  0.00    +0.119 C 
BRANCH  13  16
ATOM      5  N   UNL     1      18.621   6.143  20.352  0.00  0.00    -0.274 N 
ATOM      6  N   UNL     1      18.238   5.716  19.136  0.00  0.00    -0.180 NA
ATOM     16  C   UNL     1      16.460   6.463  20.360  0.00  0.00    +0.004 A 
ATOM     18  C   UNL     1      17.593   6.600  21.123  0.00  0.00    +0.112 A 
ATOM     20  C   UNL     1      16.918   5.913  19.147  0.00  0.00    +0.139 A 
ATOM     21  C   UNL     1      20.013   6.089  20.726  0.00  0.00    +0.172 C 
ENDBRANCH  13  16
ENDBRANCH   3  13
ENDBRANCH   7   3
TORSDOF 6
ENDMDL
MODEL 2
REMARK VINA RESULT:      -6.5      3.436      6.612
REMARK  Name = 75536117
REMARK  7 active torsions:
REMARK  status: ('A' for Active; 'I' for Inactive)
REMARK    1  A    between atoms: O_1  and  C_9
REMARK    2  A    between atoms: O_2  and  C_11
REMARK    3  A    between atoms: N_3  and  C_7
REMARK    4  A    between atoms: N_3  and  C_13
REMARK    5  A    between atoms: N_5  and  C_21
REMARK    6  A    between atoms: C_8  and  C_12
REMARK    7  A    between atoms: C_13  and  C_16
REMARK                            x       y       z     vdW  Elec       q    Type
REMARK                         _______ _______ _______ _____ _____    ______ ____
ROOT
ATOM      7  C   UNL     1      12.842   8.582  20.053  0.00  0.00    +0.093 C 
ATOM      8  C   UNL     1      14.074   8.947  19.194  0.00  0.00    +0.042 C 
ATOM      9  C   UNL     1      11.667   8.911  19.132  0.00  0.00    +0.160 C 
ATOM     10  C   UNL     1      13.607   8.811  17.719  0.00  0.00    +0.043 C 
ATOM     11  C   UNL     1      12.140   8.380  17.783  0.00  0.00    +0.145 C 
ENDROOT
BRANCH   8  12
ATOM      4  N   UNL     1      17.383   7.932  20.747  0.00  0.00    -0.263 NA
ATOM     12  C   UNL     1      15.301   8.128  19.533  0.00  0.00    -0.025 A 
ATOM     14  C   UNL     1      15.497   6.867  18.980  0.00  0.00    +0.007 A 
ATOM     15  C   UNL     1      16.265   8.611  20.404  0.00  0.00    +0.114 A 
ATOM     17  C   UNL     1      16.634   6.138  19.309  0.00  0.00    +0.020 A 
ATOM     19  C   UNL     1      17.539   6.710  20.190  0.00  0.00    +0.111 A 
ENDBRANCH   8  12
BRANCH   9   1
ATOM      1  O   UNL     1      10.475   8.282  19.562  0.00  0.00    -0.388 OA
ATOM     23  H   UNL     1      10.595   7.323  19.448  0.00  0.00    +0.210 HD
ENDBRANCH   9   1
BRANCH  11   2
ATOM      2  O   UNL     1      12.061   6.957  17.758  0.00  0.00    -0.389 OA
ATOM     24  H   UNL     1      11.966   6.656  18.679  0.00  0.00    +0.210 HD
ENDBRANCH  11   2
BRANCH   7   3
ATOM      3  N   UNL     1      12.790   9.349  21.293  0.00  0.00    -0.306 NA
ATOM     22  H   UNL     1      12.102   8.927  21.917  0.00  0.00    +0.123 HD
BRANCH   3  13
ATOM     13  C   UNL     1      12.401  10.728  21.033  0.00  0.00    +0.119 C 
BRANCH  13  16
ATOM      5  N   UNL     1      10.647  12.690  23.573  0.00  0.00    -0.274 N 
ATOM      6  N   UNL     1      10.521  11.493  24.171  0.00  0.00    -0.180 NA
ATOM     16  C   UNL     1      11.651  11.326  22.193  0.00  0.00    +0.004 A 
ATOM     18  C   UNL     1      11.316  12.645  22.385  0.00  0.00    +0.112 A 
ATOM     20  C   UNL     1      11.136  10.665  23.324  0.00  0.00    +0.139 A 
ATOM     21  C   UNL     1      10.096  13.867  24.200  0.00  0.00    +0.172 C 
ENDBRANCH  13  16
ENDBRANCH   3  13
ENDBRANCH   7   3
TORSDOF 6
ENDMDL
MODEL 3
REMARK VINA RESULT:      -6.1      3.942      6.070
REMARK  Name = 75536117
REMARK  7 active torsions:
REMARK  status: ('A' for Active; 'I' for Inactive)
REMARK    1  A    between atoms: O_1  and  C_9
REMARK    2  A    between atoms: O_2  and  C_11
REMARK    3  A    between atoms: N_3  and  C_7
REMARK    4  A    between atoms: N_3  and  C_13
REMARK    5  A    between atoms: N_5  and  C_21
REMARK    6  A    between atoms: C_8  and  C_12
REMARK    7  A    between atoms: C_13  and  C_16
REMARK                            x       y       z     vdW  Elec       q    Type
REMARK                         _______ _______ _______ _____ _____    ______ ____
ROOT
ATOM      7  C   UNL     1      13.577  10.319  17.869  0.00  0.00    +0.093 C 
ATOM      8  C   UNL     1      13.848   8.888  18.387  0.00  0.00    +0.042 C 
ATOM      9  C   UNL     1      14.139  10.286  16.448  0.00  0.00    +0.160 C 
ATOM     10  C   UNL     1      13.904   7.991  17.120  0.00  0.00    +0.043 C 
ATOM     11  C   UNL     1      13.668   8.929  15.933  0.00  0.00    +0.145 C 
ENDROOT
BRANCH   8  12
ATOM      4  N   UNL     1      10.542   8.224  20.123  0.00  0.00    -0.263 NA
ATOM     12  C   UNL     1      12.847   8.430  19.426  0.00  0.00    -0.025 A 
ATOM     14  C   UNL     1      13.265   7.816  20.602  0.00  0.00    +0.007 A 
ATOM     15  C   UNL     1      11.486   8.608  19.236  0.00  0.00    +0.114 A 
ATOM     17  C   UNL     1      12.323   7.407  21.539  0.00  0.00    +0.020 A 
ATOM     19  C   UNL     1      10.985   7.632  21.255  0.00  0.00    +0.111 A 
ENDBRANCH   8  12
BRANCH   9   1
ATOM      1  O   UNL     1      13.639  11.354  15.665  0.00  0.00    -0.388 OA
ATOM     23  H   UNL     1      13.767  11.114  14.731  0.00  0.00    +0.210 HD
ENDBRANCH   9   1
BRANCH  11   2
ATOM      2  O   UNL     1      12.276   8.973  15.631  0.00  0.00    -0.389 OA
ATOM     24  H   UNL     1      11.972   8.054  15.527  0.00  0.00    +0.210 HD
ENDBRANCH  11   2
BRANCH   7   3
ATOM      3  N   UNL     1      14.234  11.332  18.687  0.00  0.00    -0.306 NA
ATOM     22  H   UNL     1      14.817  10.870  19.386  0.00  0.00    +0.123 HD
BRANCH   3  13
ATOM     13  C   UNL     1      13.253  12.162  19.373  0.00  0.00    +0.119 C 
BRANCH  13  16
ATOM      5  N   UNL     1      11.977  11.007  22.600  0.00  0.00    -0.274 N 
ATOM      6  N   UNL     1      13.284  10.841  22.868  0.00  0.00    -0.180 NA
ATOM     16  C   UNL     1      12.959  11.653  20.758  0.00  0.00    +0.004 A 
ATOM     18  C   UNL     1      11.729  11.491  21.349  0.00  0.00    +0.112 A 
ATOM     20  C   UNL     1      13.878  11.237  21.740  0.00  0.00    +0.139 A 
ATOM     21  C   UNL     1      10.992  10.679  23.602  0.00  0.00    +0.172 C 
ENDBRANCH  13  16
ENDBRANCH   3  13
ENDBRANCH   7   3
TORSDOF 6
ENDMDL
MODEL 4
REMARK VINA RESULT:      -5.8     30.890     32.507
REMARK  Name = 75536117
REMARK  7 active torsions:
REMARK  status: ('A' for Active; 'I' for Inactive)
REMARK    1  A    between atoms: O_1  and  C_9
REMARK    2  A    between atoms: O_2  and  C_11
REMARK    3  A    between atoms: N_3  and  C_7
REMARK    4  A    between atoms: N_3  and  C_13
REMARK    5  A    between atoms: N_5  and  C_21
REMARK    6  A    between atoms: C_8  and  C_12
REMARK    7  A    between atoms: C_13  and  C_16
REMARK                            x       y       z     vdW  Elec       q    Type
REMARK                         _______ _______ _______ _____ _____    ______ ____
ROOT
ATOM      7  C   UNL     1     -15.166   2.123  29.454  0.00  0.00    +0.093 C 
ATOM      8  C   UNL     1     -13.941   1.995  30.388  0.00  0.00    +0.042 C 
ATOM      9  C   UNL     1     -15.112   0.835  28.632  0.00  0.00    +0.160 C 
ATOM     10  C   UNL     1     -13.684   0.470  30.529  0.00  0.00    +0.043 C 
ATOM     11  C   UNL     1     -14.757  -0.215  29.680  0.00  0.00    +0.145 C 
ENDROOT
BRANCH   8  12
ATOM      4  N   UNL     1     -15.095   2.773  33.917  0.00  0.00    -0.263 NA
ATOM     12  C   UNL     1     -14.118   2.718  31.706  0.00  0.00    -0.025 A 
ATOM     14  C   UNL     1     -13.506   3.945  31.939  0.00  0.00    +0.007 A 
ATOM     15  C   UNL     1     -14.896   2.179  32.719  0.00  0.00    +0.114 A 
ATOM     17  C   UNL     1     -13.687   4.586  33.159  0.00  0.00    +0.020 A 
ATOM     19  C   UNL     1     -14.484   3.964  34.107  0.00  0.00    +0.111 A 
ENDBRANCH   8  12
BRANCH   9   1
ATOM      1  O   UNL     1     -16.351   0.564  28.006  0.00  0.00    -0.388 OA
ATOM     23  H   UNL     1     -16.680   1.401  27.635  0.00  0.00    +0.210 HD
ENDBRANCH   9   1
BRANCH  11   2
ATOM      2  O   UNL     1     -15.892  -0.506  30.490  0.00  0.00    -0.389 OA
ATOM     24  H   UNL     1     -16.684  -0.370  29.940  0.00  0.00    +0.210 HD
ENDBRANCH  11   2
BRANCH   7   3
ATOM      3  N   UNL     1     -15.090   3.309  28.608  0.00  0.00    -0.306 NA
ATOM     22  H   UNL     1     -14.364   3.929  28.968  0.00  0.00    +0.123 HD
BRANCH   3  13
ATOM     13  C   UNL     1     -16.357   4.026  28.605  0.00  0.00    +0.119 C 
BRANCH  13  16
ATOM      5  N   UNL     1     -17.507   4.896  31.966  0.00  0.00    -0.274 N 
ATOM      6  N   UNL     1     -16.719   5.968  31.776  0.00  0.00    -0.180 NA
ATOM     16  C   UNL     1     -16.691   4.579  29.964  0.00  0.00    +0.004 A 
ATOM     18  C   UNL     1     -17.525   4.033  30.910  0.00  0.00    +0.112 A 
ATOM     20  C   UNL     1     -16.224   5.769  30.553  0.00  0.00    +0.139 A 
ATOM     21  C   UNL     1     -18.233   4.749  33.204  0.00  0.00    +0.172 C 
ENDBRANCH  13  16
ENDBRANCH   3  13
ENDBRANCH   7   3
TORSDOF 6
ENDMDL
MODEL 5
REMARK VINA RESULT:      -5.7     25.742     27.813
REMARK  Name = 75536117
REMARK  7 active torsions:
REMARK  status: ('A' for Active; 'I' for Inactive)
REMARK    1  A    between atoms: O_1  and  C_9
REMARK    2  A    between atoms: O_2  and  C_11
REMARK    3  A    between atoms: N_3  and  C_7
REMARK    4  A    between atoms: N_3  and  C_13
REMARK    5  A    between atoms: N_5  and  C_21
REMARK    6  A    between atoms: C_8  and  C_12
REMARK    7  A    between atoms: C_13  and  C_16
REMARK                            x       y       z     vdW  Elec       q    Type
REMARK                         _______ _______ _______ _____ _____    ______ ____
ROOT
ATOM      7  C   UNL     1      -5.980 -10.156  17.432  0.00  0.00    +0.093 C 
ATOM      8  C   UNL     1      -5.470 -11.306  16.533  0.00  0.00    +0.042 C 
ATOM      9  C   UNL     1      -6.790 -10.886  18.504  0.00  0.00    +0.160 C 
ATOM     10  C   UNL     1      -5.427 -12.560  17.448  0.00  0.00    +0.043 C 
ATOM     11  C   UNL     1      -5.910 -12.092  18.822  0.00  0.00    +0.145 C 
ENDROOT
BRANCH   8  12
ATOM      4  N   UNL     1      -2.954 -10.483  13.816  0.00  0.00    -0.263 NA
ATOM     12  C   UNL     1      -4.156 -10.991  15.851  0.00  0.00    -0.025 A 
ATOM     14  C   UNL     1      -2.971 -10.918  16.577  0.00  0.00    +0.007 A 
ATOM     15  C   UNL     1      -4.094 -10.767  14.485  0.00  0.00    +0.114 A 
ATOM     17  C   UNL     1      -1.779 -10.627  15.923  0.00  0.00    +0.020 A 
ATOM     19  C   UNL     1      -1.823 -10.420  14.554  0.00  0.00    +0.111 A 
ENDBRANCH   8  12
BRANCH   9   1
ATOM      1  O   UNL     1      -7.005 -10.071  19.640  0.00  0.00    -0.388 OA
ATOM     23  H   UNL     1      -7.821 -10.381  20.070  0.00  0.00    +0.210 HD
ENDBRANCH   9   1
BRANCH  11   2
ATOM      2  O   UNL     1      -4.792 -11.692  19.609  0.00  0.00    -0.389 OA
ATOM     24  H   UNL     1      -4.606 -10.761  19.398  0.00  0.00    +0.210 HD
ENDBRANCH  11   2
BRANCH   7   3
ATOM      3  N   UNL     1      -6.800  -9.203  16.692  0.00  0.00    -0.306 NA
ATOM     22  H   UNL     1      -6.998  -8.399  17.288  0.00  0.00    +0.123 HD
BRANCH   3  13
ATOM     13  C   UNL     1      -8.061  -9.807  16.288  0.00  0.00    +0.119 C 
BRANCH  13  16
ATOM      5  N   UNL     1     -10.804  -7.467  15.667  0.00  0.00    -0.274 N 
ATOM      6  N   UNL     1     -10.716  -7.274  16.995  0.00  0.00    -0.180 NA
ATOM     16  C   UNL     1      -9.183  -8.803  16.269  0.00  0.00    +0.004 A 
ATOM     18  C   UNL     1      -9.907  -8.374  15.183  0.00  0.00    +0.112 A 
ATOM     20  C   UNL     1      -9.725  -8.092  17.356  0.00  0.00    +0.139 A 
ATOM     21  C   UNL     1     -11.785  -6.741  14.899  0.00  0.00    +0.172 C 
ENDBRANCH  13  16
ENDBRANCH   3  13
ENDBRANCH   7   3
TORSDOF 6
ENDMDL
MODEL 6
REMARK VINA RESULT:      -5.7      3.885      5.128
REMARK  Name = 75536117
REMARK  7 active torsions:
REMARK  status: ('A' for Active; 'I' for Inactive)
REMARK    1  A    between atoms: O_1  and  C_9
REMARK    2  A    between atoms: O_2  and  C_11
REMARK    3  A    between atoms: N_3  and  C_7
REMARK    4  A    between atoms: N_3  and  C_13
REMARK    5  A    between atoms: N_5  and  C_21
REMARK    6  A    between atoms: C_8  and  C_12
REMARK    7  A    between atoms: C_13  and  C_16
REMARK                            x       y       z     vdW  Elec       q    Type
REMARK                         _______ _______ _______ _____ _____    ______ ____
ROOT
ATOM      7  C   UNL     1      13.038  11.504  23.513  0.00  0.00    +0.093 C 
ATOM      8  C   UNL     1      11.751  11.518  22.657  0.00  0.00    +0.042 C 
ATOM      9  C   UNL     1      12.726  12.503  24.627  0.00  0.00    +0.160 C 
ATOM     10  C   UNL     1      10.614  11.947  23.624  0.00  0.00    +0.043 C 
ATOM     11  C   UNL     1      11.281  12.164  24.984  0.00  0.00    +0.145 C 
ENDROOT
BRANCH   8  12
ATOM      4  N   UNL     1      10.710   7.923  22.037  0.00  0.00    -0.263 NA
ATOM     12  C   UNL     1      11.495  10.208  21.943  0.00  0.00    -0.025 A 
ATOM     14  C   UNL     1      11.790  10.058  20.592  0.00  0.00    +0.007 A 
ATOM     15  C   UNL     1      10.961   9.119  22.614  0.00  0.00    +0.114 A 
ATOM     17  C   UNL     1      11.544   8.843  19.963  0.00  0.00    +0.020 A 
ATOM     19  C   UNL     1      11.008   7.815  20.723  0.00  0.00    +0.111 A 
ENDBRANCH   8  12
BRANCH   9   1
ATOM      1  O   UNL     1      13.597  12.343  25.730  0.00  0.00    -0.388 OA
ATOM     23  H   UNL     1      14.143  11.557  25.558  0.00  0.00    +0.210 HD
ENDBRANCH   9   1
BRANCH  11   2
ATOM      2  O   UNL     1      11.231  10.955  25.737  0.00  0.00    -0.389 OA
ATOM     24  H   UNL     1      11.769  11.088  26.537  0.00  0.00    +0.210 HD
ENDBRANCH  11   2
BRANCH   7   3
ATOM      3  N   UNL     1      14.213  11.900  22.744  0.00  0.00    -0.306 NA
ATOM     22  H   UNL     1      13.964  11.950  21.756  0.00  0.00    +0.123 HD
BRANCH   3  13
ATOM     13  C   UNL     1      15.289  10.933  22.906  0.00  0.00    +0.119 C 
BRANCH  13  16
ATOM      5  N   UNL     1      14.997   7.966  20.788  0.00  0.00    -0.274 N 
ATOM      6  N   UNL     1      15.391   8.819  19.827  0.00  0.00    -0.180 NA
ATOM     16  C   UNL     1      15.238   9.857  21.855  0.00  0.00    +0.004 A 
ATOM     18  C   UNL     1      14.890   8.538  22.022  0.00  0.00    +0.112 A 
ATOM     20  C   UNL     1      15.536   9.972  20.485  0.00  0.00    +0.139 A 
ATOM     21  C   UNL     1      14.733   6.586  20.459  0.00  0.00    +0.172 C 
ENDBRANCH  13  16
ENDBRANCH   3  13
ENDBRANCH   7   3
TORSDOF 6
ENDMDL
MODEL 7
REMARK VINA RESULT:      -5.6     13.235     16.600
REMARK  Name = 75536117
REMARK  7 active torsions:
REMARK  status: ('A' for Active; 'I' for Inactive)
REMARK    1  A    between atoms: O_1  and  C_9
REMARK    2  A    between atoms: O_2  and  C_11
REMARK    3  A    between atoms: N_3  and  C_7
REMARK    4  A    between atoms: N_3  and  C_13
REMARK    5  A    between atoms: N_5  and  C_21
REMARK    6  A    between atoms: C_8  and  C_12
REMARK    7  A    between atoms: C_13  and  C_16
REMARK                            x       y       z     vdW  Elec       q    Type
REMARK                         _______ _______ _______ _____ _____    ______ ____
ROOT
ATOM      7  C   UNL     1      10.607   6.552   4.548  0.00  0.00    +0.093 C 
ATOM      8  C   UNL     1       9.302   5.972   5.140  0.00  0.00    +0.042 C 
ATOM      9  C   UNL     1      10.111   7.404   3.380  0.00  0.00    +0.160 C 
ATOM     10  C   UNL     1       8.187   6.984   4.757  0.00  0.00    +0.043 C 
ATOM     11  C   UNL     1       8.884   8.095   3.967  0.00  0.00    +0.145 C 
ENDROOT
BRANCH   8  12
ATOM      4  N   UNL     1       9.993   4.157   8.398  0.00  0.00    -0.263 NA
ATOM     12  C   UNL     1       9.395   5.686   6.623  0.00  0.00    -0.025 A 
ATOM     14  C   UNL     1       8.990   6.629   7.562  0.00  0.00    +0.007 A 
ATOM     15  C   UNL     1       9.885   4.476   7.089  0.00  0.00    +0.114 A 
ATOM     17  C   UNL     1       9.086   6.337   8.918  0.00  0.00    +0.020 A 
ATOM     19  C   UNL     1       9.590   5.098   9.281  0.00  0.00    +0.111 A 
ENDBRANCH   8  12
BRANCH   9   1
ATOM      1  O   UNL     1      11.092   8.332   2.958  0.00  0.00    -0.388 OA
ATOM     23  H   UNL     1      11.872   7.823   2.676  0.00  0.00    +0.210 HD
ENDBRANCH   9   1
BRANCH  11   2
ATOM      2  O   UNL     1       9.282   9.134   4.857  0.00  0.00    -0.389 OA
ATOM     24  H   UNL     1       9.522   9.905   4.314  0.00  0.00    +0.210 HD
ENDBRANCH  11   2
BRANCH   7   3
ATOM      3  N   UNL     1      11.522   5.506   4.106  0.00  0.00    -0.306 NA
ATOM     22  H   UNL     1      12.181   5.901   3.434  0.00  0.00    +0.123 HD
BRANCH   3  13
ATOM     13  C   UNL     1      10.795   4.420   3.463  0.00  0.00    +0.119 C 
BRANCH  13  16
ATOM      5  N   UNL     1      11.678   3.864  -0.043  0.00  0.00    -0.274 N 
ATOM      6  N   UNL     1      12.786   3.325   0.496  0.00  0.00    -0.180 NA
ATOM     16  C   UNL     1      11.360   4.093   2.107  0.00  0.00    +0.004 A 
ATOM     18  C   UNL     1      10.792   4.338   0.880  0.00  0.00    +0.112 A 
ATOM     20  C   UNL     1      12.586   3.468   1.808  0.00  0.00    +0.139 A 
ATOM     21  C   UNL     1      11.519   3.896  -1.476  0.00  0.00    +0.172 C 
ENDBRANCH  13  16
ENDBRANCH   3  13
ENDBRANCH   7   3
TORSDOF 6
ENDMDL
MODEL 8
REMARK VINA RESULT:      -5.6     23.703     25.547
REMARK  Name = 75536117
REMARK  7 active torsions:
REMARK  status: ('A' for Active; 'I' for Inactive)
REMARK    1  A    between atoms: O_1  and  C_9
REMARK    2  A    between atoms: O_2  and  C_11
REMARK    3  A    between atoms: N_3  and  C_7
REMARK    4  A    between atoms: N_3  and  C_13
REMARK    5  A    between atoms: N_5  and  C_21
REMARK    6  A    between atoms: C_8  and  C_12
REMARK    7  A    between atoms: C_13  and  C_16
REMARK                            x       y       z     vdW  Elec       q    Type
REMARK                         _______ _______ _______ _____ _____    ______ ____
ROOT
ATOM      7  C   UNL     1     -10.092   9.745  17.416  0.00  0.00    +0.093 C 
ATOM      8  C   UNL     1     -10.973  11.012  17.308  0.00  0.00    +0.042 C 
ATOM      9  C   UNL     1     -10.945   8.671  16.741  0.00  0.00    +0.160 C 
ATOM     10  C   UNL     1     -11.885  10.779  16.073  0.00  0.00    +0.043 C 
ATOM     11  C   UNL     1     -11.502   9.402  15.523  0.00  0.00    +0.145 C 
ENDROOT
BRANCH   8  12
ATOM      4  N   UNL     1      -9.940  14.617  17.879  0.00  0.00    -0.263 NA
ATOM     12  C   UNL     1     -10.169  12.293  17.252  0.00  0.00    -0.025 A 
ATOM     14  C   UNL     1      -8.967  12.355  16.555  0.00  0.00    +0.007 A 
ATOM     15  C   UNL     1     -10.608  13.441  17.891  0.00  0.00    +0.114 A 
ATOM     17  C   UNL     1      -8.251  13.547  16.520  0.00  0.00    +0.020 A 
ATOM     19  C   UNL     1      -8.775  14.639  17.193  0.00  0.00    +0.111 A 
ENDBRANCH   8  12
BRANCH   9   1
ATOM      1  O   UNL     1     -10.171   7.544  16.376  0.00  0.00    -0.388 OA
ATOM     23  H   UNL     1      -9.986   7.042  17.188  0.00  0.00    +0.210 HD
ENDBRANCH   9   1
BRANCH  11   2
ATOM      2  O   UNL     1     -10.489   9.551  14.532  0.00  0.00    -0.389 OA
ATOM     24  H   UNL     1     -10.440  10.496  14.306  0.00  0.00    +0.210 HD
ENDBRANCH  11   2
BRANCH   7   3
ATOM      3  N   UNL     1      -9.789   9.404  18.802  0.00  0.00    -0.306 NA
ATOM     22  H   UNL     1      -9.740   8.389  18.892  0.00  0.00    +0.123 HD
BRANCH   3  13
ATOM     13  C   UNL     1     -10.823   9.904  19.697  0.00  0.00    +0.119 C 
BRANCH  13  16
ATOM      5  N   UNL     1     -13.145   7.607  21.345  0.00  0.00    -0.274 N 
ATOM      6  N   UNL     1     -12.278   6.680  20.903  0.00  0.00    -0.180 NA
ATOM     16  C   UNL     1     -11.630   8.785  20.300  0.00  0.00    +0.004 A 
ATOM     18  C   UNL     1     -12.802   8.885  21.010  0.00  0.00    +0.112 A 
ATOM     20  C   UNL     1     -11.356   7.405  20.266  0.00  0.00    +0.139 A 
ATOM     21  C   UNL     1     -14.307   7.203  22.098  0.00  0.00    +0.172 C 
ENDBRANCH  13  16
ENDBRANCH   3  13
ENDBRANCH   7   3
TORSDOF 6
ENDMDL
MODEL 9
REMARK VINA RESULT:      -5.5     26.408     28.435
REMARK  Name = 75536117
REMARK  7 active torsions:
REMARK  status: ('A' for Active; 'I' for Inactive)
REMARK    1  A    between atoms: O_1  and  C_9
REMARK    2  A    between atoms: O_2  and  C_11
REMARK    3  A    between atoms: N_3  and  C_7
REMARK    4  A    between atoms: N_3  and  C_13
REMARK    5  A    between atoms: N_5  and  C_21
REMARK    6  A    between atoms: C_8  and  C_12
REMARK    7  A    between atoms: C_13  and  C_16
REMARK                            x       y       z     vdW  Elec       q    Type
REMARK                         _______ _______ _______ _____ _____    ______ ____
ROOT
ATOM      7  C   UNL     1      -5.234 -10.640  15.427  0.00  0.00    +0.093 C 
ATOM      8  C   UNL     1      -4.775 -10.456  16.891  0.00  0.00    +0.042 C 
ATOM      9  C   UNL     1      -3.920 -10.638  14.647  0.00  0.00    +0.160 C 
ATOM     10  C   UNL     1      -3.326 -11.014  16.945  0.00  0.00    +0.043 C 
ATOM     11  C   UNL     1      -3.009 -11.491  15.526  0.00  0.00    +0.145 C 
ENDROOT
BRANCH   8  12
ATOM      4  N   UNL     1      -7.013 -10.872  19.925  0.00  0.00    -0.263 NA
ATOM     12  C   UNL     1      -5.718 -11.084  17.895  0.00  0.00    -0.025 A 
ATOM     14  C   UNL     1      -6.154 -12.396  17.746  0.00  0.00    +0.007 A 
ATOM     15  C   UNL     1      -6.173 -10.371  18.993  0.00  0.00    +0.114 A 
ATOM     17  C   UNL     1      -7.020 -12.947  18.684  0.00  0.00    +0.020 A 
ATOM     19  C   UNL     1      -7.416 -12.150  19.747  0.00  0.00    +0.111 A 
ENDBRANCH   8  12
BRANCH   9   1
ATOM      1  O   UNL     1      -4.079 -11.191  13.354  0.00  0.00    -0.388 OA
ATOM     23  H   UNL     1      -3.196 -11.238  12.947  0.00  0.00    +0.210 HD
ENDBRANCH   9   1
BRANCH  11   2
ATOM      2  O   UNL     1      -3.350 -12.868  15.399  0.00  0.00    -0.389 OA
ATOM     24  H   UNL     1      -4.246 -12.912  15.021  0.00  0.00    +0.210 HD
ENDBRANCH  11   2
BRANCH   7   3
ATOM      3  N   UNL     1      -6.123  -9.569  14.992  0.00  0.00    -0.306 NA
ATOM     22  H   UNL     1      -6.215  -8.886  15.744  0.00  0.00    +0.123 HD
BRANCH   3  13
ATOM     13  C   UNL     1      -7.445 -10.089  14.670  0.00  0.00    +0.119 C 
BRANCH  13  16
ATOM      5  N   UNL     1      -9.831 -10.490  17.412  0.00  0.00    -0.274 N 
ATOM      6  N   UNL     1      -9.508  -9.208  17.657  0.00  0.00    -0.180 NA
ATOM     16  C   UNL     1      -8.375 -10.025  15.851  0.00  0.00    +0.004 A 
ATOM     18  C   UNL     1      -9.179 -11.026  16.340  0.00  0.00    +0.112 A 
ATOM     20  C   UNL     1      -8.620  -8.931  16.701  0.00  0.00    +0.139 A 
ATOM     21  C   UNL     1     -10.789 -11.163  18.255  0.00  0.00    +0.172 C 
ENDBRANCH  13  16
ENDBRANCH   3  13
ENDBRANCH   7   3
TORSDOF 6
ENDMDL
MODEL 10
REMARK VINA RESULT:      -5.5     25.680     26.938
REMARK  Name = 75536117
REMARK  7 active torsions:
REMARK  status: ('A' for Active; 'I' for Inactive)
REMARK    1  A    between atoms: O_1  and  C_9
REMARK    2  A    between atoms: O_2  and  C_11
REMARK    3  A    between atoms: N_3  and  C_7
REMARK    4  A    between atoms: N_3  and  C_13
REMARK    5  A    between atoms: N_5  and  C_21
REMARK    6  A    between atoms: C_8  and  C_12
REMARK    7  A    between atoms: C_13  and  C_16
REMARK                            x       y       z     vdW  Elec       q    Type
REMARK                         _______ _______ _______ _____ _____    ______ ____
ROOT
ATOM      7  C   UNL     1      -3.062 -10.804  14.480  0.00  0.00    +0.093 C 
ATOM      8  C   UNL     1      -4.262 -11.324  13.656  0.00  0.00    +0.042 C 
ATOM      9  C   UNL     1      -2.322 -12.085  14.863  0.00  0.00    +0.160 C 
ATOM     10  C   UNL     1      -3.803 -12.687  13.070  0.00  0.00    +0.043 C 
ATOM     11  C   UNL     1      -2.374 -12.899  13.574  0.00  0.00    +0.145 C 
ENDROOT
BRANCH   8  12
ATOM      4  N   UNL     1      -6.476  -8.833  11.844  0.00  0.00    -0.263 NA
ATOM     12  C   UNL     1      -4.747 -10.335  12.618  0.00  0.00    -0.025 A 
ATOM     14  C   UNL     1      -3.963 -10.013  11.514  0.00  0.00    +0.007 A 
ATOM     15  C   UNL     1      -5.984  -9.723  12.735  0.00  0.00    +0.114 A 
ATOM     17  C   UNL     1      -4.435  -9.102  10.576  0.00  0.00    +0.020 A 
ATOM     19  C   UNL     1      -5.687  -8.544  10.785  0.00  0.00    +0.111 A 
ENDBRANCH   8  12
BRANCH   9   1
ATOM      1  O   UNL     1      -0.993 -11.818  15.269  0.00  0.00    -0.388 OA
ATOM     23  H   UNL     1      -0.806 -12.380  16.041  0.00  0.00    +0.210 HD
ENDBRANCH   9   1
BRANCH  11   2
ATOM      2  O   UNL     1      -1.451 -12.375  12.622  0.00  0.00    -0.389 OA
ATOM     24  H   UNL     1      -1.398 -11.414  12.769  0.00  0.00    +0.210 HD
ENDBRANCH  11   2
BRANCH   7   3
ATOM      3  N   UNL     1      -3.488 -10.053  15.656  0.00  0.00    -0.306 NA
ATOM     22  H   UNL     1      -2.682  -9.571  16.054  0.00  0.00    +0.123 HD
BRANCH   3  13
ATOM     13  C   UNL     1      -4.046 -10.941  16.665  0.00  0.00    +0.119 C 
BRANCH  13  16
ATOM      5  N   UNL     1      -7.365  -9.542  17.301  0.00  0.00    -0.274 N 
ATOM      6  N   UNL     1      -7.211 -10.153  18.488  0.00  0.00    -0.180 NA
ATOM     16  C   UNL     1      -5.394 -10.472  17.142  0.00  0.00    +0.004 A 
ATOM     18  C   UNL     1      -6.304  -9.702  16.458  0.00  0.00    +0.112 A 
ATOM     20  C   UNL     1      -6.006 -10.719  18.385  0.00  0.00    +0.139 A 
ATOM     21  C   UNL     1      -8.573  -8.803  17.025  0.00  0.00    +0.172 C 
ENDBRANCH  13  16
ENDBRANCH   3  13
ENDBRANCH   7   3
TORSDOF 6
ENDMDL
