MODEL 1
REMARK VINA RESULT:      -6.7      0.000      0.000
REMARK  Name = 51137826
REMARK  4 active torsions:
REMARK  status: ('A' for Active; 'I' for Inactive)
REMARK    1  A    between atoms: C_7  and  C_11
REMARK    2  A    between atoms: C_12  and  C_13
REMARK    3  A    between atoms: C_14  and  C_15
REMARK    4  A    between atoms: C_15  and  C_18
REMARK                            x       y       z     vdW  Elec       q    Type
REMARK                         _______ _______ _______ _____ _____    ______ ____
ROOT
ATOM      2  O   UNL     1      10.506   9.395  22.583  0.00  0.00    -0.270 OA
ATOM      3  N   UNL     1      11.688   9.598  20.594  0.00  0.00    -0.297 N 
ATOM      7  C   UNL     1      12.968   9.154  18.636  0.00  0.00    +0.095 C 
ATOM      8  C   UNL     1      11.577   8.514  18.500  0.00  0.00    +0.033 C 
ATOM      9  C   UNL     1      12.736  10.180  19.755  0.00  0.00    +0.121 C 
ATOM     10  C   UNL     1      11.053   8.469  19.929  0.00  0.00    +0.109 C 
ATOM     12  C   UNL     1      11.345   9.961  21.886  0.00  0.00    +0.248 C 
ENDROOT
BRANCH  12  13
ATOM      6  N   UNL     1      13.971  11.946  23.690  0.00  0.00    -0.263 NA
ATOM     13  C   UNL     1      12.054  11.106  22.480  0.00  0.00    +0.055 A 
ATOM     16  C   UNL     1      11.527  12.390  22.409  0.00  0.00    +0.016 A 
ATOM     17  C   UNL     1      13.268  10.939  23.125  0.00  0.00    +0.123 A 
ATOM     19  C   UNL     1      12.220  13.453  22.978  0.00  0.00    +0.020 A 
ATOM     22  C   UNL     1      13.427  13.180  23.601  0.00  0.00    +0.111 A 
ENDBRANCH  12  13
BRANCH   7  11
ATOM      1  O   UNL     1      14.559   8.047  20.141  0.00  0.00    -0.424 OA
ATOM      4  N   UNL     1      14.567   7.237  18.056  0.00  0.00    -0.112 NA
ATOM      5  N   UNL     1      15.501   6.531  18.793  0.00  0.00    -0.112 NA
ATOM     11  C   UNL     1      14.043   8.111  18.884  0.00  0.00    +0.222 A 
ATOM     14  C   UNL     1      15.462   7.038  20.003  0.00  0.00    +0.222 A 
BRANCH  14  15
ATOM     15  C   UNL     1      16.236   6.671  21.195  0.00  0.00    +0.132 C 
BRANCH  15  18
ATOM     18  C   UNL     1      17.699   7.100  21.163  0.00  0.00    -0.038 A 
ATOM     20  C   UNL     1      18.679   6.203  20.737  0.00  0.00    +0.004 A 
ATOM     21  C   UNL     1      18.058   8.388  21.559  0.00  0.00    +0.004 A 
ATOM     23  C   UNL     1      20.017   6.594  20.707  0.00  0.00    +0.000 A 
ATOM     24  C   UNL     1      19.396   8.779  21.529  0.00  0.00    +0.000 A 
ATOM     25  C   UNL     1      20.376   7.883  21.103  0.00  0.00    +0.000 A 
ENDBRANCH  15  18
ENDBRANCH  14  15
ENDBRANCH   7  11
TORSDOF 4
ENDMDL
MODEL 2
REMARK VINA RESULT:      -6.6      1.747      2.616
REMARK  Name = 51137826
REMARK  4 active torsions:
REMARK  status: ('A' for Active; 'I' for Inactive)
REMARK    1  A    between atoms: C_7  and  C_11
REMARK    2  A    between atoms: C_12  and  C_13
REMARK    3  A    between atoms: C_14  and  C_15
REMARK    4  A    between atoms: C_15  and  C_18
REMARK                            x       y       z     vdW  Elec       q    Type
REMARK                         _______ _______ _______ _____ _____    ______ ____
ROOT
ATOM      2  O   UNL     1      10.563   7.806  20.663  0.00  0.00    -0.270 OA
ATOM      3  N   UNL     1      12.622   8.496  19.838  0.00  0.00    -0.297 N 
ATOM      7  C   UNL     1      14.889   8.573  19.115  0.00  0.00    +0.095 C 
ATOM      8  C   UNL     1      14.071   7.690  18.159  0.00  0.00    +0.033 C 
ATOM      9  C   UNL     1      13.789   9.379  19.820  0.00  0.00    +0.121 C 
ATOM     10  C   UNL     1      12.814   7.358  18.952  0.00  0.00    +0.109 C 
ATOM     12  C   UNL     1      11.488   8.614  20.626  0.00  0.00    +0.248 C 
ENDROOT
BRANCH  12  13
ATOM      6  N   UNL     1      10.923  10.704  23.693  0.00  0.00    -0.263 NA
ATOM     13  C   UNL     1      11.391   9.793  21.503  0.00  0.00    +0.055 A 
ATOM     16  C   UNL     1      11.662  11.068  21.022  0.00  0.00    +0.016 A 
ATOM     17  C   UNL     1      11.029   9.665  22.834  0.00  0.00    +0.123 A 
ATOM     19  C   UNL     1      11.563  12.162  21.874  0.00  0.00    +0.020 A 
ATOM     22  C   UNL     1      11.193  11.929  23.189  0.00  0.00    +0.111 A 
ENDBRANCH  12  13
BRANCH   7  11
ATOM      1  O   UNL     1      16.958   8.328  20.412  0.00  0.00    -0.424 OA
ATOM      4  N   UNL     1      15.640   6.521  20.455  0.00  0.00    -0.112 NA
ATOM      5  N   UNL     1      16.760   6.251  21.218  0.00  0.00    -0.112 NA
ATOM     11  C   UNL     1      15.798   7.744  20.004  0.00  0.00    +0.222 A 
ATOM     14  C   UNL     1      17.501   7.333  21.166  0.00  0.00    +0.222 A 
BRANCH  14  15
ATOM     15  C   UNL     1      18.799   7.609  21.793  0.00  0.00    +0.132 C 
BRANCH  15  18
ATOM     18  C   UNL     1      19.813   6.474  21.689  0.00  0.00    -0.038 A 
ATOM     20  C   UNL     1      20.695   6.229  22.741  0.00  0.00    +0.004 A 
ATOM     21  C   UNL     1      19.857   5.681  20.542  0.00  0.00    +0.004 A 
ATOM     23  C   UNL     1      21.623   5.191  22.646  0.00  0.00    +0.000 A 
ATOM     24  C   UNL     1      20.784   4.644  20.447  0.00  0.00    +0.000 A 
ATOM     25  C   UNL     1      21.667   4.399  21.499  0.00  0.00    +0.000 A 
ENDBRANCH  15  18
ENDBRANCH  14  15
ENDBRANCH   7  11
TORSDOF 4
ENDMDL
MODEL 3
REMARK VINA RESULT:      -6.2      3.383      4.396
REMARK  Name = 51137826
REMARK  4 active torsions:
REMARK  status: ('A' for Active; 'I' for Inactive)
REMARK    1  A    between atoms: C_7  and  C_11
REMARK    2  A    between atoms: C_12  and  C_13
REMARK    3  A    between atoms: C_14  and  C_15
REMARK    4  A    between atoms: C_15  and  C_18
REMARK                            x       y       z     vdW  Elec       q    Type
REMARK                         _______ _______ _______ _____ _____    ______ ____
ROOT
ATOM      2  O   UNL     1      13.977  10.375  23.259  0.00  0.00    -0.270 OA
ATOM      3  N   UNL     1      12.476   9.136  21.992  0.00  0.00    -0.297 N 
ATOM      7  C   UNL     1      11.473   7.770  20.320  0.00  0.00    +0.095 C 
ATOM      8  C   UNL     1      12.472   6.937  21.138  0.00  0.00    +0.033 C 
ATOM      9  C   UNL     1      11.227   8.969  21.247  0.00  0.00    +0.121 C 
ATOM     10  C   UNL     1      13.343   7.979  21.826  0.00  0.00    +0.109 C 
ATOM     12  C   UNL     1      12.885  10.249  22.709  0.00  0.00    +0.248 C 
ENDROOT
BRANCH  12  13
ATOM      6  N   UNL     1      10.279  12.570  24.091  0.00  0.00    -0.263 NA
ATOM     13  C   UNL     1      11.945  11.377  22.808  0.00  0.00    +0.055 A 
ATOM     16  C   UNL     1      11.818  12.297  21.773  0.00  0.00    +0.016 A 
ATOM     17  C   UNL     1      11.160  11.556  23.935  0.00  0.00    +0.123 A 
ATOM     19  C   UNL     1      10.922  13.353  21.896  0.00  0.00    +0.020 A 
ATOM     22  C   UNL     1      10.182  13.444  23.064  0.00  0.00    +0.111 A 
ENDBRANCH  12  13
BRANCH   7  11
ATOM      1  O   UNL     1      12.534   9.324  18.744  0.00  0.00    -0.424 OA
ATOM      4  N   UNL     1      12.043   7.328  17.860  0.00  0.00    -0.112 NA
ATOM      5  N   UNL     1      12.631   8.099  16.875  0.00  0.00    -0.112 NA
ATOM     11  C   UNL     1      12.007   8.083  18.933  0.00  0.00    +0.222 A 
ATOM     14  C   UNL     1      12.901   9.255  17.435  0.00  0.00    +0.222 A 
BRANCH  14  15
ATOM     15  C   UNL     1      13.530  10.449  16.858  0.00  0.00    +0.132 C 
BRANCH  15  18
ATOM     18  C   UNL     1      14.153  11.398  17.877  0.00  0.00    -0.038 A 
ATOM     20  C   UNL     1      13.543  12.621  18.156  0.00  0.00    +0.004 A 
ATOM     21  C   UNL     1      15.332  11.042  18.531  0.00  0.00    +0.004 A 
ATOM     23  C   UNL     1      14.112  13.489  19.087  0.00  0.00    +0.000 A 
ATOM     24  C   UNL     1      15.902  11.910  19.463  0.00  0.00    +0.000 A 
ATOM     25  C   UNL     1      15.292  13.133  19.741  0.00  0.00    +0.000 A 
ENDBRANCH  15  18
ENDBRANCH  14  15
ENDBRANCH   7  11
TORSDOF 4
ENDMDL
MODEL 4
REMARK VINA RESULT:      -6.2     27.462     29.382
REMARK  Name = 51137826
REMARK  4 active torsions:
REMARK  status: ('A' for Active; 'I' for Inactive)
REMARK    1  A    between atoms: C_7  and  C_11
REMARK    2  A    between atoms: C_12  and  C_13
REMARK    3  A    between atoms: C_14  and  C_15
REMARK    4  A    between atoms: C_15  and  C_18
REMARK                            x       y       z     vdW  Elec       q    Type
REMARK                         _______ _______ _______ _____ _____    ______ ____
ROOT
ATOM      2  O   UNL     1      -3.578 -12.824  10.629  0.00  0.00    -0.270 OA
ATOM      3  N   UNL     1      -2.872 -11.652  12.506  0.00  0.00    -0.297 N 
ATOM      7  C   UNL     1      -2.371 -10.990  14.737  0.00  0.00    +0.095 C 
ATOM      8  C   UNL     1      -1.470 -12.168  14.332  0.00  0.00    +0.033 C 
ATOM      9  C   UNL     1      -2.847 -10.472  13.372  0.00  0.00    +0.121 C 
ATOM     10  C   UNL     1      -2.174 -12.769  13.123  0.00  0.00    +0.109 C 
ATOM     12  C   UNL     1      -3.522 -11.789  11.289  0.00  0.00    +0.248 C 
ENDROOT
BRANCH  12  13
ATOM      6  N   UNL     1      -6.234  -9.284  10.609  0.00  0.00    -0.263 NA
ATOM     13  C   UNL     1      -4.215 -10.607  10.752  0.00  0.00    +0.055 A 
ATOM     16  C   UNL     1      -3.559  -9.711   9.916  0.00  0.00    +0.016 A 
ATOM     17  C   UNL     1      -5.540 -10.351  11.066  0.00  0.00    +0.123 A 
ATOM     19  C   UNL     1      -4.239  -8.601   9.426  0.00  0.00    +0.020 A 
ATOM     22  C   UNL     1      -5.563  -8.436   9.798  0.00  0.00    +0.111 A 
ENDBRANCH  12  13
BRANCH   7  11
ATOM      1  O   UNL     1      -3.777 -10.538  16.698  0.00  0.00    -0.424 OA
ATOM      4  N   UNL     1      -4.139 -12.537  15.762  0.00  0.00    -0.112 NA
ATOM      5  N   UNL     1      -4.989 -12.412  16.845  0.00  0.00    -0.112 NA
ATOM     11  C   UNL     1      -3.451 -11.421  15.714  0.00  0.00    +0.222 A 
ATOM     14  C   UNL     1      -4.743 -11.231  17.361  0.00  0.00    +0.222 A 
BRANCH  14  15
ATOM     15  C   UNL     1      -5.353 -10.572  18.522  0.00  0.00    +0.132 C 
BRANCH  15  18
ATOM     18  C   UNL     1      -6.864 -10.384  18.429  0.00  0.00    -0.038 A 
ATOM     20  C   UNL     1      -7.401  -9.515  17.478  0.00  0.00    +0.004 A 
ATOM     21  C   UNL     1      -7.709 -11.081  19.292  0.00  0.00    +0.004 A 
ATOM     23  C   UNL     1      -8.782  -9.343  17.392  0.00  0.00    +0.000 A 
ATOM     24  C   UNL     1      -9.090 -10.909  19.206  0.00  0.00    +0.000 A 
ATOM     25  C   UNL     1      -9.627 -10.040  18.257  0.00  0.00    +0.000 A 
ENDBRANCH  15  18
ENDBRANCH  14  15
ENDBRANCH   7  11
TORSDOF 4
ENDMDL
MODEL 5
REMARK VINA RESULT:      -6.1     28.256     31.433
REMARK  Name = 51137826
REMARK  4 active torsions:
REMARK  status: ('A' for Active; 'I' for Inactive)
REMARK    1  A    between atoms: C_7  and  C_11
REMARK    2  A    between atoms: C_12  and  C_13
REMARK    3  A    between atoms: C_14  and  C_15
REMARK    4  A    between atoms: C_15  and  C_18
REMARK                            x       y       z     vdW  Elec       q    Type
REMARK                         _______ _______ _______ _____ _____    ______ ____
ROOT
ATOM      2  O   UNL     1     -15.756   3.552  27.797  0.00  0.00    -0.270 OA
ATOM      3  N   UNL     1     -16.208   4.366  29.926  0.00  0.00    -0.297 N 
ATOM      7  C   UNL     1     -16.332   5.718  31.881  0.00  0.00    +0.095 C 
ATOM      8  C   UNL     1     -17.152   6.364  30.753  0.00  0.00    +0.033 C 
ATOM      9  C   UNL     1     -16.199   4.271  31.386  0.00  0.00    +0.121 C 
ATOM     10  C   UNL     1     -16.636   5.687  29.490  0.00  0.00    +0.109 C 
ATOM     12  C   UNL     1     -15.800   3.402  29.017  0.00  0.00    +0.248 C 
ENDROOT
BRANCH  12  13
ATOM      6  N   UNL     1     -15.922  -0.184  30.117  0.00  0.00    -0.263 NA
ATOM     13  C   UNL     1     -15.370   2.101  29.554  0.00  0.00    +0.055 A 
ATOM     16  C   UNL     1     -14.066   1.902  29.991  0.00  0.00    +0.016 A 
ATOM     17  C   UNL     1     -16.252   1.036  29.637  0.00  0.00    +0.123 A 
ATOM     19  C   UNL     1     -13.689   0.661  30.492  0.00  0.00    +0.020 A 
ATOM     22  C   UNL     1     -14.646  -0.340  30.534  0.00  0.00    +0.111 A 
ENDBRANCH  12  13
BRANCH   7  11
ATOM      1  O   UNL     1     -15.033   7.800  31.846  0.00  0.00    -0.424 OA
ATOM      4  N   UNL     1     -13.892   6.031  32.602  0.00  0.00    -0.112 NA
ATOM      5  N   UNL     1     -13.051   7.128  32.635  0.00  0.00    -0.112 NA
ATOM     11  C   UNL     1     -15.038   6.470  32.135  0.00  0.00    +0.222 A 
ATOM     14  C   UNL     1     -13.759   8.138  32.185  0.00  0.00    +0.222 A 
BRANCH  14  15
ATOM     15  C   UNL     1     -13.374   9.543  32.006  0.00  0.00    +0.132 C 
BRANCH  15  18
ATOM     18  C   UNL     1     -13.068   9.942  30.565  0.00  0.00    -0.038 A 
ATOM     20  C   UNL     1     -14.094  10.391  29.733  0.00  0.00    +0.004 A 
ATOM     21  C   UNL     1     -11.763   9.859  30.080  0.00  0.00    +0.004 A 
ATOM     23  C   UNL     1     -13.815  10.756  28.417  0.00  0.00    +0.000 A 
ATOM     24  C   UNL     1     -11.484  10.224  28.764  0.00  0.00    +0.000 A 
ATOM     25  C   UNL     1     -12.510  10.672  27.932  0.00  0.00    +0.000 A 
ENDBRANCH  15  18
ENDBRANCH  14  15
ENDBRANCH   7  11
TORSDOF 4
ENDMDL
MODEL 6
REMARK VINA RESULT:      -6.1     28.375     30.331
REMARK  Name = 51137826
REMARK  4 active torsions:
REMARK  status: ('A' for Active; 'I' for Inactive)
REMARK    1  A    between atoms: C_7  and  C_11
REMARK    2  A    between atoms: C_12  and  C_13
REMARK    3  A    between atoms: C_14  and  C_15
REMARK    4  A    between atoms: C_15  and  C_18
REMARK                            x       y       z     vdW  Elec       q    Type
REMARK                         _______ _______ _______ _____ _____    ______ ____
ROOT
ATOM      2  O   UNL     1      -5.215 -13.192  14.285  0.00  0.00    -0.270 OA
ATOM      3  N   UNL     1      -5.021 -11.652  16.013  0.00  0.00    -0.297 N 
ATOM      7  C   UNL     1      -5.189 -10.523  18.102  0.00  0.00    +0.095 C 
ATOM      8  C   UNL     1      -4.339 -11.793  18.268  0.00  0.00    +0.033 C 
ATOM      9  C   UNL     1      -5.146 -10.309  16.582  0.00  0.00    +0.121 C 
ATOM     10  C   UNL     1      -4.681 -12.626  17.040  0.00  0.00    +0.109 C 
ATOM     12  C   UNL     1      -5.260 -12.037  14.704  0.00  0.00    +0.248 C 
ENDROOT
BRANCH  12  13
ATOM      6  N   UNL     1      -4.918  -9.478  11.980  0.00  0.00    -0.263 NA
ATOM     13  C   UNL     1      -5.613 -10.982  13.740  0.00  0.00    +0.055 A 
ATOM     16  C   UNL     1      -6.911 -10.495  13.654  0.00  0.00    +0.016 A 
ATOM     17  C   UNL     1      -4.661 -10.445  12.888  0.00  0.00    +0.123 A 
ATOM     19  C   UNL     1      -7.215  -9.500  12.732  0.00  0.00    +0.020 A 
ATOM     22  C   UNL     1      -6.192  -9.028  11.926  0.00  0.00    +0.111 A 
ENDBRANCH  12  13
BRANCH   7  11
ATOM      1  O   UNL     1      -7.635 -10.539  17.899  0.00  0.00    -0.424 OA
ATOM      4  N   UNL     1      -6.892 -10.945  19.970  0.00  0.00    -0.112 NA
ATOM      5  N   UNL     1      -8.274 -10.983  19.996  0.00  0.00    -0.112 NA
ATOM     11  C   UNL     1      -6.563 -10.683  18.727  0.00  0.00    +0.222 A 
ATOM     14  C   UNL     1      -8.664 -10.741  18.766  0.00  0.00    +0.222 A 
BRANCH  14  15
ATOM     15  C   UNL     1     -10.022 -10.664  18.214  0.00  0.00    +0.132 C 
BRANCH  15  18
ATOM     18  C   UNL     1     -10.220  -9.583  17.157  0.00  0.00    -0.038 A 
ATOM     20  C   UNL     1     -10.282  -9.931  15.807  0.00  0.00    +0.004 A 
ATOM     21  C   UNL     1     -10.341  -8.247  17.538  0.00  0.00    +0.004 A 
ATOM     23  C   UNL     1     -10.463  -8.943  14.839  0.00  0.00    +0.000 A 
ATOM     24  C   UNL     1     -10.523  -7.259  16.571  0.00  0.00    +0.000 A 
ATOM     25  C   UNL     1     -10.583  -7.606  15.221  0.00  0.00    +0.000 A 
ENDBRANCH  15  18
ENDBRANCH  14  15
ENDBRANCH   7  11
TORSDOF 4
ENDMDL
MODEL 7
REMARK VINA RESULT:      -6.0      2.586      5.789
REMARK  Name = 51137826
REMARK  4 active torsions:
REMARK  status: ('A' for Active; 'I' for Inactive)
REMARK    1  A    between atoms: C_7  and  C_11
REMARK    2  A    between atoms: C_12  and  C_13
REMARK    3  A    between atoms: C_14  and  C_15
REMARK    4  A    between atoms: C_15  and  C_18
REMARK                            x       y       z     vdW  Elec       q    Type
REMARK                         _______ _______ _______ _____ _____    ______ ____
ROOT
ATOM      2  O   UNL     1      15.569  11.045  18.742  0.00  0.00    -0.270 OA
ATOM      3  N   UNL     1      15.179   9.010  19.791  0.00  0.00    -0.297 N 
ATOM      7  C   UNL     1      14.176   7.015  20.616  0.00  0.00    +0.095 C 
ATOM      8  C   UNL     1      14.287   6.943  19.085  0.00  0.00    +0.033 C 
ATOM      9  C   UNL     1      15.184   8.121  20.955  0.00  0.00    +0.121 C 
ATOM     10  C   UNL     1      14.498   8.391  18.664  0.00  0.00    +0.109 C 
ATOM     12  C   UNL     1      15.661  10.307  19.721  0.00  0.00    +0.248 C 
ENDROOT
BRANCH  12  13
ATOM      6  N   UNL     1      18.355  11.185  22.183  0.00  0.00    -0.263 NA
ATOM     13  C   UNL     1      16.322  10.852  20.918  0.00  0.00    +0.055 A 
ATOM     16  C   UNL     1      15.596  11.529  21.890  0.00  0.00    +0.016 A 
ATOM     17  C   UNL     1      17.686  10.707  21.109  0.00  0.00    +0.123 A 
ATOM     19  C   UNL     1      16.248  12.035  23.010  0.00  0.00    +0.020 A 
ATOM     22  C   UNL     1      17.616  11.837  23.108  0.00  0.00    +0.111 A 
ENDBRANCH  12  13
BRANCH   7  11
ATOM      1  O   UNL     1      12.514   8.314  21.871  0.00  0.00    -0.424 OA
ATOM      4  N   UNL     1      11.661   6.552  20.790  0.00  0.00    -0.112 NA
ATOM      5  N   UNL     1      10.627   7.190  21.450  0.00  0.00    -0.112 NA
ATOM     11  C   UNL     1      12.743   7.242  21.064  0.00  0.00    +0.222 A 
ATOM     14  C   UNL     1      11.171   8.213  22.067  0.00  0.00    +0.222 A 
BRANCH  14  15
ATOM     15  C   UNL     1      10.544   9.235  22.914  0.00  0.00    +0.132 C 
BRANCH  15  18
ATOM     18  C   UNL     1      11.207  10.608  22.854  0.00  0.00    -0.038 A 
ATOM     20  C   UNL     1      11.728  11.181  24.014  0.00  0.00    +0.004 A 
ATOM     21  C   UNL     1      11.294  11.289  21.640  0.00  0.00    +0.004 A 
ATOM     23  C   UNL     1      12.335  12.436  23.960  0.00  0.00    +0.000 A 
ATOM     24  C   UNL     1      11.900  12.544  21.586  0.00  0.00    +0.000 A 
ATOM     25  C   UNL     1      12.420  13.117  22.746  0.00  0.00    +0.000 A 
ENDBRANCH  15  18
ENDBRANCH  14  15
ENDBRANCH   7  11
TORSDOF 4
ENDMDL
MODEL 8
REMARK VINA RESULT:      -6.0     24.717     26.965
REMARK  Name = 51137826
REMARK  4 active torsions:
REMARK  status: ('A' for Active; 'I' for Inactive)
REMARK    1  A    between atoms: C_7  and  C_11
REMARK    2  A    between atoms: C_12  and  C_13
REMARK    3  A    between atoms: C_14  and  C_15
REMARK    4  A    between atoms: C_15  and  C_18
REMARK                            x       y       z     vdW  Elec       q    Type
REMARK                         _______ _______ _______ _____ _____    ______ ____
ROOT
ATOM      2  O   UNL     1     -12.343  10.646  15.904  0.00  0.00    -0.270 OA
ATOM      3  N   UNL     1     -11.408   9.579  17.742  0.00  0.00    -0.297 N 
ATOM      7  C   UNL     1     -11.083   8.358  19.761  0.00  0.00    +0.095 C 
ATOM      8  C   UNL     1     -11.616   7.418  18.668  0.00  0.00    +0.033 C 
ATOM      9  C   UNL     1     -10.556   9.539  18.933  0.00  0.00    +0.121 C 
ATOM     10  C   UNL     1     -12.197   8.362  17.623  0.00  0.00    +0.109 C 
ATOM     12  C   UNL     1     -11.559  10.628  16.851  0.00  0.00    +0.248 C 
ENDROOT
BRANCH  12  13
ATOM      6  N   UNL     1     -10.477  14.016  18.051  0.00  0.00    -0.263 NA
ATOM     13  C   UNL     1     -10.728  11.824  17.062  0.00  0.00    +0.055 A 
ATOM     16  C   UNL     1      -9.455  11.919  16.512  0.00  0.00    +0.016 A 
ATOM     17  C   UNL     1     -11.189  12.891  17.817  0.00  0.00    +0.123 A 
ATOM     19  C   UNL     1      -8.692  13.060  16.731  0.00  0.00    +0.020 A 
ATOM     22  C   UNL     1      -9.244  14.072  17.500  0.00  0.00    +0.111 A 
ENDBRANCH  12  13
BRANCH   7  11
ATOM      1  O   UNL     1     -12.052   9.879  21.426  0.00  0.00    -0.424 OA
ATOM      4  N   UNL     1     -13.174   7.958  21.188  0.00  0.00    -0.112 NA
ATOM      5  N   UNL     1     -13.820   8.715  22.148  0.00  0.00    -0.112 NA
ATOM     11  C   UNL     1     -12.148   8.676  20.795  0.00  0.00    +0.222 A 
ATOM     14  C   UNL     1     -13.131   9.827  22.254  0.00  0.00    +0.222 A 
BRANCH  14  15
ATOM     15  C   UNL     1     -13.362  10.991  23.118  0.00  0.00    +0.132 C 
BRANCH  15  18
ATOM     18  C   UNL     1     -12.942  10.800  24.572  0.00  0.00    -0.038 A 
ATOM     20  C   UNL     1     -11.604  10.949  24.936  0.00  0.00    +0.004 A 
ATOM     21  C   UNL     1     -13.896  10.478  25.537  0.00  0.00    +0.004 A 
ATOM     23  C   UNL     1     -11.220  10.774  26.266  0.00  0.00    +0.000 A 
ATOM     24  C   UNL     1     -13.512  10.303  26.866  0.00  0.00    +0.000 A 
ATOM     25  C   UNL     1     -12.174  10.451  27.230  0.00  0.00    +0.000 A 
ENDBRANCH  15  18
ENDBRANCH  14  15
ENDBRANCH   7  11
TORSDOF 4
ENDMDL
MODEL 9
REMARK VINA RESULT:      -5.9     27.041     30.336
REMARK  Name = 51137826
REMARK  4 active torsions:
REMARK  status: ('A' for Active; 'I' for Inactive)
REMARK    1  A    between atoms: C_7  and  C_11
REMARK    2  A    between atoms: C_12  and  C_13
REMARK    3  A    between atoms: C_14  and  C_15
REMARK    4  A    between atoms: C_15  and  C_18
REMARK                            x       y       z     vdW  Elec       q    Type
REMARK                         _______ _______ _______ _____ _____    ______ ____
ROOT
ATOM      2  O   UNL     1     -16.225   5.184  29.903  0.00  0.00    -0.270 OA
ATOM      3  N   UNL     1     -15.468   6.606  31.576  0.00  0.00    -0.297 N 
ATOM      7  C   UNL     1     -14.458   8.400  32.772  0.00  0.00    +0.095 C 
ATOM      8  C   UNL     1     -15.659   8.925  31.970  0.00  0.00    +0.033 C 
ATOM      9  C   UNL     1     -14.740   6.891  32.813  0.00  0.00    +0.121 C 
ATOM     10  C   UNL     1     -15.916   7.835  30.938  0.00  0.00    +0.109 C 
ATOM     12  C   UNL     1     -15.670   5.369  30.984  0.00  0.00    +0.248 C 
ENDROOT
BRANCH  12  13
ATOM      6  N   UNL     1     -15.516   2.485  33.381  0.00  0.00    -0.263 NA
ATOM     13  C   UNL     1     -15.167   4.185  31.698  0.00  0.00    +0.055 A 
ATOM     16  C   UNL     1     -13.923   3.642  31.397  0.00  0.00    +0.016 A 
ATOM     17  C   UNL     1     -15.918   3.575  32.689  0.00  0.00    +0.123 A 
ATOM     19  C   UNL     1     -13.475   2.521  32.086  0.00  0.00    +0.020 A 
ATOM     22  C   UNL     1     -14.302   1.986  33.061  0.00  0.00    +0.111 A 
ENDBRANCH  12  13
BRANCH   7  11
ATOM      1  O   UNL     1     -13.121  10.032  31.518  0.00  0.00    -0.424 OA
ATOM      4  N   UNL     1     -11.985   8.203  32.127  0.00  0.00    -0.112 NA
ATOM      5  N   UNL     1     -11.122   9.032  31.434  0.00  0.00    -0.112 NA
ATOM     11  C   UNL     1     -13.140   8.827  32.151  0.00  0.00    +0.222 A 
ATOM     14  C   UNL     1     -11.827  10.087  31.098  0.00  0.00    +0.222 A 
BRANCH  14  15
ATOM     15  C   UNL     1     -11.420  11.285  30.355  0.00  0.00    +0.132 C 
BRANCH  15  18
ATOM     18  C   UNL     1     -11.490  11.149  28.837  0.00  0.00    -0.038 A 
ATOM     20  C   UNL     1     -10.971  10.014  28.215  0.00  0.00    +0.004 A 
ATOM     21  C   UNL     1     -12.073  12.159  28.072  0.00  0.00    +0.004 A 
ATOM     23  C   UNL     1     -11.034   9.889  26.827  0.00  0.00    +0.000 A 
ATOM     24  C   UNL     1     -12.136  12.034  26.684  0.00  0.00    +0.000 A 
ATOM     25  C   UNL     1     -11.616  10.899  26.062  0.00  0.00    +0.000 A 
ENDBRANCH  15  18
ENDBRANCH  14  15
ENDBRANCH   7  11
TORSDOF 4
ENDMDL
MODEL 10
REMARK VINA RESULT:      -5.9     27.742     30.320
REMARK  Name = 51137826
REMARK  4 active torsions:
REMARK  status: ('A' for Active; 'I' for Inactive)
REMARK    1  A    between atoms: C_7  and  C_11
REMARK    2  A    between atoms: C_12  and  C_13
REMARK    3  A    between atoms: C_14  and  C_15
REMARK    4  A    between atoms: C_15  and  C_18
REMARK                            x       y       z     vdW  Elec       q    Type
REMARK                         _______ _______ _______ _____ _____    ______ ____
ROOT
ATOM      2  O   UNL     1      -3.813 -13.727  14.826  0.00  0.00    -0.270 OA
ATOM      3  N   UNL     1      -4.424 -11.745  15.872  0.00  0.00    -0.297 N 
ATOM      7  C   UNL     1      -5.591 -10.063  17.086  0.00  0.00    +0.095 C 
ATOM      8  C   UNL     1      -5.182 -11.198  18.038  0.00  0.00    +0.033 C 
ATOM      9  C   UNL     1      -4.658 -10.300  15.891  0.00  0.00    +0.121 C 
ATOM     10  C   UNL     1      -4.876 -12.364  17.109  0.00  0.00    +0.109 C 
ATOM     12  C   UNL     1      -3.924 -12.503  14.825  0.00  0.00    +0.248 C 
ENDROOT
BRANCH  12  13
ATOM      6  N   UNL     1      -4.090 -10.877  11.446  0.00  0.00    -0.263 NA
ATOM     13  C   UNL     1      -3.506 -11.788  13.608  0.00  0.00    +0.055 A 
ATOM     16  C   UNL     1      -2.197 -11.351  13.448  0.00  0.00    +0.016 A 
ATOM     17  C   UNL     1      -4.407 -11.529  12.587  0.00  0.00    +0.123 A 
ATOM     19  C   UNL     1      -1.833 -10.676  12.288  0.00  0.00    +0.020 A 
ATOM     22  C   UNL     1      -2.808 -10.468  11.325  0.00  0.00    +0.111 A 
ENDBRANCH  12  13
BRANCH   7  11
ATOM      1  O   UNL     1      -7.892  -9.467  17.701  0.00  0.00    -0.424 OA
ATOM      4  N   UNL     1      -7.731 -10.616  15.789  0.00  0.00    -0.112 NA
ATOM      5  N   UNL     1      -9.068 -10.347  16.015  0.00  0.00    -0.112 NA
ATOM     11  C   UNL     1      -7.082 -10.084  16.798  0.00  0.00    +0.222 A 
ATOM     14  C   UNL     1      -9.115  -9.675  17.141  0.00  0.00    +0.222 A 
BRANCH  14  15
ATOM     15  C   UNL     1     -10.274  -9.130  17.858  0.00  0.00    +0.132 C 
BRANCH  15  18
ATOM     18  C   UNL     1     -11.107  -8.132  17.060  0.00  0.00    -0.038 A 
ATOM     20  C   UNL     1     -10.536  -6.933  16.631  0.00  0.00    +0.004 A 
ATOM     21  C   UNL     1     -12.438  -8.417  16.758  0.00  0.00    +0.004 A 
ATOM     23  C   UNL     1     -11.296  -6.020  15.901  0.00  0.00    +0.000 A 
ATOM     24  C   UNL     1     -13.199  -7.504  16.028  0.00  0.00    +0.000 A 
ATOM     25  C   UNL     1     -12.628  -6.306  15.600  0.00  0.00    +0.000 A 
ENDBRANCH  15  18
ENDBRANCH  14  15
ENDBRANCH   7  11
TORSDOF 4
ENDMDL
