MODEL 1
REMARK VINA RESULT:      -6.9      0.000      0.000
REMARK  Name = 45783562
REMARK  10 active torsions:
REMARK  status: ('A' for Active; 'I' for Inactive)
REMARK    1  A    between atoms: O_2  and  C_16
REMARK    2  A    between atoms: O_3  and  C_26
REMARK    3  A    between atoms: O_3  and  C_27
REMARK    4  A    between atoms: O_4  and  C_28
REMARK    5  A    between atoms: O_4  and  C_29
REMARK    6  A    between atoms: N_5  and  C_13
REMARK    7  A    between atoms: C_9  and  C_14
REMARK    8  A    between atoms: C_13  and  C_15
REMARK    9  A    between atoms: C_18  and  C_21
REMARK   10  A    between atoms: C_27  and  C_28
REMARK                            x       y       z     vdW  Elec       q    Type
REMARK                         _______ _______ _______ _____ _____    ______ ____
ROOT
ATOM      1  O   UNL     1     -17.112   2.579  22.418  0.00  0.00    -0.336 OA
ATOM      6  N   UNL     1     -17.141   4.042  24.114  0.00  0.00    -0.190 NA
ATOM      7  N   UNL     1     -16.860   1.836  23.576  0.00  0.00    -0.056 NA
ATOM     14  C   UNL     1     -17.265   3.867  22.822  0.00  0.00    +0.245 A 
ATOM     18  C   UNL     1     -16.893   2.768  24.534  0.00  0.00    +0.204 A 
ENDROOT
BRANCH  18  21
ATOM      8  N   UNL     1     -16.670   0.815  27.691  0.00  0.00    -0.221 NA
ATOM     21  C   UNL     1     -16.680   2.459  25.919  0.00  0.00    +0.041 A 
ATOM     23  C   UNL     1     -16.296   3.445  26.822  0.00  0.00    +0.018 A 
ATOM     24  C   UNL     1     -16.852   1.171  26.401  0.00  0.00    +0.126 A 
ATOM     25  C   UNL     1     -16.097   3.117  28.158  0.00  0.00    +0.068 A 
ATOM     26  C   UNL     1     -16.297   1.800  28.539  0.00  0.00    +0.215 A 
BRANCH  26   3
ATOM      3  O   UNL     1     -16.108   1.451  29.851  0.00  0.00    -0.474 OA
BRANCH   3  27
ATOM     27  C   UNL     1     -15.311   0.300  30.099  0.00  0.00    +0.258 C 
BRANCH  27  28
ATOM     28  C   UNL     1     -13.850   0.703  30.113  0.00  0.00    +0.200 C 
BRANCH  28   4
ATOM      4  O   UNL     1     -13.046  -0.469  30.190  0.00  0.00    -0.380 OA
ATOM     29  C   UNL     1     -13.238  -1.308  29.059  0.00  0.00    +0.194 C 
ENDBRANCH  28   4
ENDBRANCH  27  28
ENDBRANCH   3  27
ENDBRANCH  26   3
ENDBRANCH  18  21
BRANCH  14   9
ATOM      5  N   UNL     1     -16.320   5.425  21.127  0.00  0.00    -0.287 NA
ATOM      9  C   UNL     1     -17.552   4.886  21.739  0.00  0.00    +0.146 C 
ATOM     10  C   UNL     1     -18.347   4.295  20.560  0.00  0.00    +0.030 C 
ATOM     11  C   UNL     1     -17.514   4.601  19.324  0.00  0.00    +0.017 C 
ATOM     12  C   UNL     1     -16.665   5.782  19.751  0.00  0.00    +0.085 C 
BRANCH   5  13
ATOM     13  C   UNL     1     -15.760   6.552  21.863  0.00  0.00    +0.124 C 
BRANCH  13  15
ATOM     15  C   UNL     1     -14.321   6.801  21.498  0.00  0.00    +0.008 A 
ATOM     16  C   UNL     1     -13.377   5.777  21.581  0.00  0.00    +0.121 A 
ATOM     17  C   UNL     1     -13.935   8.072  21.072  0.00  0.00    +0.008 A 
ATOM     19  C   UNL     1     -12.047   6.026  21.240  0.00  0.00    +0.046 A 
ATOM     20  C   UNL     1     -12.607   8.321  20.731  0.00  0.00    +0.001 A 
ATOM     22  C   UNL     1     -11.662   7.298  20.815  0.00  0.00    +0.004 A 
BRANCH  16   2
ATOM      2  O   UNL     1     -13.736   4.529  21.995  0.00  0.00    -0.506 OA
ATOM     30  H   UNL     1     -13.136   4.247  22.706  0.00  0.00    +0.292 HD
ENDBRANCH  16   2
ENDBRANCH  13  15
ENDBRANCH   5  13
ENDBRANCH  14   9
TORSDOF 9
ENDMDL
MODEL 2
REMARK VINA RESULT:      -6.9     28.654     32.047
REMARK  Name = 45783562
REMARK  10 active torsions:
REMARK  status: ('A' for Active; 'I' for Inactive)
REMARK    1  A    between atoms: O_2  and  C_16
REMARK    2  A    between atoms: O_3  and  C_26
REMARK    3  A    between atoms: O_3  and  C_27
REMARK    4  A    between atoms: O_4  and  C_28
REMARK    5  A    between atoms: O_4  and  C_29
REMARK    6  A    between atoms: N_5  and  C_13
REMARK    7  A    between atoms: C_9  and  C_14
REMARK    8  A    between atoms: C_13  and  C_15
REMARK    9  A    between atoms: C_18  and  C_21
REMARK   10  A    between atoms: C_27  and  C_28
REMARK                            x       y       z     vdW  Elec       q    Type
REMARK                         _______ _______ _______ _____ _____    ______ ____
ROOT
ATOM      1  O   UNL     1      13.925   6.721  20.062  0.00  0.00    -0.336 OA
ATOM      6  N   UNL     1      15.700   7.527  18.959  0.00  0.00    -0.190 NA
ATOM      7  N   UNL     1      15.024   6.541  20.910  0.00  0.00    -0.056 NA
ATOM     14  C   UNL     1      14.410   7.307  18.936  0.00  0.00    +0.245 A 
ATOM     18  C   UNL     1      16.033   7.041  20.189  0.00  0.00    +0.204 A 
ENDROOT
BRANCH  18  21
ATOM      8  N   UNL     1      19.065   8.116  22.054  0.00  0.00    -0.221 NA
ATOM     21  C   UNL     1      17.386   7.067  20.669  0.00  0.00    +0.041 A 
ATOM     23  C   UNL     1      18.313   6.121  20.248  0.00  0.00    +0.018 A 
ATOM     24  C   UNL     1      17.808   8.035  21.565  0.00  0.00    +0.126 A 
ATOM     25  C   UNL     1      19.617   6.171  20.729  0.00  0.00    +0.068 A 
ATOM     26  C   UNL     1      19.940   7.180  21.622  0.00  0.00    +0.215 A 
BRANCH  26   3
ATOM      3  O   UNL     1      21.218   7.252  22.110  0.00  0.00    -0.474 OA
BRANCH   3  27
ATOM     27  C   UNL     1      21.457   6.640  23.372  0.00  0.00    +0.258 C 
BRANCH  27  28
ATOM     28  C   UNL     1      22.419   5.483  23.186  0.00  0.00    +0.200 C 
BRANCH  28   4
ATOM      4  O   UNL     1      21.673   4.287  22.986  0.00  0.00    -0.380 OA
ATOM     29  C   UNL     1      22.208   3.513  21.921  0.00  0.00    +0.194 C 
ENDBRANCH  28   4
ENDBRANCH  27  28
ENDBRANCH   3  27
ENDBRANCH  26   3
ENDBRANCH  18  21
BRANCH  14   9
ATOM      5  N   UNL     1      12.552   8.775  18.169  0.00  0.00    -0.287 NA
ATOM      9  C   UNL     1      13.403   7.612  17.847  0.00  0.00    +0.146 C 
ATOM     10  C   UNL     1      14.068   7.975  16.506  0.00  0.00    +0.030 C 
ATOM     11  C   UNL     1      13.485   9.329  16.126  0.00  0.00    +0.017 C 
ATOM     12  C   UNL     1      12.178   9.381  16.891  0.00  0.00    +0.085 C 
BRANCH   5  13
ATOM     13  C   UNL     1      11.387   8.428  18.973  0.00  0.00    +0.124 C 
BRANCH  13  15
ATOM     15  C   UNL     1      11.431   9.072  20.332  0.00  0.00    +0.008 A 
ATOM     16  C   UNL     1      10.794   8.480  21.423  0.00  0.00    +0.121 A 
ATOM     17  C   UNL     1      12.118  10.275  20.495  0.00  0.00    +0.008 A 
ATOM     19  C   UNL     1      10.843   9.092  22.676  0.00  0.00    +0.046 A 
ATOM     20  C   UNL     1      12.167  10.887  21.747  0.00  0.00    +0.001 A 
ATOM     22  C   UNL     1      11.531  10.295  22.838  0.00  0.00    +0.004 A 
BRANCH  16   2
ATOM      2  O   UNL     1      10.117   7.305  21.282  0.00  0.00    -0.506 OA
ATOM     30  H   UNL     1       9.270   7.369  21.755  0.00  0.00    +0.292 HD
ENDBRANCH  16   2
ENDBRANCH  13  15
ENDBRANCH   5  13
ENDBRANCH  14   9
TORSDOF 9
ENDMDL
MODEL 3
REMARK VINA RESULT:      -6.4     17.649     19.589
REMARK  Name = 45783562
REMARK  10 active torsions:
REMARK  status: ('A' for Active; 'I' for Inactive)
REMARK    1  A    between atoms: O_2  and  C_16
REMARK    2  A    between atoms: O_3  and  C_26
REMARK    3  A    between atoms: O_3  and  C_27
REMARK    4  A    between atoms: O_4  and  C_28
REMARK    5  A    between atoms: O_4  and  C_29
REMARK    6  A    between atoms: N_5  and  C_13
REMARK    7  A    between atoms: C_9  and  C_14
REMARK    8  A    between atoms: C_13  and  C_15
REMARK    9  A    between atoms: C_18  and  C_21
REMARK   10  A    between atoms: C_27  and  C_28
REMARK                            x       y       z     vdW  Elec       q    Type
REMARK                         _______ _______ _______ _____ _____    ______ ____
ROOT
ATOM      1  O   UNL     1      -5.446 -11.811  16.869  0.00  0.00    -0.336 OA
ATOM      6  N   UNL     1      -5.782 -10.028  15.555  0.00  0.00    -0.190 NA
ATOM      7  N   UNL     1      -6.720 -11.326  17.189  0.00  0.00    -0.056 NA
ATOM     14  C   UNL     1      -4.964 -10.990  15.899  0.00  0.00    +0.245 A 
ATOM     18  C   UNL     1      -6.846 -10.275  16.373  0.00  0.00    +0.204 A 
ENDROOT
BRANCH  18  21
ATOM      8  N   UNL     1      -9.822  -8.455  15.085  0.00  0.00    -0.221 NA
ATOM     21  C   UNL     1      -8.021  -9.451  16.352  0.00  0.00    +0.041 A 
ATOM     23  C   UNL     1      -8.500  -8.858  17.514  0.00  0.00    +0.018 A 
ATOM     24  C   UNL     1      -8.712  -9.220  15.173  0.00  0.00    +0.126 A 
ATOM     25  C   UNL     1      -9.641  -8.064  17.463  0.00  0.00    +0.068 A 
ATOM     26  C   UNL     1     -10.259  -7.895  16.235  0.00  0.00    +0.215 A 
BRANCH  26   3
ATOM      3  O   UNL     1     -11.384  -7.117  16.158  0.00  0.00    -0.474 OA
BRANCH   3  27
ATOM     27  C   UNL     1     -11.361  -6.048  15.220  0.00  0.00    +0.258 C 
BRANCH  27  28
ATOM     28  C   UNL     1     -12.768  -5.808  14.708  0.00  0.00    +0.200 C 
BRANCH  28   4
ATOM      4  O   UNL     1     -12.723  -5.622  13.298  0.00  0.00    -0.380 OA
ATOM     29  C   UNL     1     -12.332  -4.299  12.960  0.00  0.00    +0.194 C 
ENDBRANCH  28   4
ENDBRANCH  27  28
ENDBRANCH   3  27
ENDBRANCH  26   3
ENDBRANCH  18  21
BRANCH  14   9
ATOM      5  N   UNL     1      -3.260 -10.567  14.135  0.00  0.00    -0.287 NA
ATOM      9  C   UNL     1      -3.580 -11.306  15.374  0.00  0.00    +0.146 C 
ATOM     10  C   UNL     1      -2.464 -10.915  16.361  0.00  0.00    +0.030 C 
ATOM     11  C   UNL     1      -1.534 -10.004  15.571  0.00  0.00    +0.017 C 
ATOM     12  C   UNL     1      -1.809 -10.380  14.128  0.00  0.00    +0.085 C 
BRANCH   5  13
ATOM     13  C   UNL     1      -3.733 -11.236  12.930  0.00  0.00    +0.124 C 
BRANCH  13  15
ATOM     15  C   UNL     1      -4.031 -10.258  11.826  0.00  0.00    +0.008 A 
ATOM     16  C   UNL     1      -5.227  -9.540  11.812  0.00  0.00    +0.121 A 
ATOM     17  C   UNL     1      -3.096 -10.073  10.807  0.00  0.00    +0.008 A 
ATOM     19  C   UNL     1      -5.488  -8.639  10.780  0.00  0.00    +0.046 A 
ATOM     20  C   UNL     1      -3.356  -9.172   9.776  0.00  0.00    +0.001 A 
ATOM     22  C   UNL     1      -4.552  -8.454   9.762  0.00  0.00    +0.004 A 
BRANCH  16   2
ATOM      2  O   UNL     1      -6.153  -9.709  12.798  0.00  0.00    -0.506 OA
ATOM     30  H   UNL     1      -6.121 -10.630  13.107  0.00  0.00    +0.292 HD
ENDBRANCH  16   2
ENDBRANCH  13  15
ENDBRANCH   5  13
ENDBRANCH  14   9
TORSDOF 9
ENDMDL
MODEL 4
REMARK VINA RESULT:      -6.3     32.944     36.495
REMARK  Name = 45783562
REMARK  10 active torsions:
REMARK  status: ('A' for Active; 'I' for Inactive)
REMARK    1  A    between atoms: O_2  and  C_16
REMARK    2  A    between atoms: O_3  and  C_26
REMARK    3  A    between atoms: O_3  and  C_27
REMARK    4  A    between atoms: O_4  and  C_28
REMARK    5  A    between atoms: O_4  and  C_29
REMARK    6  A    between atoms: N_5  and  C_13
REMARK    7  A    between atoms: C_9  and  C_14
REMARK    8  A    between atoms: C_13  and  C_15
REMARK    9  A    between atoms: C_18  and  C_21
REMARK   10  A    between atoms: C_27  and  C_28
REMARK                            x       y       z     vdW  Elec       q    Type
REMARK                         _______ _______ _______ _____ _____    ______ ____
ROOT
ATOM      1  O   UNL     1      21.819   6.635  21.488  0.00  0.00    -0.336 OA
ATOM      6  N   UNL     1      19.873   6.264  22.533  0.00  0.00    -0.190 NA
ATOM      7  N   UNL     1      20.818   6.834  20.529  0.00  0.00    -0.056 NA
ATOM     14  C   UNL     1      21.177   6.302  22.639  0.00  0.00    +0.245 A 
ATOM     18  C   UNL     1      19.700   6.597  21.222  0.00  0.00    +0.204 A 
ENDROOT
BRANCH  18  21
ATOM      8  N   UNL     1      16.203   7.705  20.605  0.00  0.00    -0.221 NA
ATOM     21  C   UNL     1      18.394   6.684  20.632  0.00  0.00    +0.041 A 
ATOM     23  C   UNL     1      18.038   5.875  19.559  0.00  0.00    +0.018 A 
ATOM     24  C   UNL     1      17.448   7.575  21.114  0.00  0.00    +0.126 A 
ATOM     25  C   UNL     1      16.766   5.981  19.008  0.00  0.00    +0.068 A 
ATOM     26  C   UNL     1      15.893   6.902  19.563  0.00  0.00    +0.215 A 
BRANCH  26   3
ATOM      3  O   UNL     1      14.633   7.025  19.039  0.00  0.00    -0.474 OA
BRANCH   3  27
ATOM     27  C   UNL     1      13.549   6.976  19.958  0.00  0.00    +0.258 C 
BRANCH  27  28
ATOM     28  C   UNL     1      12.612   8.135  19.679  0.00  0.00    +0.200 C 
BRANCH  28   4
ATOM      4  O   UNL     1      11.624   7.718  18.743  0.00  0.00    -0.380 OA
ATOM     29  C   UNL     1      11.692   8.474  17.543  0.00  0.00    +0.194 C 
ENDBRANCH  28   4
ENDBRANCH  27  28
ENDBRANCH   3  27
ENDBRANCH  26   3
ENDBRANCH  18  21
BRANCH  14   9
ATOM      5  N   UNL     1      23.079   5.003  23.582  0.00  0.00    -0.287 NA
ATOM      9  C   UNL     1      22.051   6.031  23.845  0.00  0.00    +0.146 C 
ATOM     10  C   UNL     1      22.845   7.271  24.296  0.00  0.00    +0.030 C 
ATOM     11  C   UNL     1      24.301   6.827  24.313  0.00  0.00    +0.017 C 
ATOM     12  C   UNL     1      24.212   5.320  24.452  0.00  0.00    +0.085 C 
BRANCH   5  13
ATOM     13  C   UNL     1      22.595   3.643  23.785  0.00  0.00    +0.124 C 
BRANCH  13  15
ATOM     15  C   UNL     1      23.352   2.648  22.949  0.00  0.00    +0.008 A 
ATOM     16  C   UNL     1      23.302   2.701  21.556  0.00  0.00    +0.121 A 
ATOM     17  C   UNL     1      24.111   1.662  23.582  0.00  0.00    +0.008 A 
ATOM     19  C   UNL     1      24.009   1.769  20.796  0.00  0.00    +0.046 A 
ATOM     20  C   UNL     1      24.817   0.730  22.823  0.00  0.00    +0.001 A 
ATOM     22  C   UNL     1      24.767   0.784  21.430  0.00  0.00    +0.004 A 
BRANCH  16   2
ATOM      2  O   UNL     1      22.566   3.656  20.921  0.00  0.00    -0.506 OA
ATOM     30  H   UNL     1      21.916   4.021  21.545  0.00  0.00    +0.292 HD
ENDBRANCH  16   2
ENDBRANCH  13  15
ENDBRANCH   5  13
ENDBRANCH  14   9
TORSDOF 9
ENDMDL
MODEL 5
REMARK VINA RESULT:      -6.3     17.796     19.524
REMARK  Name = 45783562
REMARK  10 active torsions:
REMARK  status: ('A' for Active; 'I' for Inactive)
REMARK    1  A    between atoms: O_2  and  C_16
REMARK    2  A    between atoms: O_3  and  C_26
REMARK    3  A    between atoms: O_3  and  C_27
REMARK    4  A    between atoms: O_4  and  C_28
REMARK    5  A    between atoms: O_4  and  C_29
REMARK    6  A    between atoms: N_5  and  C_13
REMARK    7  A    between atoms: C_9  and  C_14
REMARK    8  A    between atoms: C_13  and  C_15
REMARK    9  A    between atoms: C_18  and  C_21
REMARK   10  A    between atoms: C_27  and  C_28
REMARK                            x       y       z     vdW  Elec       q    Type
REMARK                         _______ _______ _______ _____ _____    ______ ____
ROOT
ATOM      1  O   UNL     1      -5.035  -9.700  15.788  0.00  0.00    -0.336 OA
ATOM      6  N   UNL     1      -5.166 -11.621  16.933  0.00  0.00    -0.190 NA
ATOM      7  N   UNL     1      -6.233  -9.642  16.510  0.00  0.00    -0.056 NA
ATOM     14  C   UNL     1      -4.469 -10.897  16.094  0.00  0.00    +0.245 A 
ATOM     18  C   UNL     1      -6.240 -10.810  17.160  0.00  0.00    +0.204 A 
ENDROOT
BRANCH  18  21
ATOM      8  N   UNL     1      -9.528 -10.792  18.897  0.00  0.00    -0.221 NA
ATOM     21  C   UNL     1      -7.304 -11.196  18.042  0.00  0.00    +0.041 A 
ATOM     23  C   UNL     1      -7.176 -12.301  18.876  0.00  0.00    +0.018 A 
ATOM     24  C   UNL     1      -8.490 -10.481  18.090  0.00  0.00    +0.126 A 
ATOM     25  C   UNL     1      -8.224 -12.652  19.721  0.00  0.00    +0.068 A 
ATOM     26  C   UNL     1      -9.367 -11.872  19.694  0.00  0.00    +0.215 A 
BRANCH  26   3
ATOM      3  O   UNL     1     -10.413 -12.196  20.517  0.00  0.00    -0.474 OA
BRANCH   3  27
ATOM     27  C   UNL     1     -11.670 -11.598  20.223  0.00  0.00    +0.258 C 
BRANCH  27  28
ATOM     28  C   UNL     1     -12.726 -12.188  21.137  0.00  0.00    +0.200 C 
BRANCH  28   4
ATOM      4  O   UNL     1     -13.610 -11.154  21.554  0.00  0.00    -0.380 OA
ATOM     29  C   UNL     1     -13.546 -10.033  20.684  0.00  0.00    +0.194 C 
ENDBRANCH  28   4
ENDBRANCH  27  28
ENDBRANCH   3  27
ENDBRANCH  26   3
ENDBRANCH  18  21
BRANCH  14   9
ATOM      5  N   UNL     1      -2.966 -10.485  14.154  0.00  0.00    -0.287 NA
ATOM      9  C   UNL     1      -3.144 -11.206  15.431  0.00  0.00    +0.146 C 
ATOM     10  C   UNL     1      -1.936 -10.785  16.288  0.00  0.00    +0.030 C 
ATOM     11  C   UNL     1      -1.107  -9.877  15.390  0.00  0.00    +0.017 C 
ATOM     12  C   UNL     1      -1.526 -10.282  13.991  0.00  0.00    +0.085 C 
BRANCH   5  13
ATOM     13  C   UNL     1      -3.554 -11.182  13.016  0.00  0.00    +0.124 C 
BRANCH  13  15
ATOM     15  C   UNL     1      -4.033 -10.224  11.959  0.00  0.00    +0.008 A 
ATOM     16  C   UNL     1      -5.239  -9.539  12.110  0.00  0.00    +0.121 A 
ATOM     17  C   UNL     1      -3.257 -10.024  10.817  0.00  0.00    +0.008 A 
ATOM     19  C   UNL     1      -5.669  -8.657  11.119  0.00  0.00    +0.046 A 
ATOM     20  C   UNL     1      -3.686  -9.141   9.827  0.00  0.00    +0.001 A 
ATOM     22  C   UNL     1      -4.892  -8.457   9.978  0.00  0.00    +0.004 A 
BRANCH  16   2
ATOM      2  O   UNL     1      -6.011  -9.723  13.218  0.00  0.00    -0.506 OA
ATOM     30  H   UNL     1      -6.224 -10.668  13.302  0.00  0.00    +0.292 HD
ENDBRANCH  16   2
ENDBRANCH  13  15
ENDBRANCH   5  13
ENDBRANCH  14   9
TORSDOF 9
ENDMDL
MODEL 6
REMARK VINA RESULT:      -6.3     27.164     30.595
REMARK  Name = 45783562
REMARK  10 active torsions:
REMARK  status: ('A' for Active; 'I' for Inactive)
REMARK    1  A    between atoms: O_2  and  C_16
REMARK    2  A    between atoms: O_3  and  C_26
REMARK    3  A    between atoms: O_3  and  C_27
REMARK    4  A    between atoms: O_4  and  C_28
REMARK    5  A    between atoms: O_4  and  C_29
REMARK    6  A    between atoms: N_5  and  C_13
REMARK    7  A    between atoms: C_9  and  C_14
REMARK    8  A    between atoms: C_13  and  C_15
REMARK    9  A    between atoms: C_18  and  C_21
REMARK   10  A    between atoms: C_27  and  C_28
REMARK                            x       y       z     vdW  Elec       q    Type
REMARK                         _______ _______ _______ _____ _____    ______ ____
ROOT
ATOM      1  O   UNL     1      14.483   7.754  19.869  0.00  0.00    -0.336 OA
ATOM      6  N   UNL     1      12.938   9.251  19.246  0.00  0.00    -0.190 NA
ATOM      7  N   UNL     1      14.892   8.238  18.621  0.00  0.00    -0.056 NA
ATOM     14  C   UNL     1      13.325   8.402  20.164  0.00  0.00    +0.245 A 
ATOM     18  C   UNL     1      13.930   9.117  18.320  0.00  0.00    +0.204 A 
ENDROOT
BRANCH  18  21
ATOM      8  N   UNL     1      13.002  10.248  14.900  0.00  0.00    -0.221 NA
ATOM     21  C   UNL     1      13.931   9.874  17.100  0.00  0.00    +0.041 A 
ATOM     23  C   UNL     1      14.816  10.930  16.914  0.00  0.00    +0.018 A 
ATOM     24  C   UNL     1      13.052   9.575  16.072  0.00  0.00    +0.126 A 
ATOM     25  C   UNL     1      14.794  11.646  15.723  0.00  0.00    +0.068 A 
ATOM     26  C   UNL     1      13.878  11.268  14.756  0.00  0.00    +0.215 A 
BRANCH  26   3
ATOM      3  O   UNL     1      13.837  11.957  13.572  0.00  0.00    -0.474 OA
BRANCH   3  27
ATOM     27  C   UNL     1      12.550  12.310  13.080  0.00  0.00    +0.258 C 
BRANCH  27  28
ATOM     28  C   UNL     1      12.673  12.731  11.629  0.00  0.00    +0.200 C 
BRANCH  28   4
ATOM      4  O   UNL     1      12.254  11.656  10.796  0.00  0.00    -0.380 OA
ATOM     29  C   UNL     1      11.036  11.957  10.130  0.00  0.00    +0.194 C 
ENDBRANCH  28   4
ENDBRANCH  27  28
ENDBRANCH   3  27
ENDBRANCH  26   3
ENDBRANCH  18  21
BRANCH  14   9
ATOM      5  N   UNL     1      11.797   9.128  21.989  0.00  0.00    -0.287 NA
ATOM      9  C   UNL     1      12.670   8.049  21.483  0.00  0.00    +0.146 C 
ATOM     10  C   UNL     1      11.751   6.818  21.382  0.00  0.00    +0.030 C 
ATOM     11  C   UNL     1      10.401   7.284  21.907  0.00  0.00    +0.017 C 
ATOM     12  C   UNL     1      10.750   8.476  22.776  0.00  0.00    +0.085 C 
BRANCH   5  13
ATOM     13  C   UNL     1      12.516  10.134  22.759  0.00  0.00    +0.124 C 
BRANCH  13  15
ATOM     15  C   UNL     1      11.693  11.377  22.966  0.00  0.00    +0.008 A 
ATOM     16  C   UNL     1      11.228  11.721  24.236  0.00  0.00    +0.121 A 
ATOM     17  C   UNL     1      11.395  12.189  21.872  0.00  0.00    +0.008 A 
ATOM     19  C   UNL     1      10.464  12.875  24.410  0.00  0.00    +0.046 A 
ATOM     20  C   UNL     1      10.633  13.343  22.045  0.00  0.00    +0.001 A 
ATOM     22  C   UNL     1      10.167  13.687  23.315  0.00  0.00    +0.004 A 
BRANCH  16   2
ATOM      2  O   UNL     1      11.508  10.939  25.316  0.00  0.00    -0.506 OA
ATOM     30  H   UNL     1      10.964  10.134  25.274  0.00  0.00    +0.292 HD
ENDBRANCH  16   2
ENDBRANCH  13  15
ENDBRANCH   5  13
ENDBRANCH  14   9
TORSDOF 9
ENDMDL
MODEL 7
REMARK VINA RESULT:      -6.2     28.991     32.317
REMARK  Name = 45783562
REMARK  10 active torsions:
REMARK  status: ('A' for Active; 'I' for Inactive)
REMARK    1  A    between atoms: O_2  and  C_16
REMARK    2  A    between atoms: O_3  and  C_26
REMARK    3  A    between atoms: O_3  and  C_27
REMARK    4  A    between atoms: O_4  and  C_28
REMARK    5  A    between atoms: O_4  and  C_29
REMARK    6  A    between atoms: N_5  and  C_13
REMARK    7  A    between atoms: C_9  and  C_14
REMARK    8  A    between atoms: C_13  and  C_15
REMARK    9  A    between atoms: C_18  and  C_21
REMARK   10  A    between atoms: C_27  and  C_28
REMARK                            x       y       z     vdW  Elec       q    Type
REMARK                         _______ _______ _______ _____ _____    ______ ____
ROOT
ATOM      1  O   UNL     1      15.058   6.206  18.561  0.00  0.00    -0.336 OA
ATOM      6  N   UNL     1      15.305   7.336  20.480  0.00  0.00    -0.190 NA
ATOM      7  N   UNL     1      16.424   6.162  18.866  0.00  0.00    -0.056 NA
ATOM     14  C   UNL     1      14.472   6.915  19.561  0.00  0.00    +0.245 A 
ATOM     18  C   UNL     1      16.490   6.850  20.010  0.00  0.00    +0.204 A 
ENDROOT
BRANCH  18  21
ATOM      8  N   UNL     1      19.019   8.420  22.239  0.00  0.00    -0.221 NA
ATOM     21  C   UNL     1      17.724   7.070  20.708  0.00  0.00    +0.041 A 
ATOM     23  C   UNL     1      18.798   6.200  20.556  0.00  0.00    +0.018 A 
ATOM     24  C   UNL     1      17.884   8.155  21.555  0.00  0.00    +0.126 A 
ATOM     25  C   UNL     1      19.982   6.439  21.245  0.00  0.00    +0.068 A 
ATOM     26  C   UNL     1      20.041   7.553  22.065  0.00  0.00    +0.215 A 
BRANCH  26   3
ATOM      3  O   UNL     1      21.197   7.810  22.755  0.00  0.00    -0.474 OA
BRANCH   3  27
ATOM     27  C   UNL     1      22.122   6.737  22.879  0.00  0.00    +0.258 C 
BRANCH  27  28
ATOM     28  C   UNL     1      22.082   6.211  24.301  0.00  0.00    +0.200 C 
BRANCH  28   4
ATOM      4  O   UNL     1      22.093   4.788  24.270  0.00  0.00    -0.380 OA
ATOM     29  C   UNL     1      22.478   4.298  22.993  0.00  0.00    +0.194 C 
ENDBRANCH  28   4
ENDBRANCH  27  28
ENDBRANCH   3  27
ENDBRANCH  26   3
ENDBRANCH  18  21
BRANCH  14   9
ATOM      5  N   UNL     1      12.512   8.331  20.151  0.00  0.00    -0.287 NA
ATOM      9  C   UNL     1      12.973   7.108  19.464  0.00  0.00    +0.146 C 
ATOM     10  C   UNL     1      12.487   7.270  18.011  0.00  0.00    +0.030 C 
ATOM     11  C   UNL     1      11.713   8.581  17.994  0.00  0.00    +0.017 C 
ATOM     12  C   UNL     1      11.312   8.777  19.443  0.00  0.00    +0.085 C 
BRANCH   5  13
ATOM     13  C   UNL     1      12.267   8.131  21.574  0.00  0.00    +0.124 C 
BRANCH  13  15
ATOM     15  C   UNL     1      12.212   9.435  22.323  0.00  0.00    +0.008 A 
ATOM     16  C   UNL     1      13.334  10.259  22.404  0.00  0.00    +0.121 A 
ATOM     17  C   UNL     1      11.021   9.817  22.941  0.00  0.00    +0.008 A 
ATOM     19  C   UNL     1      13.266  11.463  23.104  0.00  0.00    +0.046 A 
ATOM     20  C   UNL     1      10.952  11.021  23.640  0.00  0.00    +0.001 A 
ATOM     22  C   UNL     1      12.075  11.845  23.722  0.00  0.00    +0.004 A 
BRANCH  16   2
ATOM      2  O   UNL     1      14.506   9.901  21.808  0.00  0.00    -0.506 OA
ATOM     30  H   UNL     1      15.041   9.393  22.441  0.00  0.00    +0.292 HD
ENDBRANCH  16   2
ENDBRANCH  13  15
ENDBRANCH   5  13
ENDBRANCH  14   9
TORSDOF 9
ENDMDL
MODEL 8
REMARK VINA RESULT:      -6.2     17.201     19.768
REMARK  Name = 45783562
REMARK  10 active torsions:
REMARK  status: ('A' for Active; 'I' for Inactive)
REMARK    1  A    between atoms: O_2  and  C_16
REMARK    2  A    between atoms: O_3  and  C_26
REMARK    3  A    between atoms: O_3  and  C_27
REMARK    4  A    between atoms: O_4  and  C_28
REMARK    5  A    between atoms: O_4  and  C_29
REMARK    6  A    between atoms: N_5  and  C_13
REMARK    7  A    between atoms: C_9  and  C_14
REMARK    8  A    between atoms: C_13  and  C_15
REMARK    9  A    between atoms: C_18  and  C_21
REMARK   10  A    between atoms: C_27  and  C_28
REMARK                            x       y       z     vdW  Elec       q    Type
REMARK                         _______ _______ _______ _____ _____    ______ ____
ROOT
ATOM      1  O   UNL     1      -6.564 -11.268  20.091  0.00  0.00    -0.336 OA
ATOM      6  N   UNL     1      -7.060 -11.648  17.940  0.00  0.00    -0.190 NA
ATOM      7  N   UNL     1      -5.416 -10.936  19.362  0.00  0.00    -0.056 NA
ATOM     14  C   UNL     1      -7.484 -11.678  19.179  0.00  0.00    +0.245 A 
ATOM     18  C   UNL     1      -5.787 -11.187  18.103  0.00  0.00    +0.204 A 
ENDROOT
BRANCH  18  21
ATOM      8  N   UNL     1      -4.636 -10.482  14.637  0.00  0.00    -0.221 NA
ATOM     21  C   UNL     1      -4.909 -10.988  16.985  0.00  0.00    +0.041 A 
ATOM     23  C   UNL     1      -3.530 -11.099  17.129  0.00  0.00    +0.018 A 
ATOM     24  C   UNL     1      -5.407 -10.680  15.729  0.00  0.00    +0.126 A 
ATOM     25  C   UNL     1      -2.704 -10.901  16.028  0.00  0.00    +0.068 A 
ATOM     26  C   UNL     1      -3.301 -10.599  14.815  0.00  0.00    +0.215 A 
BRANCH  26   3
ATOM      3  O   UNL     1      -2.509 -10.400  13.715  0.00  0.00    -0.474 OA
BRANCH   3  27
ATOM     27  C   UNL     1      -2.310 -11.517  12.858  0.00  0.00    +0.258 C 
BRANCH  27  28
ATOM     28  C   UNL     1      -2.809 -11.170  11.469  0.00  0.00    +0.200 C 
BRANCH  28   4
ATOM      4  O   UNL     1      -2.452  -9.826  11.170  0.00  0.00    -0.380 OA
ATOM     29  C   UNL     1      -3.316  -9.263  10.192  0.00  0.00    +0.194 C 
ENDBRANCH  28   4
ENDBRANCH  27  28
ENDBRANCH   3  27
ENDBRANCH  26   3
ENDBRANCH  18  21
BRANCH  14   9
ATOM      5  N   UNL     1      -9.957 -11.546  18.939  0.00  0.00    -0.287 NA
ATOM      9  C   UNL     1      -8.833 -12.098  19.722  0.00  0.00    +0.146 C 
ATOM     10  C   UNL     1      -9.042 -13.623  19.683  0.00  0.00    +0.030 C 
ATOM     11  C   UNL     1     -10.337 -13.828  18.910  0.00  0.00    +0.017 C 
ATOM     12  C   UNL     1     -11.057 -12.503  19.063  0.00  0.00    +0.085 C 
BRANCH   5  13
ATOM     13  C   UNL     1     -10.346 -10.206  19.360  0.00  0.00    +0.124 C 
BRANCH  13  15
ATOM     15  C   UNL     1     -10.681  -9.324  18.187  0.00  0.00    +0.008 A 
ATOM     16  C   UNL     1      -9.676  -8.662  17.482  0.00  0.00    +0.121 A 
ATOM     17  C   UNL     1     -12.015  -9.172  17.807  0.00  0.00    +0.008 A 
ATOM     19  C   UNL     1     -10.005  -7.847  16.399  0.00  0.00    +0.046 A 
ATOM     20  C   UNL     1     -12.344  -8.358  16.724  0.00  0.00    +0.001 A 
ATOM     22  C   UNL     1     -11.338  -7.696  16.019  0.00  0.00    +0.004 A 
BRANCH  16   2
ATOM      2  O   UNL     1      -8.368  -8.799  17.840  0.00  0.00    -0.506 OA
ATOM     30  H   UNL     1      -8.142  -8.105  18.483  0.00  0.00    +0.292 HD
ENDBRANCH  16   2
ENDBRANCH  13  15
ENDBRANCH   5  13
ENDBRANCH  14   9
TORSDOF 9
ENDMDL
MODEL 9
REMARK VINA RESULT:      -6.1     18.124     19.805
REMARK  Name = 45783562
REMARK  10 active torsions:
REMARK  status: ('A' for Active; 'I' for Inactive)
REMARK    1  A    between atoms: O_2  and  C_16
REMARK    2  A    between atoms: O_3  and  C_26
REMARK    3  A    between atoms: O_3  and  C_27
REMARK    4  A    between atoms: O_4  and  C_28
REMARK    5  A    between atoms: O_4  and  C_29
REMARK    6  A    between atoms: N_5  and  C_13
REMARK    7  A    between atoms: C_9  and  C_14
REMARK    8  A    between atoms: C_13  and  C_15
REMARK    9  A    between atoms: C_18  and  C_21
REMARK   10  A    between atoms: C_27  and  C_28
REMARK                            x       y       z     vdW  Elec       q    Type
REMARK                         _______ _______ _______ _____ _____    ______ ____
ROOT
ATOM      1  O   UNL     1      -4.349 -12.325  17.072  0.00  0.00    -0.336 OA
ATOM      6  N   UNL     1      -5.180 -10.525  16.029  0.00  0.00    -0.190 NA
ATOM      7  N   UNL     1      -5.608 -12.094  17.639  0.00  0.00    -0.056 NA
ATOM     14  C   UNL     1      -4.175 -11.357  16.134  0.00  0.00    +0.245 A 
ATOM     18  C   UNL     1      -6.035 -11.016  16.972  0.00  0.00    +0.204 A 
ENDROOT
BRANCH  18  21
ATOM      8  N   UNL     1      -9.388 -10.400  18.458  0.00  0.00    -0.221 NA
ATOM     21  C   UNL     1      -7.309 -10.407  17.224  0.00  0.00    +0.041 A 
ATOM     23  C   UNL     1      -7.714  -9.276  16.523  0.00  0.00    +0.018 A 
ATOM     24  C   UNL     1      -8.176 -10.925  18.173  0.00  0.00    +0.126 A 
ATOM     25  C   UNL     1      -8.954  -8.707  16.788  0.00  0.00    +0.068 A 
ATOM     26  C   UNL     1      -9.747  -9.303  17.755  0.00  0.00    +0.215 A 
BRANCH  26   3
ATOM      3  O   UNL     1     -10.974  -8.761  18.035  0.00  0.00    -0.474 OA
BRANCH   3  27
ATOM     27  C   UNL     1     -12.039  -9.675  18.270  0.00  0.00    +0.258 C 
BRANCH  27  28
ATOM     28  C   UNL     1     -12.843  -9.837  16.995  0.00  0.00    +0.200 C 
BRANCH  28   4
ATOM      4  O   UNL     1     -12.474 -11.059  16.366  0.00  0.00    -0.380 OA
ATOM     29  C   UNL     1     -11.860 -10.831  15.105  0.00  0.00    +0.194 C 
ENDBRANCH  28   4
ENDBRANCH  27  28
ENDBRANCH   3  27
ENDBRANCH  26   3
ENDBRANCH  18  21
BRANCH  14   9
ATOM      5  N   UNL     1      -2.910 -10.558  14.146  0.00  0.00    -0.287 NA
ATOM      9  C   UNL     1      -2.870 -11.388  15.367  0.00  0.00    +0.146 C 
ATOM     10  C   UNL     1      -1.687 -10.829  16.180  0.00  0.00    +0.030 C 
ATOM     11  C   UNL     1      -1.090  -9.732  15.311  0.00  0.00    +0.017 C 
ATOM     12  C   UNL     1      -1.539 -10.101  13.912  0.00  0.00    +0.085 C 
BRANCH   5  13
ATOM     13  C   UNL     1      -3.458 -11.261  12.993  0.00  0.00    +0.124 C 
BRANCH  13  15
ATOM     15  C   UNL     1      -3.953 -10.309  11.938  0.00  0.00    +0.008 A 
ATOM     16  C   UNL     1      -5.134  -9.590  12.123  0.00  0.00    +0.121 A 
ATOM     17  C   UNL     1      -3.217 -10.148  10.764  0.00  0.00    +0.008 A 
ATOM     19  C   UNL     1      -5.579  -8.713  11.135  0.00  0.00    +0.046 A 
ATOM     20  C   UNL     1      -3.661  -9.271   9.775  0.00  0.00    +0.001 A 
ATOM     22  C   UNL     1      -4.842  -8.552   9.961  0.00  0.00    +0.004 A 
BRANCH  16   2
ATOM      2  O   UNL     1      -5.866  -9.735  13.264  0.00  0.00    -0.506 OA
ATOM     30  H   UNL     1      -5.778  -8.929  13.801  0.00  0.00    +0.292 HD
ENDBRANCH  16   2
ENDBRANCH  13  15
ENDBRANCH   5  13
ENDBRANCH  14   9
TORSDOF 9
ENDMDL
MODEL 10
REMARK VINA RESULT:      -6.0      2.026      8.929
REMARK  Name = 45783562
REMARK  10 active torsions:
REMARK  status: ('A' for Active; 'I' for Inactive)
REMARK    1  A    between atoms: O_2  and  C_16
REMARK    2  A    between atoms: O_3  and  C_26
REMARK    3  A    between atoms: O_3  and  C_27
REMARK    4  A    between atoms: O_4  and  C_28
REMARK    5  A    between atoms: O_4  and  C_29
REMARK    6  A    between atoms: N_5  and  C_13
REMARK    7  A    between atoms: C_9  and  C_14
REMARK    8  A    between atoms: C_13  and  C_15
REMARK    9  A    between atoms: C_18  and  C_21
REMARK   10  A    between atoms: C_27  and  C_28
REMARK                            x       y       z     vdW  Elec       q    Type
REMARK                         _______ _______ _______ _____ _____    ______ ____
ROOT
ATOM      1  O   UNL     1     -17.180   1.778  24.251  0.00  0.00    -0.336 OA
ATOM      6  N   UNL     1     -16.687   3.871  24.881  0.00  0.00    -0.190 NA
ATOM      7  N   UNL     1     -16.428   2.331  23.208  0.00  0.00    -0.056 NA
ATOM     14  C   UNL     1     -17.286   2.750  25.195  0.00  0.00    +0.245 A 
ATOM     18  C   UNL     1     -16.175   3.566  23.653  0.00  0.00    +0.204 A 
ENDROOT
BRANCH  18  21
ATOM      8  N   UNL     1     -15.360   6.226  21.185  0.00  0.00    -0.221 NA
ATOM     21  C   UNL     1     -15.415   4.519  22.896  0.00  0.00    +0.041 A 
ATOM     23  C   UNL     1     -14.050   4.676  23.106  0.00  0.00    +0.018 A 
ATOM     24  C   UNL     1     -16.018   5.312  21.932  0.00  0.00    +0.126 A 
ATOM     25  C   UNL     1     -13.339   5.607  22.357  0.00  0.00    +0.068 A 
ATOM     26  C   UNL     1     -14.034   6.349  21.417  0.00  0.00    +0.215 A 
BRANCH  26   3
ATOM      3  O   UNL     1     -13.357   7.273  20.665  0.00  0.00    -0.474 OA
BRANCH   3  27
ATOM     27  C   UNL     1     -11.939   7.157  20.632  0.00  0.00    +0.258 C 
BRANCH  27  28
ATOM     28  C   UNL     1     -11.462   7.329  19.203  0.00  0.00    +0.200 C 
BRANCH  28   4
ATOM      4  O   UNL     1     -11.502   8.711  18.864  0.00  0.00    -0.380 OA
ATOM     29  C   UNL     1     -10.419   9.422  19.447  0.00  0.00    +0.194 C 
ENDBRANCH  28   4
ENDBRANCH  27  28
ENDBRANCH   3  27
ENDBRANCH  26   3
ENDBRANCH  18  21
BRANCH  14   9
ATOM      5  N   UNL     1     -17.239   2.459  27.666  0.00  0.00    -0.287 NA
ATOM      9  C   UNL     1     -18.066   2.396  26.444  0.00  0.00    +0.146 C 
ATOM     10  C   UNL     1     -19.233   3.365  26.712  0.00  0.00    +0.030 C 
ATOM     11  C   UNL     1     -19.009   3.876  28.128  0.00  0.00    +0.017 C 
ATOM     12  C   UNL     1     -18.146   2.803  28.762  0.00  0.00    +0.085 C 
BRANCH   5  13
ATOM     13  C   UNL     1     -16.506   1.226  27.927  0.00  0.00    +0.124 C 
BRANCH  13  15
ATOM     15  C   UNL     1     -15.682   1.317  29.182  0.00  0.00    +0.008 A 
ATOM     16  C   UNL     1     -14.840   2.407  29.405  0.00  0.00    +0.121 A 
ATOM     17  C   UNL     1     -15.766   0.297  30.130  0.00  0.00    +0.008 A 
ATOM     19  C   UNL     1     -14.081   2.475  30.574  0.00  0.00    +0.046 A 
ATOM     20  C   UNL     1     -15.008   0.364  31.298  0.00  0.00    +0.001 A 
ATOM     22  C   UNL     1     -14.166   1.454  31.521  0.00  0.00    +0.004 A 
BRANCH  16   2
ATOM      2  O   UNL     1     -14.745   3.413  28.490  0.00  0.00    -0.506 OA
ATOM     30  H   UNL     1     -14.781   3.032  27.597  0.00  0.00    +0.292 HD
ENDBRANCH  16   2
ENDBRANCH  13  15
ENDBRANCH   5  13
ENDBRANCH  14   9
TORSDOF 9
ENDMDL
