MODEL 1
REMARK VINA RESULT:      -5.9      0.000      0.000
REMARK  Name = 75536497
REMARK  6 active torsions:
REMARK  status: ('A' for Active; 'I' for Inactive)
REMARK    1  A    between atoms: O_2  and  C_8
REMARK    2  A    between atoms: N_5  and  C_7
REMARK    3  A    between atoms: N_5  and  C_10
REMARK    4  A    between atoms: N_6  and  C_14
REMARK    5  A    between atoms: C_9  and  C_14
REMARK    6  A    between atoms: C_17  and  C_18
REMARK                            x       y       z     vdW  Elec       q    Type
REMARK                         _______ _______ _______ _____ _____    ______ ____
ROOT
ATOM      1  O   UNL     1      13.265   8.081  21.548  0.00  0.00    -0.371 OA
ATOM      7  C   UNL     1      11.346   9.023  22.584  0.00  0.00    +0.111 C 
ATOM      8  C   UNL     1      10.901   8.018  21.538  0.00  0.00    +0.164 C 
ATOM      9  C   UNL     1      12.160   7.176  21.384  0.00  0.00    +0.165 C 
ATOM     11  C   UNL     1      12.779   9.293  22.151  0.00  0.00    +0.181 C 
ENDROOT
BRANCH   8   2
ATOM      2  O   UNL     1       9.797   7.243  21.962  0.00  0.00    -0.388 OA
ATOM     20  H   UNL     1       9.804   6.405  21.468  0.00  0.00    +0.210 HD
ENDBRANCH   8   2
BRANCH   7   5
ATOM      5  N   UNL     1      10.531  10.226  22.623  0.00  0.00    -0.306 NA
ATOM     19  H   UNL     1       9.669  10.048  23.138  0.00  0.00    +0.123 HD
BRANCH   5  10
ATOM      3  O   UNL     1      11.190  13.864  24.611  0.00  0.00    -0.380 OA
ATOM     10  C   UNL     1      11.257  11.333  23.239  0.00  0.00    +0.058 C 
ATOM     12  C   UNL     1      10.931  12.647  22.523  0.00  0.00    +0.047 C 
ATOM     13  C   UNL     1      10.919  11.452  24.729  0.00  0.00    +0.047 C 
ATOM     15  C   UNL     1      11.590  13.820  23.241  0.00  0.00    +0.161 C 
ATOM     16  C   UNL     1      11.579  12.691  25.325  0.00  0.00    +0.161 C 
ENDBRANCH   5  10
ENDBRANCH   7   5
BRANCH   9  14
ATOM     14  C   UNL     1      12.259   6.484  20.037  0.00  0.00    +0.138 C 
BRANCH  14   6
ATOM      4  O   UNL     1      11.698   7.398  17.339  0.00  0.00    -0.276 OA
ATOM      6  N   UNL     1      13.144   7.186  19.153  0.00  0.00    -0.313 N 
ATOM     17  C   UNL     1      12.789   7.587  17.870  0.00  0.00    +0.210 C 
ATOM     18  C   UNL     1      13.897   8.327  17.168  0.00  0.00    +0.109 C 
ATOM     21  H   UNL     1      14.080   7.394  19.491  0.00  0.00    +0.149 HD
ENDBRANCH  14   6
ENDBRANCH   9  14
TORSDOF 5
ENDMDL
MODEL 2
REMARK VINA RESULT:      -5.9      4.821      7.027
REMARK  Name = 75536497
REMARK  6 active torsions:
REMARK  status: ('A' for Active; 'I' for Inactive)
REMARK    1  A    between atoms: O_2  and  C_8
REMARK    2  A    between atoms: N_5  and  C_7
REMARK    3  A    between atoms: N_5  and  C_10
REMARK    4  A    between atoms: N_6  and  C_14
REMARK    5  A    between atoms: C_9  and  C_14
REMARK    6  A    between atoms: C_17  and  C_18
REMARK                            x       y       z     vdW  Elec       q    Type
REMARK                         _______ _______ _______ _____ _____    ______ ____
ROOT
ATOM      1  O   UNL     1      17.716   6.275  19.325  0.00  0.00    -0.371 OA
ATOM      7  C   UNL     1      15.566   7.013  20.017  0.00  0.00    +0.111 C 
ATOM      8  C   UNL     1      16.484   6.963  21.223  0.00  0.00    +0.164 C 
ATOM      9  C   UNL     1      17.851   7.007  20.555  0.00  0.00    +0.165 C 
ATOM     11  C   UNL     1      16.314   6.128  19.033  0.00  0.00    +0.181 C 
ENDROOT
BRANCH   8   2
ATOM      2  O   UNL     1      16.292   8.056  22.101  0.00  0.00    -0.388 OA
ATOM     20  H   UNL     1      17.096   8.165  22.635  0.00  0.00    +0.210 HD
ENDBRANCH   8   2
BRANCH   7   5
ATOM      5  N   UNL     1      14.218   6.542  20.289  0.00  0.00    -0.306 NA
ATOM     19  H   UNL     1      14.151   6.209  21.251  0.00  0.00    +0.123 HD
BRANCH   5  10
ATOM      3  O   UNL     1      10.579   8.361  19.254  0.00  0.00    -0.380 OA
ATOM     10  C   UNL     1      13.236   7.598  20.061  0.00  0.00    +0.058 C 
ATOM     12  C   UNL     1      12.793   7.606  18.595  0.00  0.00    +0.047 C 
ATOM     13  C   UNL     1      12.018   7.425  20.974  0.00  0.00    +0.047 C 
ATOM     15  C   UNL     1      11.678   8.625  18.383  0.00  0.00    +0.161 C 
ATOM     16  C   UNL     1      10.946   8.454  20.631  0.00  0.00    +0.161 C 
ENDBRANCH   5  10
ENDBRANCH   7   5
BRANCH   9  14
ATOM     14  C   UNL     1      18.953   6.392  21.399  0.00  0.00    +0.138 C 
BRANCH  14   6
ATOM      4  O   UNL     1      20.975   5.912  23.426  0.00  0.00    -0.276 OA
ATOM      6  N   UNL     1      19.286   7.231  22.513  0.00  0.00    -0.313 N 
ATOM     17  C   UNL     1      20.275   6.920  23.440  0.00  0.00    +0.210 C 
ATOM     18  C   UNL     1      20.436   7.984  24.494  0.00  0.00    +0.109 C 
ATOM     21  H   UNL     1      18.764   8.096  22.625  0.00  0.00    +0.149 HD
ENDBRANCH  14   6
ENDBRANCH   9  14
TORSDOF 5
ENDMDL
MODEL 3
REMARK VINA RESULT:      -5.7      2.004      6.035
REMARK  Name = 75536497
REMARK  6 active torsions:
REMARK  status: ('A' for Active; 'I' for Inactive)
REMARK    1  A    between atoms: O_2  and  C_8
REMARK    2  A    between atoms: N_5  and  C_7
REMARK    3  A    between atoms: N_5  and  C_10
REMARK    4  A    between atoms: N_6  and  C_14
REMARK    5  A    between atoms: C_9  and  C_14
REMARK    6  A    between atoms: C_17  and  C_18
REMARK                            x       y       z     vdW  Elec       q    Type
REMARK                         _______ _______ _______ _____ _____    ______ ____
ROOT
ATOM      1  O   UNL     1      10.513   8.400  19.999  0.00  0.00    -0.371 OA
ATOM      7  C   UNL     1      12.466   7.336  19.164  0.00  0.00    +0.111 C 
ATOM      8  C   UNL     1      12.522   7.354  20.680  0.00  0.00    +0.164 C 
ATOM      9  C   UNL     1      11.053   7.551  21.027  0.00  0.00    +0.165 C 
ATOM     11  C   UNL     1      11.428   8.412  18.889  0.00  0.00    +0.181 C 
ENDROOT
BRANCH   8   2
ATOM      2  O   UNL     1      13.035   6.152  21.222  0.00  0.00    -0.388 OA
ATOM     20  H   UNL     1      12.987   5.463  20.538  0.00  0.00    +0.210 HD
ENDBRANCH   8   2
BRANCH   7   5
ATOM      5  N   UNL     1      13.745   7.608  18.529  0.00  0.00    -0.306 NA
ATOM     19  H   UNL     1      13.979   6.859  17.877  0.00  0.00    +0.123 HD
BRANCH   5  10
ATOM      3  O   UNL     1      15.114  10.874  16.275  0.00  0.00    -0.380 OA
ATOM     10  C   UNL     1      13.721   8.888  17.826  0.00  0.00    +0.058 C 
ATOM     12  C   UNL     1      14.730   9.857  18.449  0.00  0.00    +0.047 C 
ATOM     13  C   UNL     1      14.025   8.703  16.335  0.00  0.00    +0.047 C 
ATOM     15  C   UNL     1      14.795  11.147  17.639  0.00  0.00    +0.161 C 
ATOM     16  C   UNL     1      14.128  10.058  15.643  0.00  0.00    +0.161 C 
ENDBRANCH   5  10
ENDBRANCH   7   5
BRANCH   9  14
ATOM     14  C   UNL     1      10.836   8.190  22.386  0.00  0.00    +0.138 C 
BRANCH  14   6
ATOM      4  O   UNL     1      12.821  10.291  22.666  0.00  0.00    -0.276 OA
ATOM      6  N   UNL     1      10.630   9.605  22.271  0.00  0.00    -0.313 N 
ATOM     17  C   UNL     1      11.645  10.544  22.421  0.00  0.00    +0.210 C 
ATOM     18  C   UNL     1      11.161  11.956  22.225  0.00  0.00    +0.109 C 
ATOM     21  H   UNL     1       9.688   9.929  22.071  0.00  0.00    +0.149 HD
ENDBRANCH  14   6
ENDBRANCH   9  14
TORSDOF 5
ENDMDL
MODEL 4
REMARK VINA RESULT:      -5.7      3.296      6.794
REMARK  Name = 75536497
REMARK  6 active torsions:
REMARK  status: ('A' for Active; 'I' for Inactive)
REMARK    1  A    between atoms: O_2  and  C_8
REMARK    2  A    between atoms: N_5  and  C_7
REMARK    3  A    between atoms: N_5  and  C_10
REMARK    4  A    between atoms: N_6  and  C_14
REMARK    5  A    between atoms: C_9  and  C_14
REMARK    6  A    between atoms: C_17  and  C_18
REMARK                            x       y       z     vdW  Elec       q    Type
REMARK                         _______ _______ _______ _____ _____    ______ ____
ROOT
ATOM      1  O   UNL     1      12.960   9.659  20.934  0.00  0.00    -0.371 OA
ATOM      7  C   UNL     1      14.272   7.701  21.238  0.00  0.00    +0.111 C 
ATOM      8  C   UNL     1      12.870   7.444  21.758  0.00  0.00    +0.164 C 
ATOM      9  C   UNL     1      12.083   8.524  21.030  0.00  0.00    +0.165 C 
ATOM     11  C   UNL     1      14.305   9.221  21.202  0.00  0.00    +0.181 C 
ENDROOT
BRANCH   8   2
ATOM      2  O   UNL     1      12.401   6.147  21.443  0.00  0.00    -0.388 OA
ATOM     20  H   UNL     1      13.170   5.563  21.328  0.00  0.00    +0.210 HD
ENDBRANCH   8   2
BRANCH   7   5
ATOM      5  N   UNL     1      15.318   7.133  22.072  0.00  0.00    -0.306 NA
ATOM     19  H   UNL     1      14.907   6.541  22.794  0.00  0.00    +0.123 HD
BRANCH   5  10
ATOM      3  O   UNL     1      18.226   6.275  19.169  0.00  0.00    -0.380 OA
ATOM     10  C   UNL     1      16.263   6.357  21.274  0.00  0.00    +0.058 C 
ATOM     12  C   UNL     1      15.881   6.414  19.792  0.00  0.00    +0.047 C 
ATOM     13  C   UNL     1      17.695   6.868  21.465  0.00  0.00    +0.047 C 
ATOM     15  C   UNL     1      16.935   5.709  18.945  0.00  0.00    +0.161 C 
ATOM     16  C   UNL     1      18.649   6.137  20.525  0.00  0.00    +0.161 C 
ENDBRANCH   5  10
ENDBRANCH   7   5
BRANCH   9  14
ATOM     14  C   UNL     1      10.805   8.923  21.746  0.00  0.00    +0.138 C 
BRANCH  14   6
ATOM      4  O   UNL     1      10.813  11.713  22.547  0.00  0.00    -0.276 OA
ATOM      6  N   UNL     1      11.081   9.454  23.049  0.00  0.00    -0.313 N 
ATOM     17  C   UNL     1      11.062  10.813  23.344  0.00  0.00    +0.210 C 
ATOM     18  C   UNL     1      11.363  11.095  24.792  0.00  0.00    +0.109 C 
ATOM     21  H   UNL     1      11.303   8.794  23.789  0.00  0.00    +0.149 HD
ENDBRANCH  14   6
ENDBRANCH   9  14
TORSDOF 5
ENDMDL
MODEL 5
REMARK VINA RESULT:      -5.7      4.511      5.891
REMARK  Name = 75536497
REMARK  6 active torsions:
REMARK  status: ('A' for Active; 'I' for Inactive)
REMARK    1  A    between atoms: O_2  and  C_8
REMARK    2  A    between atoms: N_5  and  C_7
REMARK    3  A    between atoms: N_5  and  C_10
REMARK    4  A    between atoms: N_6  and  C_14
REMARK    5  A    between atoms: C_9  and  C_14
REMARK    6  A    between atoms: C_17  and  C_18
REMARK                            x       y       z     vdW  Elec       q    Type
REMARK                         _______ _______ _______ _____ _____    ______ ____
ROOT
ATOM      1  O   UNL     1      14.225   7.383  18.417  0.00  0.00    -0.371 OA
ATOM      7  C   UNL     1      14.978   6.416  20.452  0.00  0.00    +0.111 C 
ATOM      8  C   UNL     1      13.639   7.089  20.689  0.00  0.00    +0.164 C 
ATOM      9  C   UNL     1      13.090   7.161  19.271  0.00  0.00    +0.165 C 
ATOM     11  C   UNL     1      15.421   7.076  19.156  0.00  0.00    +0.181 C 
ENDROOT
BRANCH   8   2
ATOM      2  O   UNL     1      12.796   6.340  21.543  0.00  0.00    -0.388 OA
ATOM     20  H   UNL     1      11.880   6.443  21.235  0.00  0.00    +0.210 HD
ENDBRANCH   8   2
BRANCH   7   5
ATOM      5  N   UNL     1      15.927   6.605  21.536  0.00  0.00    -0.306 NA
ATOM     19  H   UNL     1      16.228   5.701  21.900  0.00  0.00    +0.123 HD
BRANCH   5  10
ATOM      3  O   UNL     1      19.489   8.816  21.753  0.00  0.00    -0.380 OA
ATOM     10  C   UNL     1      17.088   7.371  21.091  0.00  0.00    +0.058 C 
ATOM     12  C   UNL     1      17.060   8.779  21.692  0.00  0.00    +0.047 C 
ATOM     13  C   UNL     1      18.393   6.665  21.474  0.00  0.00    +0.047 C 
ATOM     15  C   UNL     1      18.332   9.537  21.328  0.00  0.00    +0.161 C 
ATOM     16  C   UNL     1      19.592   7.540  21.122  0.00  0.00    +0.161 C 
ENDBRANCH   5  10
ENDBRANCH   7   5
BRANCH   9  14
ATOM     14  C   UNL     1      12.075   8.272  19.074  0.00  0.00    +0.138 C 
BRANCH  14   6
ATOM      4  O   UNL     1      10.485   7.960  16.665  0.00  0.00    -0.276 OA
ATOM      6  N   UNL     1      12.262   8.933  17.816  0.00  0.00    -0.313 N 
ATOM     17  C   UNL     1      11.447   8.722  16.709  0.00  0.00    +0.210 C 
ATOM     18  C   UNL     1      11.850   9.562  15.526  0.00  0.00    +0.109 C 
ATOM     21  H   UNL     1      13.035   9.588  17.738  0.00  0.00    +0.149 HD
ENDBRANCH  14   6
ENDBRANCH   9  14
TORSDOF 5
ENDMDL
MODEL 6
REMARK VINA RESULT:      -5.5      3.610      6.035
REMARK  Name = 75536497
REMARK  6 active torsions:
REMARK  status: ('A' for Active; 'I' for Inactive)
REMARK    1  A    between atoms: O_2  and  C_8
REMARK    2  A    between atoms: N_5  and  C_7
REMARK    3  A    between atoms: N_5  and  C_10
REMARK    4  A    between atoms: N_6  and  C_14
REMARK    5  A    between atoms: C_9  and  C_14
REMARK    6  A    between atoms: C_17  and  C_18
REMARK                            x       y       z     vdW  Elec       q    Type
REMARK                         _______ _______ _______ _____ _____    ______ ____
ROOT
ATOM      1  O   UNL     1      13.725   7.834  18.417  0.00  0.00    -0.371 OA
ATOM      7  C   UNL     1      14.583   6.495  20.182  0.00  0.00    +0.111 C 
ATOM      8  C   UNL     1      13.219   7.027  20.581  0.00  0.00    +0.164 C 
ATOM      9  C   UNL     1      12.628   7.371  19.221  0.00  0.00    +0.165 C 
ATOM     11  C   UNL     1      14.956   7.441  19.052  0.00  0.00    +0.181 C 
ENDROOT
BRANCH   8   2
ATOM      2  O   UNL     1      12.438   6.067  21.268  0.00  0.00    -0.388 OA
ATOM     20  H   UNL     1      11.510   6.183  21.004  0.00  0.00    +0.210 HD
ENDBRANCH   8   2
BRANCH   7   5
ATOM      5  N   UNL     1      15.551   6.499  21.266  0.00  0.00    -0.306 NA
ATOM     19  H   UNL     1      15.855   5.546  21.467  0.00  0.00    +0.123 HD
BRANCH   5  10
ATOM      3  O   UNL     1      19.028   8.786  21.818  0.00  0.00    -0.380 OA
ATOM     10  C   UNL     1      16.707   7.328  20.936  0.00  0.00    +0.058 C 
ATOM     12  C   UNL     1      16.606   8.686  21.637  0.00  0.00    +0.047 C 
ATOM     13  C   UNL     1      18.014   6.632  21.328  0.00  0.00    +0.047 C 
ATOM     15  C   UNL     1      17.870   9.504  21.393  0.00  0.00    +0.161 C 
ATOM     16  C   UNL     1      19.200   7.564  21.100  0.00  0.00    +0.161 C 
ENDBRANCH   5  10
ENDBRANCH   7   5
BRANCH   9  14
ATOM     14  C   UNL     1      11.553   8.441  19.286  0.00  0.00    +0.138 C 
BRANCH  14   6
ATOM      4  O   UNL     1      11.907  10.872  20.834  0.00  0.00    -0.276 OA
ATOM      6  N   UNL     1      11.137   8.682  20.638  0.00  0.00    -0.313 N 
ATOM     17  C   UNL     1      11.350   9.884  21.304  0.00  0.00    +0.210 C 
ATOM     18  C   UNL     1      10.792   9.877  22.702  0.00  0.00    +0.109 C 
ATOM     21  H   UNL     1      10.665   7.927  21.127  0.00  0.00    +0.149 HD
ENDBRANCH  14   6
ENDBRANCH   9  14
TORSDOF 5
ENDMDL
MODEL 7
REMARK VINA RESULT:      -5.5     25.616     26.648
REMARK  Name = 75536497
REMARK  6 active torsions:
REMARK  status: ('A' for Active; 'I' for Inactive)
REMARK    1  A    between atoms: O_2  and  C_8
REMARK    2  A    between atoms: N_5  and  C_7
REMARK    3  A    between atoms: N_5  and  C_10
REMARK    4  A    between atoms: N_6  and  C_14
REMARK    5  A    between atoms: C_9  and  C_14
REMARK    6  A    between atoms: C_17  and  C_18
REMARK                            x       y       z     vdW  Elec       q    Type
REMARK                         _______ _______ _______ _____ _____    ______ ____
ROOT
ATOM      1  O   UNL     1      -1.568 -11.205  15.135  0.00  0.00    -0.371 OA
ATOM      7  C   UNL     1      -3.807 -10.892  15.868  0.00  0.00    +0.111 C 
ATOM      8  C   UNL     1      -3.744 -10.685  14.366  0.00  0.00    +0.164 C 
ATOM      9  C   UNL     1      -2.453 -11.416  14.022  0.00  0.00    +0.165 C 
ATOM     11  C   UNL     1      -2.344 -10.739  16.254  0.00  0.00    +0.181 C 
ENDROOT
BRANCH   8   2
ATOM      2  O   UNL     1      -4.858 -11.237  13.692  0.00  0.00    -0.388 OA
ATOM     20  H   UNL     1      -4.574 -12.056  13.251  0.00  0.00    +0.210 HD
ENDBRANCH   8   2
BRANCH   7   5
ATOM      5  N   UNL     1      -4.674  -9.948  16.552  0.00  0.00    -0.306 NA
ATOM     19  H   UNL     1      -5.137  -9.343  15.874  0.00  0.00    +0.123 HD
BRANCH   5  10
ATOM      3  O   UNL     1      -7.323 -10.707  19.718  0.00  0.00    -0.380 OA
ATOM     10  C   UNL     1      -5.673 -10.642  17.360  0.00  0.00    +0.058 C 
ATOM     12  C   UNL     1      -5.109 -10.958  18.748  0.00  0.00    +0.047 C 
ATOM     13  C   UNL     1      -6.951  -9.807  17.492  0.00  0.00    +0.047 C 
ATOM     15  C   UNL     1      -6.190 -11.571  19.632  0.00  0.00    +0.161 C 
ATOM     16  C   UNL     1      -7.930 -10.483  18.446  0.00  0.00    +0.161 C 
ENDBRANCH   5  10
ENDBRANCH   7   5
BRANCH   9  14
ATOM     14  C   UNL     1      -1.801 -10.916  12.746  0.00  0.00    +0.138 C 
BRANCH  14   6
ATOM      4  O   UNL     1      -1.489  -8.965  10.617  0.00  0.00    -0.276 OA
ATOM      6  N   UNL     1      -2.783 -10.515  11.780  0.00  0.00    -0.313 N 
ATOM     17  C   UNL     1      -2.545  -9.568  10.790  0.00  0.00    +0.210 C 
ATOM     18  C   UNL     1      -3.737  -9.354   9.895  0.00  0.00    +0.109 C 
ATOM     21  H   UNL     1      -3.699 -10.951  11.831  0.00  0.00    +0.149 HD
ENDBRANCH  14   6
ENDBRANCH   9  14
TORSDOF 5
ENDMDL
MODEL 8
REMARK VINA RESULT:      -5.4     14.324     19.325
REMARK  Name = 75536497
REMARK  6 active torsions:
REMARK  status: ('A' for Active; 'I' for Inactive)
REMARK    1  A    between atoms: O_2  and  C_8
REMARK    2  A    between atoms: N_5  and  C_7
REMARK    3  A    between atoms: N_5  and  C_10
REMARK    4  A    between atoms: N_6  and  C_14
REMARK    5  A    between atoms: C_9  and  C_14
REMARK    6  A    between atoms: C_17  and  C_18
REMARK                            x       y       z     vdW  Elec       q    Type
REMARK                         _______ _______ _______ _____ _____    ______ ____
ROOT
ATOM      1  O   UNL     1      11.872   7.057   4.627  0.00  0.00    -0.371 OA
ATOM      7  C   UNL     1      10.745   5.291   3.505  0.00  0.00    +0.111 C 
ATOM      8  C   UNL     1      10.652   5.066   5.003  0.00  0.00    +0.164 C 
ATOM      9  C   UNL     1      10.920   6.469   5.529  0.00  0.00    +0.165 C 
ATOM     11  C   UNL     1      11.903   6.273   3.420  0.00  0.00    +0.181 C 
ENDROOT
BRANCH   8   2
ATOM      2  O   UNL     1       9.384   4.585   5.404  0.00  0.00    -0.388 OA
ATOM     20  H   UNL     1       8.751   4.754   4.686  0.00  0.00    +0.210 HD
ENDBRANCH   8   2
BRANCH   7   5
ATOM      5  N   UNL     1      10.977   4.075   2.744  0.00  0.00    -0.306 NA
ATOM     19  H   UNL     1      10.091   3.695   2.413  0.00  0.00    +0.123 HD
BRANCH   5  10
ATOM      3  O   UNL     1      13.090   3.376  -0.815  0.00  0.00    -0.380 OA
ATOM     10  C   UNL     1      11.864   4.325   1.611  0.00  0.00    +0.058 C 
ATOM     12  C   UNL     1      13.026   3.328   1.614  0.00  0.00    +0.047 C 
ATOM     13  C   UNL     1      11.101   4.236   0.285  0.00  0.00    +0.047 C 
ATOM     15  C   UNL     1      13.882   3.508   0.365  0.00  0.00    +0.161 C 
ATOM     16  C   UNL     1      12.064   4.365  -0.891  0.00  0.00    +0.161 C 
ENDBRANCH   5  10
ENDBRANCH   7   5
BRANCH   9  14
ATOM     14  C   UNL     1      11.474   6.485   6.942  0.00  0.00    +0.138 C 
BRANCH  14   6
ATOM      4  O   UNL     1       9.089   6.521   8.598  0.00  0.00    -0.276 OA
ATOM      6  N   UNL     1      10.940   5.408   7.724  0.00  0.00    -0.313 N 
ATOM     17  C   UNL     1       9.785   5.515   8.492  0.00  0.00    +0.210 C 
ATOM     18  C   UNL     1       9.434   4.230   9.192  0.00  0.00    +0.109 C 
ATOM     21  H   UNL     1      11.441   4.524   7.713  0.00  0.00    +0.149 HD
ENDBRANCH  14   6
ENDBRANCH   9  14
TORSDOF 5
ENDMDL
MODEL 9
REMARK VINA RESULT:      -5.4      1.960      6.810
REMARK  Name = 75536497
REMARK  6 active torsions:
REMARK  status: ('A' for Active; 'I' for Inactive)
REMARK    1  A    between atoms: O_2  and  C_8
REMARK    2  A    between atoms: N_5  and  C_7
REMARK    3  A    between atoms: N_5  and  C_10
REMARK    4  A    between atoms: N_6  and  C_14
REMARK    5  A    between atoms: C_9  and  C_14
REMARK    6  A    between atoms: C_17  and  C_18
REMARK                            x       y       z     vdW  Elec       q    Type
REMARK                         _______ _______ _______ _____ _____    ______ ____
ROOT
ATOM      1  O   UNL     1      11.869  11.348  21.631  0.00  0.00    -0.371 OA
ATOM      7  C   UNL     1      11.930   9.523  20.111  0.00  0.00    +0.111 C 
ATOM      8  C   UNL     1      11.380   9.042  21.440  0.00  0.00    +0.164 C 
ATOM      9  C   UNL     1      10.924  10.354  22.063  0.00  0.00    +0.165 C 
ATOM     11  C   UNL     1      12.614  10.818  20.520  0.00  0.00    +0.181 C 
ENDROOT
BRANCH   8   2
ATOM      2  O   UNL     1      10.308   8.130  21.289  0.00  0.00    -0.388 OA
ATOM     20  H   UNL     1       9.773   8.411  20.528  0.00  0.00    +0.210 HD
ENDBRANCH   8   2
BRANCH   7   5
ATOM      5  N   UNL     1      12.837   8.580  19.477  0.00  0.00    -0.306 NA
ATOM     19  H   UNL     1      12.790   7.678  19.951  0.00  0.00    +0.123 HD
BRANCH   5  10
ATOM      3  O   UNL     1      11.512   9.545  15.613  0.00  0.00    -0.380 OA
ATOM     10  C   UNL     1      12.519   8.414  18.062  0.00  0.00    +0.058 C 
ATOM     12  C   UNL     1      11.025   8.652  17.820  0.00  0.00    +0.047 C 
ATOM     13  C   UNL     1      13.347   9.368  17.196  0.00  0.00    +0.047 C 
ATOM     15  C   UNL     1      10.715   8.602  16.328  0.00  0.00    +0.161 C 
ATOM     16  C   UNL     1      12.908   9.278  15.738  0.00  0.00    +0.161 C 
ENDBRANCH   5  10
ENDBRANCH   7   5
BRANCH   9  14
ATOM     14  C   UNL     1      10.876  10.315  23.579  0.00  0.00    +0.138 C 
BRANCH  14   6
ATOM      4  O   UNL     1      12.186  11.874  25.650  0.00  0.00    -0.276 OA
ATOM      6  N   UNL     1      10.454  11.574  24.121  0.00  0.00    -0.313 N 
ATOM     17  C   UNL     1      11.147  12.254  25.117  0.00  0.00    +0.210 C 
ATOM     18  C   UNL     1      10.498  13.562  25.483  0.00  0.00    +0.109 C 
ATOM     21  H   UNL     1       9.599  11.982  23.752  0.00  0.00    +0.149 HD
ENDBRANCH  14   6
ENDBRANCH   9  14
TORSDOF 5
ENDMDL
MODEL 10
REMARK VINA RESULT:      -5.4      5.392      7.911
REMARK  Name = 75536497
REMARK  6 active torsions:
REMARK  status: ('A' for Active; 'I' for Inactive)
REMARK    1  A    between atoms: O_2  and  C_8
REMARK    2  A    between atoms: N_5  and  C_7
REMARK    3  A    between atoms: N_5  and  C_10
REMARK    4  A    between atoms: N_6  and  C_14
REMARK    5  A    between atoms: C_9  and  C_14
REMARK    6  A    between atoms: C_17  and  C_18
REMARK                            x       y       z     vdW  Elec       q    Type
REMARK                         _______ _______ _______ _____ _____    ______ ____
ROOT
ATOM      1  O   UNL     1      15.153   8.628  20.236  0.00  0.00    -0.371 OA
ATOM      7  C   UNL     1      17.075   7.270  20.563  0.00  0.00    +0.111 C 
ATOM      8  C   UNL     1      16.026   6.470  19.814  0.00  0.00    +0.164 C 
ATOM      9  C   UNL     1      15.156   7.584  19.248  0.00  0.00    +0.165 C 
ATOM     11  C   UNL     1      16.234   8.389  21.156  0.00  0.00    +0.181 C 
ENDROOT
BRANCH   8   2
ATOM      2  O   UNL     1      16.580   5.663  18.793  0.00  0.00    -0.388 OA
ATOM     20  H   UNL     1      16.551   4.737  19.086  0.00  0.00    +0.210 HD
ENDBRANCH   8   2
BRANCH   7   5
ATOM      5  N   UNL     1      17.786   6.501  21.572  0.00  0.00    -0.306 NA
ATOM     19  H   UNL     1      17.527   5.517  21.508  0.00  0.00    +0.123 HD
BRANCH   5  10
ATOM      3  O   UNL     1      21.868   5.544  21.780  0.00  0.00    -0.380 OA
ATOM     10  C   UNL     1      19.231   6.644  21.421  0.00  0.00    +0.058 C 
ATOM     12  C   UNL     1      19.918   6.587  22.788  0.00  0.00    +0.047 C 
ATOM     13  C   UNL     1      19.800   5.556  20.504  0.00  0.00    +0.047 C 
ATOM     15  C   UNL     1      21.433   6.611  22.622  0.00  0.00    +0.161 C 
ATOM     16  C   UNL     1      21.322   5.638  20.464  0.00  0.00    +0.161 C 
ENDBRANCH   5  10
ENDBRANCH   7   5
BRANCH   9  14
ATOM     14  C   UNL     1      13.731   7.147  18.960  0.00  0.00    +0.138 C 
BRANCH  14   6
ATOM      4  O   UNL     1      11.516   6.231  20.598  0.00  0.00    -0.276 OA
ATOM      6  N   UNL     1      12.784   7.953  19.673  0.00  0.00    -0.313 N 
ATOM     17  C   UNL     1      11.749   7.426  20.438  0.00  0.00    +0.210 C 
ATOM     18  C   UNL     1      10.917   8.492  21.100  0.00  0.00    +0.109 C 
ATOM     21  H   UNL     1      12.881   8.962  19.609  0.00  0.00    +0.149 HD
ENDBRANCH  14   6
ENDBRANCH   9  14
TORSDOF 5
ENDMDL
