MODEL 1
REMARK VINA RESULT:      -6.8      0.000      0.000
REMARK  Name = 11867040
REMARK  10 active torsions:
REMARK  status: ('A' for Active; 'I' for Inactive)
REMARK    1  A    between atoms: O_2  and  C_15
REMARK    2  A    between atoms: O_3  and  C_20
REMARK    3  A    between atoms: N_8  and  C_26
REMARK    4  A    between atoms: C_10  and  C_18
REMARK    5  A    between atoms: C_12  and  C_20
REMARK    6  A    between atoms: C_12  and  C_21
REMARK    7  A    between atoms: C_13  and  C_23
REMARK    8  A    between atoms: C_23  and  C_24
REMARK    9  A    between atoms: C_26  and  C_28
REMARK   10  A    between atoms: C_27  and  C_29
REMARK                            x       y       z     vdW  Elec       q    Type
REMARK                         _______ _______ _______ _____ _____    ______ ____
ROOT
ATOM      1  S   UNL     1      13.161   7.385  17.918  0.00  0.00    -0.057 S 
ATOM      5  O   UNL     1      11.153   7.363  22.131  0.00  0.00    -0.276 OA
ATOM      7  N   UNL     1      12.497   8.857  19.938  0.00  0.00    -0.229 NA
ATOM      9  N   UNL     1      11.960   6.512  20.079  0.00  0.00    -0.265 N 
ATOM     10  C   UNL     1      14.342  11.788  18.243  0.00  0.00    -0.019 C 
ATOM     11  C   UNL     1      14.020  11.247  16.781  0.00  0.00    +0.011 C 
ATOM     12  C   UNL     1      14.665  12.028  15.571  0.00  0.00    +0.021 C 
ATOM     13  C   UNL     1      13.272  11.157  19.249  0.00  0.00    +0.054 C 
ATOM     14  C   UNL     1      14.185  13.330  18.269  0.00  0.00    +0.010 C 
ATOM     15  C   UNL     1      14.458  13.556  15.778  0.00  0.00    +0.123 C 
ATOM     16  C   UNL     1      14.194   9.703  16.694  0.00  0.00    +0.049 C 
ATOM     17  C   UNL     1      14.923  14.045  17.145  0.00  0.00    +0.032 C 
ATOM     18  C   UNL     1      15.771  11.426  18.718  0.00  0.00    +0.012 C 
ATOM     19  C   UNL     1      13.113   9.677  19.011  0.00  0.00    +0.058 A 
ATOM     21  C   UNL     1      13.925  11.635  14.261  0.00  0.00    +0.016 C 
ATOM     22  C   UNL     1      13.517   9.048  17.850  0.00  0.00    +0.015 A 
ATOM     25  C   UNL     1      12.473   7.628  19.472  0.00  0.00    +0.165 A 
ATOM     27  C   UNL     1      11.346   6.446  21.341  0.00  0.00    +0.216 C 
ATOM     29  C   UNL     1      10.903   5.042  21.674  0.00  0.00    +0.109 C 
ATOM     36  H   UNL     1      12.043   5.653  19.542  0.00  0.00    +0.157 HD
ENDROOT
BRANCH  15   2
ATOM      2  O   UNL     1      15.141  14.297  14.768  0.00  0.00    -0.391 OA
ATOM     33  H   UNL     1      15.208  13.738  13.977  0.00  0.00    +0.210 HD
ENDBRANCH  15   2
BRANCH  12  20
ATOM     20  C   UNL     1      16.154  11.704  15.319  0.00  0.00    +0.165 C 
BRANCH  20   3
ATOM      3  O   UNL     1      16.311  11.434  13.945  0.00  0.00    -0.394 OA
ATOM     34  H   UNL     1      16.782  10.589  13.855  0.00  0.00    +0.209 HD
ENDBRANCH  20   3
ENDBRANCH  12  20
BRANCH  13  23
ATOM     23  C   UNL     1      13.530  11.463  20.730  0.00  0.00    +0.106 C 
BRANCH  23  24
ATOM      4  O   UNL     1      11.462  12.635  21.180  0.00  0.00    -0.276 OA
ATOM      8  N   UNL     1      12.097  10.864  22.545  0.00  0.00    -0.308 N 
ATOM     24  C   UNL     1      12.250  11.743  21.482  0.00  0.00    +0.214 C 
ATOM     35  H   UNL     1      12.776  10.123  22.688  0.00  0.00    +0.149 HD
BRANCH   8  26
ATOM     26  C   UNL     1      10.965  10.900  23.443  0.00  0.00    +0.178 C 
BRANCH  26  28
ATOM      6  O   UNL     1      10.062  12.779  24.635  0.00  0.00    -0.466 OA
ATOM     28  C   UNL     1      11.146  12.007  24.435  0.00  0.00    +0.122 A 
ATOM     30  C   UNL     1      12.206  12.393  25.186  0.00  0.00    +0.046 A 
ATOM     31  C   UNL     1      11.751  13.511  25.927  0.00  0.00    +0.041 A 
ATOM     32  C   UNL     1      10.440  13.706  25.556  0.00  0.00    +0.195 A 
ENDBRANCH  26  28
ENDBRANCH   8  26
ENDBRANCH  23  24
ENDBRANCH  13  23
TORSDOF 7
ENDMDL
MODEL 2
REMARK VINA RESULT:      -6.4     27.308     29.770
REMARK  Name = 11867040
REMARK  10 active torsions:
REMARK  status: ('A' for Active; 'I' for Inactive)
REMARK    1  A    between atoms: O_2  and  C_15
REMARK    2  A    between atoms: O_3  and  C_20
REMARK    3  A    between atoms: N_8  and  C_26
REMARK    4  A    between atoms: C_10  and  C_18
REMARK    5  A    between atoms: C_12  and  C_20
REMARK    6  A    between atoms: C_12  and  C_21
REMARK    7  A    between atoms: C_13  and  C_23
REMARK    8  A    between atoms: C_23  and  C_24
REMARK    9  A    between atoms: C_26  and  C_28
REMARK   10  A    between atoms: C_27  and  C_29
REMARK                            x       y       z     vdW  Elec       q    Type
REMARK                         _______ _______ _______ _____ _____    ______ ____
ROOT
ATOM      1  S   UNL     1      -7.061 -10.490  11.272  0.00  0.00    -0.057 S 
ATOM      5  O   UNL     1     -11.198  -8.951  12.789  0.00  0.00    -0.276 OA
ATOM      7  N   UNL     1      -8.417  -9.830  13.374  0.00  0.00    -0.229 NA
ATOM      9  N   UNL     1      -9.547  -9.658  11.252  0.00  0.00    -0.265 N 
ATOM     10  C   UNL     1      -5.447 -11.045  15.512  0.00  0.00    -0.019 C 
ATOM     11  C   UNL     1      -4.383 -10.657  14.394  0.00  0.00    +0.011 C 
ATOM     12  C   UNL     1      -2.881 -11.053  14.669  0.00  0.00    +0.021 C 
ATOM     13  C   UNL     1      -6.771 -10.188  15.251  0.00  0.00    +0.054 C 
ATOM     14  C   UNL     1      -4.890 -10.669  16.909  0.00  0.00    +0.010 C 
ATOM     15  C   UNL     1      -2.501 -10.649  16.122  0.00  0.00    +0.123 C 
ATOM     16  C   UNL     1      -4.883 -11.043  12.972  0.00  0.00    +0.049 C 
ATOM     17  C   UNL     1      -3.478 -11.176  17.167  0.00  0.00    +0.032 C 
ATOM     18  C   UNL     1      -5.801 -12.553  15.508  0.00  0.00    +0.012 C 
ATOM     19  C   UNL     1      -7.160 -10.222  13.796  0.00  0.00    +0.058 A 
ATOM     21  C   UNL     1      -1.960 -10.246  13.709  0.00  0.00    +0.016 C 
ATOM     22  C   UNL     1      -6.292 -10.591  12.788  0.00  0.00    +0.015 A 
ATOM     25  C   UNL     1      -8.480  -9.938  12.064  0.00  0.00    +0.165 A 
ATOM     27  C   UNL     1     -10.812  -9.193  11.651  0.00  0.00    +0.216 C 
ATOM     29  C   UNL     1     -11.733  -8.996  10.471  0.00  0.00    +0.109 C 
ATOM     36  H   UNL     1      -9.384  -9.809  10.260  0.00  0.00    +0.157 HD
ENDROOT
BRANCH  15   2
ATOM      2  O   UNL     1      -1.189 -11.109  16.445  0.00  0.00    -0.391 OA
ATOM     33  H   UNL     1      -1.073 -11.037  17.407  0.00  0.00    +0.210 HD
ENDBRANCH  15   2
BRANCH  12  20
ATOM     20  C   UNL     1      -2.552 -12.539  14.408  0.00  0.00    +0.165 C 
BRANCH  20   3
ATOM      3  O   UNL     1      -1.235 -12.610  13.909  0.00  0.00    -0.394 OA
ATOM     34  H   UNL     1      -1.140 -13.447  13.425  0.00  0.00    +0.209 HD
ENDBRANCH  20   3
ENDBRANCH  12  20
BRANCH  13  23
ATOM     23  C   UNL     1      -7.955 -10.549  16.158  0.00  0.00    +0.106 C 
BRANCH  23  24
ATOM      4  O   UNL     1      -7.834  -9.092  18.086  0.00  0.00    -0.276 OA
ATOM      8  N   UNL     1      -9.458  -8.718  16.465  0.00  0.00    -0.308 N 
ATOM     24  C   UNL     1      -8.380  -9.388  17.026  0.00  0.00    +0.214 C 
ATOM     35  H   UNL     1      -9.812  -9.004  15.557  0.00  0.00    +0.149 HD
BRANCH   8  26
ATOM     26  C   UNL     1     -10.078  -7.567  17.079  0.00  0.00    +0.178 C 
BRANCH  26  28
ATOM      6  O   UNL     1     -10.725  -6.027  15.353  0.00  0.00    -0.466 OA
ATOM     28  C   UNL     1     -11.132  -7.018  16.168  0.00  0.00    +0.122 A 
ATOM     30  C   UNL     1     -12.441  -7.328  15.998  0.00  0.00    +0.046 A 
ATOM     31  C   UNL     1     -12.902  -6.453  14.984  0.00  0.00    +0.041 A 
ATOM     32  C   UNL     1     -11.821  -5.682  14.624  0.00  0.00    +0.195 A 
ENDBRANCH  26  28
ENDBRANCH   8  26
ENDBRANCH  23  24
ENDBRANCH  13  23
TORSDOF 7
ENDMDL
MODEL 3
REMARK VINA RESULT:      -6.2     24.006     27.379
REMARK  Name = 11867040
REMARK  10 active torsions:
REMARK  status: ('A' for Active; 'I' for Inactive)
REMARK    1  A    between atoms: O_2  and  C_15
REMARK    2  A    between atoms: O_3  and  C_20
REMARK    3  A    between atoms: N_8  and  C_26
REMARK    4  A    between atoms: C_10  and  C_18
REMARK    5  A    between atoms: C_12  and  C_20
REMARK    6  A    between atoms: C_12  and  C_21
REMARK    7  A    between atoms: C_13  and  C_23
REMARK    8  A    between atoms: C_23  and  C_24
REMARK    9  A    between atoms: C_26  and  C_28
REMARK   10  A    between atoms: C_27  and  C_29
REMARK                            x       y       z     vdW  Elec       q    Type
REMARK                         _______ _______ _______ _____ _____    ______ ____
ROOT
ATOM      1  S   UNL     1      -6.263   8.205  41.951  0.00  0.00    -0.057 S 
ATOM      5  O   UNL     1      -9.341  10.560  39.349  0.00  0.00    -0.276 OA
ATOM      7  N   UNL     1      -6.651   9.326  39.653  0.00  0.00    -0.229 NA
ATOM      9  N   UNL     1      -8.472   9.419  41.228  0.00  0.00    -0.265 N 
ATOM     10  C   UNL     1      -2.953   8.614  38.827  0.00  0.00    -0.019 C 
ATOM     11  C   UNL     1      -2.927   7.295  39.717  0.00  0.00    +0.011 C 
ATOM     12  C   UNL     1      -1.536   6.567  39.876  0.00  0.00    +0.021 C 
ATOM     13  C   UNL     1      -4.474   8.921  38.444  0.00  0.00    +0.054 C 
ATOM     14  C   UNL     1      -2.161   8.368  37.517  0.00  0.00    +0.010 C 
ATOM     15  C   UNL     1      -0.859   6.443  38.482  0.00  0.00    +0.123 C 
ATOM     16  C   UNL     1      -3.684   7.501  41.061  0.00  0.00    +0.049 C 
ATOM     17  C   UNL     1      -0.778   7.770  37.735  0.00  0.00    +0.032 C 
ATOM     18  C   UNL     1      -2.346   9.841  39.551  0.00  0.00    +0.012 C 
ATOM     19  C   UNL     1      -5.369   8.810  39.652  0.00  0.00    +0.058 A 
ATOM     21  C   UNL     1      -1.778   5.122  40.402  0.00  0.00    +0.016 C 
ATOM     22  C   UNL     1      -5.002   8.153  40.809  0.00  0.00    +0.015 A 
ATOM     25  C   UNL     1      -7.213   9.073  40.814  0.00  0.00    +0.165 A 
ATOM     27  C   UNL     1      -9.439  10.124  40.491  0.00  0.00    +0.216 C 
ATOM     29  C   UNL     1     -10.712  10.316  41.278  0.00  0.00    +0.109 C 
ATOM     36  H   UNL     1      -8.711   9.123  42.171  0.00  0.00    +0.157 HD
ENDROOT
BRANCH  15   2
ATOM      2  O   UNL     1       0.456   5.905  38.607  0.00  0.00    -0.391 OA
ATOM     33  H   UNL     1       0.519   5.126  38.031  0.00  0.00    +0.210 HD
ENDBRANCH  15   2
BRANCH  12  20
ATOM     20  C   UNL     1      -0.581   7.224  40.896  0.00  0.00    +0.165 C 
BRANCH  20   3
ATOM      3  O   UNL     1       0.177   6.201  41.501  0.00  0.00    -0.394 OA
ATOM     34  H   UNL     1       0.510   6.535  42.351  0.00  0.00    +0.209 HD
ENDBRANCH  20   3
ENDBRANCH  12  20
BRANCH  13  23
ATOM     23  C   UNL     1      -4.691  10.248  37.705  0.00  0.00    +0.106 C 
BRANCH  23  24
ATOM      4  O   UNL     1      -4.974   9.996  35.315  0.00  0.00    -0.276 OA
ATOM      8  N   UNL     1      -6.842   9.986  36.698  0.00  0.00    -0.308 N 
ATOM     24  C   UNL     1      -5.482  10.063  36.431  0.00  0.00    +0.214 C 
ATOM     35  H   UNL     1      -7.168  10.000  37.660  0.00  0.00    +0.149 HD
BRANCH   8  26
ATOM     26  C   UNL     1      -7.841   9.813  35.669  0.00  0.00    +0.178 C 
BRANCH  26  28
ATOM      6  O   UNL     1      -8.734   8.083  37.076  0.00  0.00    -0.466 OA
ATOM     28  C   UNL     1      -9.026   9.093  36.235  0.00  0.00    +0.122 A 
ATOM     30  C   UNL     1     -10.360   9.260  36.064  0.00  0.00    +0.046 A 
ATOM     31  C   UNL     1     -10.966   8.265  36.869  0.00  0.00    +0.041 A 
ATOM     32  C   UNL     1      -9.935   7.576  37.465  0.00  0.00    +0.195 A 
ENDBRANCH  26  28
ENDBRANCH   8  26
ENDBRANCH  23  24
ENDBRANCH  13  23
TORSDOF 7
ENDMDL
MODEL 4
REMARK VINA RESULT:      -6.2     15.245     18.208
REMARK  Name = 11867040
REMARK  10 active torsions:
REMARK  status: ('A' for Active; 'I' for Inactive)
REMARK    1  A    between atoms: O_2  and  C_15
REMARK    2  A    between atoms: O_3  and  C_20
REMARK    3  A    between atoms: N_8  and  C_26
REMARK    4  A    between atoms: C_10  and  C_18
REMARK    5  A    between atoms: C_12  and  C_20
REMARK    6  A    between atoms: C_12  and  C_21
REMARK    7  A    between atoms: C_13  and  C_23
REMARK    8  A    between atoms: C_23  and  C_24
REMARK    9  A    between atoms: C_26  and  C_28
REMARK   10  A    between atoms: C_27  and  C_29
REMARK                            x       y       z     vdW  Elec       q    Type
REMARK                         _______ _______ _______ _____ _____    ______ ____
ROOT
ATOM      1  S   UNL     1      14.950   7.942   6.211  0.00  0.00    -0.057 S 
ATOM      5  O   UNL     1      12.489   6.297   2.602  0.00  0.00    -0.276 OA
ATOM      7  N   UNL     1      15.028   7.410   3.681  0.00  0.00    -0.229 NA
ATOM      9  N   UNL     1      12.957   6.952   4.824  0.00  0.00    -0.265 N 
ATOM     10  C   UNL     1      18.528   9.025   3.582  0.00  0.00    -0.019 C 
ATOM     11  C   UNL     1      18.854   8.597   5.080  0.00  0.00    +0.011 C 
ATOM     12  C   UNL     1      20.211   9.116   5.693  0.00  0.00    +0.021 C 
ATOM     13  C   UNL     1      17.377   8.061   3.033  0.00  0.00    +0.054 C 
ATOM     14  C   UNL     1      19.789   8.829   2.703  0.00  0.00    +0.010 C 
ATOM     15  C   UNL     1      21.358   8.886   4.669  0.00  0.00    +0.123 C 
ATOM     16  C   UNL     1      17.624   8.805   6.012  0.00  0.00    +0.049 C 
ATOM     17  C   UNL     1      21.051   9.450   3.286  0.00  0.00    +0.032 C 
ATOM     18  C   UNL     1      18.065  10.499   3.465  0.00  0.00    +0.012 C 
ATOM     19  C   UNL     1      16.261   7.924   4.036  0.00  0.00    +0.058 A 
ATOM     21  C   UNL     1      20.548   8.279   6.961  0.00  0.00    +0.016 C 
ATOM     22  C   UNL     1      16.399   8.246   5.372  0.00  0.00    +0.015 A 
ATOM     25  C   UNL     1      14.255   7.381   4.745  0.00  0.00    +0.165 A 
ATOM     27  C   UNL     1      12.168   6.448   3.776  0.00  0.00    +0.216 C 
ATOM     29  C   UNL     1      10.784   6.073   4.247  0.00  0.00    +0.109 C 
ATOM     36  H   UNL     1      12.540   7.013   5.750  0.00  0.00    +0.157 HD
ENDROOT
BRANCH  15   2
ATOM      2  O   UNL     1      22.576   9.461   5.140  0.00  0.00    -0.391 OA
ATOM     33  H   UNL     1      23.314   8.982   4.729  0.00  0.00    +0.210 HD
ENDBRANCH  15   2
BRANCH  12  20
ATOM     20  C   UNL     1      20.181  10.587   6.164  0.00  0.00    +0.165 C 
BRANCH  20   3
ATOM      3  O   UNL     1      21.009  10.694   7.300  0.00  0.00    -0.394 OA
ATOM     34  H   UNL     1      20.652  10.110   7.990  0.00  0.00    +0.209 HD
ENDBRANCH  20   3
ENDBRANCH  12  20
BRANCH  13  23
ATOM     23  C   UNL     1      16.841   8.434   1.644  0.00  0.00    +0.106 C 
BRANCH  23  24
ATOM      4  O   UNL     1      17.838   7.296  -0.243  0.00  0.00    -0.276 OA
ATOM      8  N   UNL     1      16.074   6.299   0.896  0.00  0.00    -0.308 N 
ATOM     24  C   UNL     1      16.999   7.305   0.653  0.00  0.00    +0.214 C 
ATOM     35  H   UNL     1      15.450   6.370   1.694  0.00  0.00    +0.149 HD
BRANCH   8  26
ATOM     26  C   UNL     1      15.989   5.096   0.101  0.00  0.00    +0.178 C 
BRANCH  26  28
ATOM      6  O   UNL     1      13.763   4.330  -0.379  0.00  0.00    -0.466 OA
ATOM     28  C   UNL     1      14.779   4.311   0.505  0.00  0.00    +0.122 A 
ATOM     30  C   UNL     1      14.498   3.573   1.606  0.00  0.00    +0.046 A 
ATOM     31  C   UNL     1      13.186   3.080   1.400  0.00  0.00    +0.041 A 
ATOM     32  C   UNL     1      12.783   3.568   0.178  0.00  0.00    +0.195 A 
ENDBRANCH  26  28
ENDBRANCH   8  26
ENDBRANCH  23  24
ENDBRANCH  13  23
TORSDOF 7
ENDMDL
MODEL 5
REMARK VINA RESULT:      -6.1     26.603     30.974
REMARK  Name = 11867040
REMARK  10 active torsions:
REMARK  status: ('A' for Active; 'I' for Inactive)
REMARK    1  A    between atoms: O_2  and  C_15
REMARK    2  A    between atoms: O_3  and  C_20
REMARK    3  A    between atoms: N_8  and  C_26
REMARK    4  A    between atoms: C_10  and  C_18
REMARK    5  A    between atoms: C_12  and  C_20
REMARK    6  A    between atoms: C_12  and  C_21
REMARK    7  A    between atoms: C_13  and  C_23
REMARK    8  A    between atoms: C_23  and  C_24
REMARK    9  A    between atoms: C_26  and  C_28
REMARK   10  A    between atoms: C_27  and  C_29
REMARK                            x       y       z     vdW  Elec       q    Type
REMARK                         _______ _______ _______ _____ _____    ______ ____
ROOT
ATOM      1  S   UNL     1      -4.840 -11.329  18.541  0.00  0.00    -0.057 S 
ATOM      5  O   UNL     1      -2.739 -10.600  14.438  0.00  0.00    -0.276 OA
ATOM      7  N   UNL     1      -5.232 -11.033  16.002  0.00  0.00    -0.229 NA
ATOM      9  N   UNL     1      -2.950 -10.927  16.769  0.00  0.00    -0.265 N 
ATOM     10  C   UNL     1      -8.949 -11.857  16.610  0.00  0.00    -0.019 C 
ATOM     11  C   UNL     1      -8.929 -11.229  18.073  0.00  0.00    +0.011 C 
ATOM     12  C   UNL     1     -10.241 -11.383  18.935  0.00  0.00    +0.021 C 
ATOM     13  C   UNL     1      -7.738 -11.220  15.784  0.00  0.00    +0.054 C 
ATOM     14  C   UNL     1     -10.275 -11.476  15.903  0.00  0.00    +0.010 C 
ATOM     15  C   UNL     1     -11.474 -11.008  18.065  0.00  0.00    +0.123 C 
ATOM     16  C   UNL     1      -7.628 -11.609  18.838  0.00  0.00    +0.049 C 
ATOM     17  C   UNL     1     -11.520 -11.753  16.736  0.00  0.00    +0.032 C 
ATOM     18  C   UNL     1      -8.814 -13.400  16.616  0.00  0.00    +0.012 C 
ATOM     19  C   UNL     1      -6.466 -11.232  16.592  0.00  0.00    +0.058 A 
ATOM     21  C   UNL     1     -10.190 -10.378  20.122  0.00  0.00    +0.016 C 
ATOM     22  C   UNL     1      -6.440 -11.390  17.963  0.00  0.00    +0.015 A 
ATOM     25  C   UNL     1      -4.302 -11.071  16.931  0.00  0.00    +0.165 A 
ATOM     27  C   UNL     1      -2.263 -10.706  15.563  0.00  0.00    +0.216 C 
ATOM     29  C   UNL     1      -0.774 -10.596  15.780  0.00  0.00    +0.109 C 
ATOM     36  H   UNL     1      -2.405 -10.989  17.625  0.00  0.00    +0.157 HD
ENDROOT
BRANCH  15   2
ATOM      2  O   UNL     1     -12.686 -11.260  18.775  0.00  0.00    -0.391 OA
ATOM     33  H   UNL     1     -13.401 -11.356  18.125  0.00  0.00    +0.210 HD
ENDBRANCH  15   2
BRANCH  12  20
ATOM     20  C   UNL     1     -10.425 -12.775  19.579  0.00  0.00    +0.165 C 
BRANCH  20   3
ATOM      3  O   UNL     1     -10.898 -12.584  20.894  0.00  0.00    -0.394 OA
ATOM     34  H   UNL     1     -11.387 -13.382  21.157  0.00  0.00    +0.209 HD
ENDBRANCH  20   3
ENDBRANCH  12  20
BRANCH  13  23
ATOM     23  C   UNL     1      -7.525 -11.828  14.392  0.00  0.00    +0.106 C 
BRANCH  23  24
ATOM      4  O   UNL     1      -8.713 -10.695  12.615  0.00  0.00    -0.276 OA
ATOM      8  N   UNL     1      -6.556 -10.023  13.163  0.00  0.00    -0.308 N 
ATOM     24  C   UNL     1      -7.695 -10.805  13.294  0.00  0.00    +0.214 C 
ATOM     35  H   UNL     1      -5.779 -10.153  13.804  0.00  0.00    +0.149 HD
BRANCH   8  26
ATOM     26  C   UNL     1      -6.432  -8.965  12.188  0.00  0.00    +0.178 C 
BRANCH  26  28
ATOM      6  O   UNL     1      -4.453 -10.242  11.719  0.00  0.00    -0.466 OA
ATOM     28  C   UNL     1      -5.208  -9.189  11.354  0.00  0.00    +0.122 A 
ATOM     30  C   UNL     1      -4.700  -8.529  10.285  0.00  0.00    +0.046 A 
ATOM     31  C   UNL     1      -3.517  -9.228   9.944  0.00  0.00    +0.041 A 
ATOM     32  C   UNL     1      -3.411 -10.262  10.845  0.00  0.00    +0.195 A 
ENDBRANCH  26  28
ENDBRANCH   8  26
ENDBRANCH  23  24
ENDBRANCH  13  23
TORSDOF 7
ENDMDL
MODEL 6
REMARK VINA RESULT:      -6.0     13.394     18.057
REMARK  Name = 11867040
REMARK  10 active torsions:
REMARK  status: ('A' for Active; 'I' for Inactive)
REMARK    1  A    between atoms: O_2  and  C_15
REMARK    2  A    between atoms: O_3  and  C_20
REMARK    3  A    between atoms: N_8  and  C_26
REMARK    4  A    between atoms: C_10  and  C_18
REMARK    5  A    between atoms: C_12  and  C_20
REMARK    6  A    between atoms: C_12  and  C_21
REMARK    7  A    between atoms: C_13  and  C_23
REMARK    8  A    between atoms: C_23  and  C_24
REMARK    9  A    between atoms: C_26  and  C_28
REMARK   10  A    between atoms: C_27  and  C_29
REMARK                            x       y       z     vdW  Elec       q    Type
REMARK                         _______ _______ _______ _____ _____    ______ ____
ROOT
ATOM      1  S   UNL     1      11.522   8.166   6.996  0.00  0.00    -0.057 S 
ATOM      5  O   UNL     1       9.699   3.911   7.592  0.00  0.00    -0.276 OA
ATOM      7  N   UNL     1      10.872   5.970   5.794  0.00  0.00    -0.229 NA
ATOM      9  N   UNL     1      10.454   6.076   8.165  0.00  0.00    -0.265 N 
ATOM     10  C   UNL     1      11.768   7.684   2.458  0.00  0.00    -0.019 C 
ATOM     11  C   UNL     1      12.885   8.593   3.135  0.00  0.00    +0.011 C 
ATOM     12  C   UNL     1      13.581   9.673   2.219  0.00  0.00    +0.021 C 
ATOM     13  C   UNL     1      11.528   6.414   3.399  0.00  0.00    +0.054 C 
ATOM     14  C   UNL     1      12.274   7.182   1.082  0.00  0.00    +0.010 C 
ATOM     15  C   UNL     1      13.983   9.017   0.868  0.00  0.00    +0.123 C 
ATOM     16  C   UNL     1      12.411   9.149   4.510  0.00  0.00    +0.049 C 
ATOM     17  C   UNL     1      12.831   8.284   0.190  0.00  0.00    +0.032 C 
ATOM     18  C   UNL     1      10.428   8.432   2.251  0.00  0.00    +0.012 C 
ATOM     19  C   UNL     1      11.391   6.828   4.842  0.00  0.00    +0.058 A 
ATOM     21  C   UNL     1      14.891  10.154   2.907  0.00  0.00    +0.016 C 
ATOM     22  C   UNL     1      11.810   8.052   5.323  0.00  0.00    +0.015 A 
ATOM     25  C   UNL     1      10.886   6.572   6.964  0.00  0.00    +0.165 A 
ATOM     27  C   UNL     1       9.899   4.807   8.404  0.00  0.00    +0.216 C 
ATOM     29  C   UNL     1       9.544   4.617   9.858  0.00  0.00    +0.109 C 
ATOM     36  H   UNL     1      10.556   6.710   8.954  0.00  0.00    +0.157 HD
ENDROOT
BRANCH  15   2
ATOM      2  O   UNL     1      14.498   9.996  -0.033  0.00  0.00    -0.391 OA
ATOM     33  H   UNL     1      15.463   9.890  -0.073  0.00  0.00    +0.210 HD
ENDBRANCH  15   2
BRANCH  12  20
ATOM     20  C   UNL     1      12.743  10.949   1.984  0.00  0.00    +0.165 C 
BRANCH  20   3
ATOM      3  O   UNL     1      13.632  12.040   1.901  0.00  0.00    -0.394 OA
ATOM     34  H   UNL     1      14.227  11.888   1.148  0.00  0.00    +0.209 HD
ENDBRANCH  20   3
ENDBRANCH  12  20
BRANCH  13  23
ATOM     23  C   UNL     1      10.372   5.505   2.963  0.00  0.00    +0.106 C 
BRANCH  23  24
ATOM      4  O   UNL     1      10.164   3.977   1.099  0.00  0.00    -0.276 OA
ATOM      8  N   UNL     1      12.100   3.959   2.386  0.00  0.00    -0.308 N 
ATOM     24  C   UNL     1      10.834   4.407   2.034  0.00  0.00    +0.214 C 
ATOM     35  H   UNL     1      12.601   4.411   3.145  0.00  0.00    +0.149 HD
BRANCH   8  26
ATOM     26  C   UNL     1      12.792   2.910   1.675  0.00  0.00    +0.178 C 
BRANCH  26  28
ATOM      6  O   UNL     1      15.062   3.527   1.186  0.00  0.00    -0.466 OA
ATOM     28  C   UNL     1      13.792   3.513   0.737  0.00  0.00    +0.122 A 
ATOM     30  C   UNL     1      13.670   4.060  -0.497  0.00  0.00    +0.046 A 
ATOM     31  C   UNL     1      14.980   4.455  -0.861  0.00  0.00    +0.041 A 
ATOM     32  C   UNL     1      15.790   4.109   0.196  0.00  0.00    +0.195 A 
ENDBRANCH  26  28
ENDBRANCH   8  26
ENDBRANCH  23  24
ENDBRANCH  13  23
TORSDOF 7
ENDMDL
MODEL 7
REMARK VINA RESULT:      -5.9     15.988     20.091
REMARK  Name = 11867040
REMARK  10 active torsions:
REMARK  status: ('A' for Active; 'I' for Inactive)
REMARK    1  A    between atoms: O_2  and  C_15
REMARK    2  A    between atoms: O_3  and  C_20
REMARK    3  A    between atoms: N_8  and  C_26
REMARK    4  A    between atoms: C_10  and  C_18
REMARK    5  A    between atoms: C_12  and  C_20
REMARK    6  A    between atoms: C_12  and  C_21
REMARK    7  A    between atoms: C_13  and  C_23
REMARK    8  A    between atoms: C_23  and  C_24
REMARK    9  A    between atoms: C_26  and  C_28
REMARK   10  A    between atoms: C_27  and  C_29
REMARK                            x       y       z     vdW  Elec       q    Type
REMARK                         _______ _______ _______ _____ _____    ______ ____
ROOT
ATOM      1  S   UNL     1      14.660   4.955   1.516  0.00  0.00    -0.057 S 
ATOM      5  O   UNL     1      13.140   8.239   4.463  0.00  0.00    -0.276 OA
ATOM      7  N   UNL     1      12.782   6.677   1.957  0.00  0.00    -0.229 NA
ATOM      9  N   UNL     1      14.549   6.555   3.590  0.00  0.00    -0.265 N 
ATOM     10  C   UNL     1      11.341   5.800  -1.510  0.00  0.00    -0.019 C 
ATOM     11  C   UNL     1      11.865   4.298  -1.434  0.00  0.00    +0.011 C 
ATOM     12  C   UNL     1      11.659   3.403  -2.717  0.00  0.00    +0.021 C 
ATOM     13  C   UNL     1      11.244   6.364  -0.018  0.00  0.00    +0.054 C 
ATOM     14  C   UNL     1       9.921   5.821  -2.133  0.00  0.00    +0.010 C 
ATOM     15  C   UNL     1      10.203   3.577  -3.236  0.00  0.00    +0.123 C 
ATOM     16  C   UNL     1      13.303   4.226  -0.843  0.00  0.00    +0.049 C 
ATOM     17  C   UNL     1       9.806   5.035  -3.432  0.00  0.00    +0.032 C 
ATOM     18  C   UNL     1      12.264   6.717  -2.349  0.00  0.00    +0.012 C 
ATOM     19  C   UNL     1      12.490   6.039   0.766  0.00  0.00    +0.058 A 
ATOM     21  C   UNL     1      11.835   1.908  -2.326  0.00  0.00    +0.016 C 
ATOM     22  C   UNL     1      13.391   5.064   0.387  0.00  0.00    +0.015 A 
ATOM     25  C   UNL     1      13.906   6.192   2.437  0.00  0.00    +0.165 A 
ATOM     27  C   UNL     1      14.140   7.532   4.513  0.00  0.00    +0.216 C 
ATOM     29  C   UNL     1      15.106   7.651   5.667  0.00  0.00    +0.109 C 
ATOM     36  H   UNL     1      15.411   6.049   3.779  0.00  0.00    +0.157 HD
ENDROOT
BRANCH  15   2
ATOM      2  O   UNL     1      10.023   2.881  -4.469  0.00  0.00    -0.391 OA
ATOM     33  H   UNL     1      10.773   3.093  -5.047  0.00  0.00    +0.210 HD
ENDBRANCH  15   2
BRANCH  12  20
ATOM     20  C   UNL     1      12.680   3.659  -3.847  0.00  0.00    +0.165 C 
BRANCH  20   3
ATOM      3  O   UNL     1      13.069   2.409  -4.370  0.00  0.00    -0.394 OA
ATOM     34  H   UNL     1      13.874   2.540  -4.899  0.00  0.00    +0.209 HD
ENDBRANCH  20   3
ENDBRANCH  12  20
BRANCH  13  23
ATOM     23  C   UNL     1      10.891   7.854   0.079  0.00  0.00    +0.106 C 
BRANCH  23  24
ATOM      4  O   UNL     1       8.612   8.611   0.367  0.00  0.00    -0.276 OA
ATOM      8  N   UNL     1       9.727   7.627   2.153  0.00  0.00    -0.308 N 
ATOM     24  C   UNL     1       9.611   8.085   0.848  0.00  0.00    +0.214 C 
ATOM     35  H   UNL     1      10.578   7.157   2.449  0.00  0.00    +0.149 HD
BRANCH   8  26
ATOM     26  C   UNL     1       8.659   7.721   3.121  0.00  0.00    +0.178 C 
BRANCH  26  28
ATOM      6  O   UNL     1      10.282   6.494   4.398  0.00  0.00    -0.466 OA
ATOM     28  C   UNL     1       9.001   6.903   4.328  0.00  0.00    +0.122 A 
ATOM     30  C   UNL     1       8.261   6.484   5.384  0.00  0.00    +0.046 A 
ATOM     31  C   UNL     1       9.156   5.743   6.194  0.00  0.00    +0.041 A 
ATOM     32  C   UNL     1      10.372   5.780   5.552  0.00  0.00    +0.195 A 
ENDBRANCH  26  28
ENDBRANCH   8  26
ENDBRANCH  23  24
ENDBRANCH  13  23
TORSDOF 7
ENDMDL
MODEL 8
REMARK VINA RESULT:      -5.8     14.004     17.368
REMARK  Name = 11867040
REMARK  10 active torsions:
REMARK  status: ('A' for Active; 'I' for Inactive)
REMARK    1  A    between atoms: O_2  and  C_15
REMARK    2  A    between atoms: O_3  and  C_20
REMARK    3  A    between atoms: N_8  and  C_26
REMARK    4  A    between atoms: C_10  and  C_18
REMARK    5  A    between atoms: C_12  and  C_20
REMARK    6  A    between atoms: C_12  and  C_21
REMARK    7  A    between atoms: C_13  and  C_23
REMARK    8  A    between atoms: C_23  and  C_24
REMARK    9  A    between atoms: C_26  and  C_28
REMARK   10  A    between atoms: C_27  and  C_29
REMARK                            x       y       z     vdW  Elec       q    Type
REMARK                         _______ _______ _______ _____ _____    ______ ____
ROOT
ATOM      1  S   UNL     1      13.007   5.753   1.102  0.00  0.00    -0.057 S 
ATOM      5  O   UNL     1      17.407   7.304   0.974  0.00  0.00    -0.276 OA
ATOM      7  N   UNL     1      14.835   7.006   2.437  0.00  0.00    -0.229 NA
ATOM      9  N   UNL     1      15.427   6.255   0.225  0.00  0.00    -0.265 N 
ATOM     10  C   UNL     1      12.192   7.693   5.159  0.00  0.00    -0.019 C 
ATOM     11  C   UNL     1      11.409   6.342   4.850  0.00  0.00    +0.011 C 
ATOM     12  C   UNL     1      10.060   6.103   5.632  0.00  0.00    +0.021 C 
ATOM     13  C   UNL     1      13.689   7.530   4.622  0.00  0.00    +0.054 C 
ATOM     14  C   UNL     1      12.246   7.920   6.692  0.00  0.00    +0.010 C 
ATOM     15  C   UNL     1      10.278   6.418   7.140  0.00  0.00    +0.123 C 
ATOM     16  C   UNL     1      11.300   6.085   3.319  0.00  0.00    +0.049 C 
ATOM     17  C   UNL     1      10.896   7.791   7.383  0.00  0.00    +0.032 C 
ATOM     18  C   UNL     1      11.540   8.932   4.497  0.00  0.00    +0.012 C 
ATOM     19  C   UNL     1      13.704   6.951   3.230  0.00  0.00    +0.058 A 
ATOM     21  C   UNL     1       9.672   4.600   5.526  0.00  0.00    +0.016 C 
ATOM     22  C   UNL     1      12.628   6.291   2.672  0.00  0.00    +0.015 A 
ATOM     25  C   UNL     1      14.581   6.412   1.290  0.00  0.00    +0.165 A 
ATOM     27  C   UNL     1      16.757   6.698   0.129  0.00  0.00    +0.216 C 
ATOM     29  C   UNL     1      17.372   6.338  -1.200  0.00  0.00    +0.109 C 
ATOM     36  H   UNL     1      15.029   5.761  -0.570  0.00  0.00    +0.157 HD
ENDROOT
BRANCH  15   2
ATOM      2  O   UNL     1       9.045   6.336   7.854  0.00  0.00    -0.391 OA
ATOM     33  H   UNL     1       9.250   6.253   8.799  0.00  0.00    +0.210 HD
ENDBRANCH  15   2
BRANCH  12  20
ATOM     20  C   UNL     1       8.849   6.884   5.076  0.00  0.00    +0.165 C 
BRANCH  20   3
ATOM      3  O   UNL     1       7.678   6.201   5.464  0.00  0.00    -0.394 OA
ATOM     34  H   UNL     1       7.568   6.312   6.423  0.00  0.00    +0.209 HD
ENDBRANCH  20   3
ENDBRANCH  12  20
BRANCH  13  23
ATOM     23  C   UNL     1      14.542   8.802   4.711  0.00  0.00    +0.106 C 
BRANCH  23  24
ATOM      4  O   UNL     1      15.715   7.824   6.587  0.00  0.00    -0.276 OA
ATOM      8  N   UNL     1      16.710   9.546   5.384  0.00  0.00    -0.308 N 
ATOM     24  C   UNL     1      15.696   8.644   5.674  0.00  0.00    +0.214 C 
ATOM     35  H   UNL     1      16.628  10.155   4.575  0.00  0.00    +0.149 HD
BRANCH   8  26
ATOM     26  C   UNL     1      17.936   9.626   6.144  0.00  0.00    +0.178 C 
BRANCH  26  28
ATOM      6  O   UNL     1      18.821   8.520   4.203  0.00  0.00    -0.466 OA
ATOM     28  C   UNL     1      18.970   8.737   5.524  0.00  0.00    +0.122 A 
ATOM     30  C   UNL     1      20.045   8.093   6.039  0.00  0.00    +0.046 A 
ATOM     31  C   UNL     1      20.629   7.409   4.946  0.00  0.00    +0.041 A 
ATOM     32  C   UNL     1      19.848   7.700   3.851  0.00  0.00    +0.195 A 
ENDBRANCH  26  28
ENDBRANCH   8  26
ENDBRANCH  23  24
ENDBRANCH  13  23
TORSDOF 7
ENDMDL
MODEL 9
REMARK VINA RESULT:      -5.8     14.717     17.873
REMARK  Name = 11867040
REMARK  10 active torsions:
REMARK  status: ('A' for Active; 'I' for Inactive)
REMARK    1  A    between atoms: O_2  and  C_15
REMARK    2  A    between atoms: O_3  and  C_20
REMARK    3  A    between atoms: N_8  and  C_26
REMARK    4  A    between atoms: C_10  and  C_18
REMARK    5  A    between atoms: C_12  and  C_20
REMARK    6  A    between atoms: C_12  and  C_21
REMARK    7  A    between atoms: C_13  and  C_23
REMARK    8  A    between atoms: C_23  and  C_24
REMARK    9  A    between atoms: C_26  and  C_28
REMARK   10  A    between atoms: C_27  and  C_29
REMARK                            x       y       z     vdW  Elec       q    Type
REMARK                         _______ _______ _______ _____ _____    ______ ____
ROOT
ATOM      1  S   UNL     1      13.544   8.001   6.901  0.00  0.00    -0.057 S 
ATOM      5  O   UNL     1      10.709   5.354   4.304  0.00  0.00    -0.276 OA
ATOM      7  N   UNL     1      13.287   6.805   4.622  0.00  0.00    -0.229 NA
ATOM      9  N   UNL     1      11.450   6.604   6.169  0.00  0.00    -0.265 N 
ATOM     10  C   UNL     1      16.598   8.451   3.530  0.00  0.00    -0.019 C 
ATOM     11  C   UNL     1      17.175   8.456   5.014  0.00  0.00    +0.011 C 
ATOM     12  C   UNL     1      18.565   9.169   5.238  0.00  0.00    +0.021 C 
ATOM     13  C   UNL     1      15.456   7.335   3.449  0.00  0.00    +0.054 C 
ATOM     14  C   UNL     1      17.727   8.066   2.539  0.00  0.00    +0.010 C 
ATOM     15  C   UNL     1      19.561   8.708   4.137  0.00  0.00    +0.123 C 
ATOM     16  C   UNL     1      16.086   8.868   6.046  0.00  0.00    +0.049 C 
ATOM     17  C   UNL     1      19.010   8.865   2.724  0.00  0.00    +0.032 C 
ATOM     18  C   UNL     1      16.011   9.820   3.107  0.00  0.00    +0.012 C 
ATOM     19  C   UNL     1      14.516   7.437   4.623  0.00  0.00    +0.058 A 
ATOM     21  C   UNL     1      19.150   8.719   6.608  0.00  0.00    +0.016 C 
ATOM     22  C   UNL     1      14.826   8.114   5.785  0.00  0.00    +0.015 A 
ATOM     25  C   UNL     1      12.685   7.039   5.768  0.00  0.00    +0.165 A 
ATOM     27  C   UNL     1      10.556   5.807   5.433  0.00  0.00    +0.216 C 
ATOM     29  C   UNL     1       9.290   5.527   6.206  0.00  0.00    +0.109 C 
ATOM     36  H   UNL     1      11.171   6.899   7.101  0.00  0.00    +0.157 HD
ENDROOT
BRANCH  15   2
ATOM      2  O   UNL     1      20.788   9.431   4.234  0.00  0.00    -0.391 OA
ATOM     33  H   UNL     1      21.085   9.397   5.158  0.00  0.00    +0.210 HD
ENDBRANCH  15   2
BRANCH  12  20
ATOM     20  C   UNL     1      18.492  10.710   5.304  0.00  0.00    +0.165 C 
BRANCH  20   3
ATOM      3  O   UNL     1      19.461  11.150   6.229  0.00  0.00    -0.394 OA
ATOM     34  H   UNL     1      19.000  11.462   7.025  0.00  0.00    +0.209 HD
ENDBRANCH  20   3
ENDBRANCH  12  20
BRANCH  13  23
ATOM     23  C   UNL     1      14.693   7.298   2.119  0.00  0.00    +0.106 C 
BRANCH  23  24
ATOM      4  O   UNL     1      15.467   5.641   0.536  0.00  0.00    -0.276 OA
ATOM      8  N   UNL     1      13.842   5.066   2.095  0.00  0.00    -0.308 N 
ATOM     24  C   UNL     1      14.735   5.931   1.479  0.00  0.00    +0.214 C 
ATOM     35  H   UNL     1      13.312   5.380   2.903  0.00  0.00    +0.149 HD
BRANCH   8  26
ATOM     26  C   UNL     1      13.665   3.691   1.689  0.00  0.00    +0.178 C 
BRANCH  26  28
ATOM      6  O   UNL     1      11.570   4.104   0.588  0.00  0.00    -0.466 OA
ATOM     28  C   UNL     1      12.826   3.638   0.449  0.00  0.00    +0.122 A 
ATOM     30  C   UNL     1      13.085   3.204  -0.808  0.00  0.00    +0.046 A 
ATOM     31  C   UNL     1      11.884   3.415  -1.530  0.00  0.00    +0.041 A 
ATOM     32  C   UNL     1      10.994   3.964  -0.636  0.00  0.00    +0.195 A 
ENDBRANCH  26  28
ENDBRANCH   8  26
ENDBRANCH  23  24
ENDBRANCH  13  23
TORSDOF 7
ENDMDL
MODEL 10
REMARK VINA RESULT:      -5.8     27.470     30.840
REMARK  Name = 11867040
REMARK  10 active torsions:
REMARK  status: ('A' for Active; 'I' for Inactive)
REMARK    1  A    between atoms: O_2  and  C_15
REMARK    2  A    between atoms: O_3  and  C_20
REMARK    3  A    between atoms: N_8  and  C_26
REMARK    4  A    between atoms: C_10  and  C_18
REMARK    5  A    between atoms: C_12  and  C_20
REMARK    6  A    between atoms: C_12  and  C_21
REMARK    7  A    between atoms: C_13  and  C_23
REMARK    8  A    between atoms: C_23  and  C_24
REMARK    9  A    between atoms: C_26  and  C_28
REMARK   10  A    between atoms: C_27  and  C_29
REMARK                            x       y       z     vdW  Elec       q    Type
REMARK                         _______ _______ _______ _____ _____    ______ ____
ROOT
ATOM      1  S   UNL     1      -9.449  -9.656  12.701  0.00  0.00    -0.057 S 
ATOM      5  O   UNL     1      -4.886  -9.421  11.748  0.00  0.00    -0.276 OA
ATOM      7  N   UNL     1      -7.078  -9.844  13.715  0.00  0.00    -0.229 NA
ATOM      9  N   UNL     1      -7.217  -9.358  11.359  0.00  0.00    -0.265 N 
ATOM     10  C   UNL     1      -8.728 -10.163  17.185  0.00  0.00    -0.019 C 
ATOM     11  C   UNL     1     -10.021 -10.876  16.591  0.00  0.00    +0.011 C 
ATOM     12  C   UNL     1     -11.200 -11.172  17.596  0.00  0.00    +0.021 C 
ATOM     13  C   UNL     1      -7.533 -10.360  16.142  0.00  0.00    +0.054 C 
ATOM     14  C   UNL     1      -8.329 -10.846  18.519  0.00  0.00    +0.010 C 
ATOM     15  C   UNL     1     -10.622 -11.810  18.891  0.00  0.00    +0.123 C 
ATOM     16  C   UNL     1     -10.482 -10.205  15.264  0.00  0.00    +0.049 C 
ATOM     17  C   UNL     1      -9.481 -11.003  19.501  0.00  0.00    +0.032 C 
ATOM     18  C   UNL     1      -8.941  -8.651  17.446  0.00  0.00    +0.012 C 
ATOM     19  C   UNL     1      -7.985 -10.052  14.737  0.00  0.00    +0.058 A 
ATOM     21  C   UNL     1     -12.162 -12.215  16.957  0.00  0.00    +0.016 C 
ATOM     22  C   UNL     1      -9.312 -10.006  14.361  0.00  0.00    +0.015 A 
ATOM     25  C   UNL     1      -7.736  -9.619  12.599  0.00  0.00    +0.165 A 
ATOM     27  C   UNL     1      -5.857  -9.276  11.013  0.00  0.00    +0.216 C 
ATOM     29  C   UNL     1      -5.670  -8.975   9.546  0.00  0.00    +0.109 C 
ATOM     36  H   UNL     1      -7.906  -9.214  10.625  0.00  0.00    +0.157 HD
ENDROOT
BRANCH  15   2
ATOM      2  O   UNL     1     -11.646 -11.972  19.872  0.00  0.00    -0.391 OA
ATOM     33  H   UNL     1     -12.505 -11.905  19.425  0.00  0.00    +0.210 HD
ENDBRANCH  15   2
BRANCH  12  20
ATOM     20  C   UNL     1     -12.080  -9.948  17.931  0.00  0.00    +0.165 C 
BRANCH  20   3
ATOM      3  O   UNL     1     -13.390 -10.409  18.172  0.00  0.00    -0.394 OA
ATOM     34  H   UNL     1     -13.382 -11.380  18.121  0.00  0.00    +0.209 HD
ENDBRANCH  20   3
ENDBRANCH  12  20
BRANCH  13  23
ATOM     23  C   UNL     1      -6.246  -9.604  16.496  0.00  0.00    +0.106 C 
BRANCH  23  24
ATOM      4  O   UNL     1      -5.123 -11.647  17.144  0.00  0.00    -0.276 OA
ATOM      8  N   UNL     1      -3.916  -9.957  16.101  0.00  0.00    -0.308 N 
ATOM     24  C   UNL     1      -5.062 -10.534  16.630  0.00  0.00    +0.214 C 
ATOM     35  H   UNL     1      -3.971  -9.049  15.648  0.00  0.00    +0.149 HD
BRANCH   8  26
ATOM     26  C   UNL     1      -2.630 -10.616  16.094  0.00  0.00    +0.178 C 
BRANCH  26  28
ATOM      6  O   UNL     1      -2.384 -12.490  14.611  0.00  0.00    -0.466 OA
ATOM     28  C   UNL     1      -2.346 -11.149  14.724  0.00  0.00    +0.122 A 
ATOM     30  C   UNL     1      -2.051 -10.535  13.551  0.00  0.00    +0.046 A 
ATOM     31  C   UNL     1      -1.888 -11.584  12.613  0.00  0.00    +0.041 A 
ATOM     32  C   UNL     1      -2.101 -12.753  13.307  0.00  0.00    +0.195 A 
ENDBRANCH  26  28
ENDBRANCH   8  26
ENDBRANCH  23  24
ENDBRANCH  13  23
TORSDOF 7
ENDMDL
