MODEL 1
REMARK VINA RESULT:      -7.2      0.000      0.000
REMARK  Name = 11885174
REMARK  3 active torsions:
REMARK  status: ('A' for Active; 'I' for Inactive)
REMARK    1  A    between atoms: S_2  and  N_7
REMARK    2  A    between atoms: S_2  and  C_20
REMARK    3  A    between atoms: C_18  and  C_21
REMARK                            x       y       z     vdW  Elec       q    Type
REMARK                         _______ _______ _______ _____ _____    ______ ____
ROOT
ATOM      6  O   UNL     1     -14.802   9.385  20.022  0.00  0.00    -0.267 OA
ATOM      7  N   UNL     1     -11.401   9.514  16.380  0.00  0.00    -0.176 NA
ATOM      8  N   UNL     1     -12.583   9.482  19.310  0.00  0.00    -0.311 N 
ATOM      9  C   UNL     1     -11.657  11.442  17.946  0.00  0.00    +0.025 C 
ATOM     10  C   UNL     1     -10.184   9.571  18.547  0.00  0.00    +0.052 C 
ATOM     11  C   UNL     1     -10.330  11.089  18.604  0.00  0.00    +0.017 C 
ATOM     12  C   UNL     1     -11.674  10.976  16.480  0.00  0.00    +0.114 C 
ATOM     13  C   UNL     1     -10.143   9.113  17.078  0.00  0.00    +0.119 C 
ATOM     14  C   UNL     1     -12.799  10.831  18.768  0.00  0.00    +0.130 C 
ATOM     15  C   UNL     1     -11.321   8.886  19.283  0.00  0.00    +0.026 A 
ATOM     16  C   UNL     1     -11.121   7.704  19.887  0.00  0.00    +0.022 A 
ATOM     17  C   UNL     1     -13.683   8.874  19.947  0.00  0.00    +0.259 A 
ATOM     18  C   UNL     1     -13.437   7.533  20.584  0.00  0.00    +0.047 A 
ATOM     19  C   UNL     1     -12.199   7.018  20.542  0.00  0.00    +0.015 A 
ENDROOT
BRANCH  18  21
ATOM      1 CL   UNL     1     -17.863   4.500  23.235  0.00  0.00    -0.084 Cl
ATOM     21  C   UNL     1     -14.527   6.787  21.237  0.00  0.00    -0.013 A 
ATOM     24  C   UNL     1     -14.583   6.705  22.629  0.00  0.00    +0.010 A 
ATOM     25  C   UNL     1     -15.505   6.159  20.464  0.00  0.00    +0.010 A 
ATOM     29  C   UNL     1     -15.614   5.999  23.247  0.00  0.00    +0.020 A 
ATOM     30  C   UNL     1     -16.537   5.453  21.082  0.00  0.00    +0.020 A 
ATOM     31  C   UNL     1     -16.591   5.372  22.473  0.00  0.00    +0.041 A 
ENDBRANCH  18  21
BRANCH   7   2
ATOM      2  S   UNL     1     -11.643   8.820  14.835  0.00  0.00    +0.061 S 
ATOM      4  O   UNL     1     -10.733   7.703  14.683  0.00  0.00    -0.153 OA
ATOM      5  O   UNL     1     -11.732   9.876  13.847  0.00  0.00    -0.153 OA
BRANCH   2  20
ATOM      3  F   UNL     1     -16.999   6.406  14.804  0.00  0.00    -0.205 F 
ATOM     20  C   UNL     1     -13.274   8.084  14.825  0.00  0.00    +0.106 A 
ATOM     22  C   UNL     1     -14.065   8.233  15.939  0.00  0.00    +0.031 A 
ATOM     23  C   UNL     1     -13.675   7.398  13.705  0.00  0.00    +0.031 A 
ATOM     26  C   UNL     1     -15.336   7.660  15.932  0.00  0.00    +0.040 A 
ATOM     27  C   UNL     1     -14.947   6.826  13.699  0.00  0.00    +0.040 A 
ATOM     28  C   UNL     1     -15.777   6.956  14.812  0.00  0.00    +0.124 A 
ENDBRANCH   2  20
ENDBRANCH   7   2
TORSDOF 3
ENDMDL
MODEL 2
REMARK VINA RESULT:      -7.2     27.707     30.459
REMARK  Name = 11885174
REMARK  3 active torsions:
REMARK  status: ('A' for Active; 'I' for Inactive)
REMARK    1  A    between atoms: S_2  and  N_7
REMARK    2  A    between atoms: S_2  and  C_20
REMARK    3  A    between atoms: C_18  and  C_21
REMARK                            x       y       z     vdW  Elec       q    Type
REMARK                         _______ _______ _______ _____ _____    ______ ____
ROOT
ATOM      6  O   UNL     1      12.078   7.857   2.158  0.00  0.00    -0.267 OA
ATOM      7  N   UNL     1      13.319   4.119  -0.898  0.00  0.00    -0.176 NA
ATOM      8  N   UNL     1      12.701   5.637   1.804  0.00  0.00    -0.311 N 
ATOM      9  C   UNL     1      14.955   4.983   0.779  0.00  0.00    +0.025 C 
ATOM     10  C   UNL     1      13.357   3.235   1.426  0.00  0.00    +0.052 C 
ATOM     11  C   UNL     1      14.797   3.709   1.597  0.00  0.00    +0.017 C 
ATOM     12  C   UNL     1      14.675   4.710  -0.708  0.00  0.00    +0.114 C 
ATOM     13  C   UNL     1      13.096   2.906  -0.055  0.00  0.00    +0.119 C 
ATOM     14  C   UNL     1      14.034   6.065   1.359  0.00  0.00    +0.130 C 
ATOM     15  C   UNL     1      12.375   4.284   1.915  0.00  0.00    +0.026 A 
ATOM     16  C   UNL     1      11.193   3.916   2.433  0.00  0.00    +0.022 A 
ATOM     17  C   UNL     1      11.814   6.655   2.208  0.00  0.00    +0.259 A 
ATOM     18  C   UNL     1      10.482   6.212   2.752  0.00  0.00    +0.047 A 
ATOM     19  C   UNL     1      10.232   4.897   2.851  0.00  0.00    +0.015 A 
ENDROOT
BRANCH  18  21
ATOM      1 CL   UNL     1       6.332  10.191   4.414  0.00  0.00    -0.084 Cl
ATOM     21  C   UNL     1       9.461   7.192   3.161  0.00  0.00    -0.013 A 
ATOM     24  C   UNL     1       9.100   7.306   4.504  0.00  0.00    +0.010 A 
ATOM     25  C   UNL     1       8.851   8.007   2.205  0.00  0.00    +0.010 A 
ATOM     29  C   UNL     1       8.133   8.233   4.892  0.00  0.00    +0.020 A 
ATOM     30  C   UNL     1       7.884   8.934   2.593  0.00  0.00    +0.020 A 
ATOM     31  C   UNL     1       7.525   9.047   3.936  0.00  0.00    +0.041 A 
ENDBRANCH  18  21
BRANCH   7   2
ATOM      2  S   UNL     1      12.782   4.004  -2.518  0.00  0.00    +0.061 S 
ATOM      4  O   UNL     1      12.625   2.603  -2.853  0.00  0.00    -0.153 OA
ATOM      5  O   UNL     1      13.557   4.907  -3.342  0.00  0.00    -0.153 OA
BRANCH   2  20
ATOM      3  F   UNL     1       7.343   6.216  -2.734  0.00  0.00    -0.205 F 
ATOM     20  C   UNL     1      11.125   4.677  -2.584  0.00  0.00    +0.106 A 
ATOM     22  C   UNL     1      10.605   5.247  -1.447  0.00  0.00    +0.031 A 
ATOM     23  C   UNL     1      10.434   4.599  -3.769  0.00  0.00    +0.031 A 
ATOM     26  C   UNL     1       9.314   5.772  -1.498  0.00  0.00    +0.040 A 
ATOM     27  C   UNL     1       9.144   5.125  -3.819  0.00  0.00    +0.040 A 
ATOM     28  C   UNL     1       8.583   5.711  -2.684  0.00  0.00    +0.124 A 
ENDBRANCH   2  20
ENDBRANCH   7   2
TORSDOF 3
ENDMDL
MODEL 3
REMARK VINA RESULT:      -6.9     19.129     20.302
REMARK  Name = 11885174
REMARK  3 active torsions:
REMARK  status: ('A' for Active; 'I' for Inactive)
REMARK    1  A    between atoms: S_2  and  N_7
REMARK    2  A    between atoms: S_2  and  C_20
REMARK    3  A    between atoms: C_18  and  C_21
REMARK                            x       y       z     vdW  Elec       q    Type
REMARK                         _______ _______ _______ _____ _____    ______ ____
ROOT
ATOM      6  O   UNL     1      -7.705  -8.804  17.470  0.00  0.00    -0.267 OA
ATOM      7  N   UNL     1      -4.050 -11.656  15.638  0.00  0.00    -0.176 NA
ATOM      8  N   UNL     1      -6.679 -10.883  17.210  0.00  0.00    -0.311 N 
ATOM      9  C   UNL     1      -4.332 -11.384  18.104  0.00  0.00    +0.025 C 
ATOM     10  C   UNL     1      -5.585 -13.132  16.919  0.00  0.00    +0.052 C 
ATOM     11  C   UNL     1      -4.833 -12.819  18.209  0.00  0.00    +0.017 C 
ATOM     12  C   UNL     1      -3.385 -11.228  16.903  0.00  0.00    +0.114 C 
ATOM     13  C   UNL     1      -4.622 -13.033  15.724  0.00  0.00    +0.119 C 
ATOM     14  C   UNL     1      -5.539 -10.440  18.025  0.00  0.00    +0.130 C 
ATOM     15  C   UNL     1      -6.761 -12.191  16.731  0.00  0.00    +0.026 A 
ATOM     16  C   UNL     1      -7.864 -12.606  16.089  0.00  0.00    +0.022 A 
ATOM     17  C   UNL     1      -7.725  -9.955  17.032  0.00  0.00    +0.259 A 
ATOM     18  C   UNL     1      -8.934 -10.439  16.277  0.00  0.00    +0.047 A 
ATOM     19  C   UNL     1      -8.963 -11.712  15.856  0.00  0.00    +0.015 A 
ENDROOT
BRANCH  18  21
ATOM      1 CL   UNL     1     -13.531  -6.783  15.126  0.00  0.00    -0.084 Cl
ATOM     21  C   UNL     1     -10.066  -9.539  15.993  0.00  0.00    -0.013 A 
ATOM     24  C   UNL     1     -10.143  -8.877  14.768  0.00  0.00    +0.010 A 
ATOM     25  C   UNL     1     -11.063  -9.347  16.951  0.00  0.00    +0.010 A 
ATOM     29  C   UNL     1     -11.214  -8.025  14.499  0.00  0.00    +0.020 A 
ATOM     30  C   UNL     1     -12.135  -8.495  16.683  0.00  0.00    +0.020 A 
ATOM     31  C   UNL     1     -12.210  -7.834  15.457  0.00  0.00    +0.041 A 
ENDBRANCH  18  21
BRANCH   7   2
ATOM      2  S   UNL     1      -3.201 -11.295  14.197  0.00  0.00    +0.061 S 
ATOM      4  O   UNL     1      -2.885 -12.538  13.525  0.00  0.00    -0.153 OA
ATOM      5  O   UNL     1      -2.190 -10.297  14.477  0.00  0.00    -0.153 OA
BRANCH   2  20
ATOM      3  F   UNL     1      -6.935  -8.548  10.588  0.00  0.00    -0.205 F 
ATOM     20  C   UNL     1      -4.338 -10.458  13.098  0.00  0.00    +0.106 A 
ATOM     22  C   UNL     1      -3.902 -10.119  11.840  0.00  0.00    +0.031 A 
ATOM     23  C   UNL     1      -5.605 -10.185  13.553  0.00  0.00    +0.031 A 
ATOM     26  C   UNL     1      -4.788  -9.467  10.983  0.00  0.00    +0.040 A 
ATOM     27  C   UNL     1      -6.491  -9.533  12.695  0.00  0.00    +0.040 A 
ATOM     28  C   UNL     1      -6.083  -9.173  11.411  0.00  0.00    +0.124 A 
ENDBRANCH   2  20
ENDBRANCH   7   2
TORSDOF 3
ENDMDL
MODEL 4
REMARK VINA RESULT:      -6.8     21.524     23.631
REMARK  Name = 11885174
REMARK  3 active torsions:
REMARK  status: ('A' for Active; 'I' for Inactive)
REMARK    1  A    between atoms: S_2  and  N_7
REMARK    2  A    between atoms: S_2  and  C_20
REMARK    3  A    between atoms: C_18  and  C_21
REMARK                            x       y       z     vdW  Elec       q    Type
REMARK                         _______ _______ _______ _____ _____    ______ ____
ROOT
ATOM      6  O   UNL     1      -4.650 -13.135   8.789  0.00  0.00    -0.267 OA
ATOM      7  N   UNL     1      -4.577 -11.642  13.545  0.00  0.00    -0.176 NA
ATOM      8  N   UNL     1      -3.652 -11.960  10.541  0.00  0.00    -0.311 N 
ATOM      9  C   UNL     1      -2.770 -13.114  12.650  0.00  0.00    +0.025 C 
ATOM     10  C   UNL     1      -2.580 -10.676  12.423  0.00  0.00    +0.052 C 
ATOM     11  C   UNL     1      -1.789 -11.950  12.704  0.00  0.00    +0.017 C 
ATOM     12  C   UNL     1      -3.870 -12.944  13.710  0.00  0.00    +0.114 C 
ATOM     13  C   UNL     1      -3.643 -10.477  13.518  0.00  0.00    +0.119 C 
ATOM     14  C   UNL     1      -3.338 -13.220  11.228  0.00  0.00    +0.130 C 
ATOM     15  C   UNL     1      -3.235 -10.731  11.055  0.00  0.00    +0.026 A 
ATOM     16  C   UNL     1      -3.432  -9.605  10.352  0.00  0.00    +0.022 A 
ATOM     17  C   UNL     1      -4.299 -12.067   9.292  0.00  0.00    +0.259 A 
ATOM     18  C   UNL     1      -4.537 -10.783   8.545  0.00  0.00    +0.047 A 
ATOM     19  C   UNL     1      -4.098  -9.634   9.081  0.00  0.00    +0.015 A 
ENDROOT
BRANCH  18  21
ATOM      1 CL   UNL     1      -7.412 -10.746   3.296  0.00  0.00    -0.084 Cl
ATOM     21  C   UNL     1      -5.245 -10.773   7.252  0.00  0.00    -0.013 A 
ATOM     24  C   UNL     1      -6.463 -10.105   7.127  0.00  0.00    +0.010 A 
ATOM     25  C   UNL     1      -4.697 -11.434   6.151  0.00  0.00    +0.010 A 
ATOM     29  C   UNL     1      -7.133 -10.096   5.904  0.00  0.00    +0.020 A 
ATOM     30  C   UNL     1      -5.368 -11.425   4.928  0.00  0.00    +0.020 A 
ATOM     31  C   UNL     1      -6.586 -10.757   4.804  0.00  0.00    +0.041 A 
ENDBRANCH  18  21
BRANCH   7   2
ATOM      2  S   UNL     1      -5.986 -11.439  14.494  0.00  0.00    +0.061 S 
ATOM      4  O   UNL     1      -6.870 -12.561  14.253  0.00  0.00    -0.153 OA
ATOM      5  O   UNL     1      -6.440 -10.068  14.386  0.00  0.00    -0.153 OA
BRANCH   2  20
ATOM      3  F   UNL     1      -4.408 -11.958  20.130  0.00  0.00    -0.205 F 
ATOM     20  C   UNL     1      -5.505 -11.598  16.211  0.00  0.00    +0.106 A 
ATOM     22  C   UNL     1      -5.167 -10.459  16.903  0.00  0.00    +0.031 A 
ATOM     23  C   UNL     1      -5.491 -12.851  16.773  0.00  0.00    +0.031 A 
ATOM     26  C   UNL     1      -4.792 -10.583  18.240  0.00  0.00    +0.040 A 
ATOM     27  C   UNL     1      -5.117 -12.973  18.111  0.00  0.00    +0.040 A 
ATOM     28  C   UNL     1      -4.767 -11.840  18.844  0.00  0.00    +0.124 A 
ENDBRANCH   2  20
ENDBRANCH   7   2
TORSDOF 3
ENDMDL
MODEL 5
REMARK VINA RESULT:      -6.8     27.290     30.464
REMARK  Name = 11885174
REMARK  3 active torsions:
REMARK  status: ('A' for Active; 'I' for Inactive)
REMARK    1  A    between atoms: S_2  and  N_7
REMARK    2  A    between atoms: S_2  and  C_20
REMARK    3  A    between atoms: C_18  and  C_21
REMARK                            x       y       z     vdW  Elec       q    Type
REMARK                         _______ _______ _______ _____ _____    ______ ____
ROOT
ATOM      6  O   UNL     1      10.497   6.917   1.235  0.00  0.00    -0.267 OA
ATOM      7  N   UNL     1      11.354   7.140   6.141  0.00  0.00    -0.176 NA
ATOM      8  N   UNL     1      10.075   6.191   3.412  0.00  0.00    -0.311 N 
ATOM      9  C   UNL     1       9.111   7.731   5.217  0.00  0.00    +0.025 C 
ATOM     10  C   UNL     1       9.628   5.393   5.758  0.00  0.00    +0.052 C 
ATOM     11  C   UNL     1       8.529   6.450   5.799  0.00  0.00    +0.017 C 
ATOM     12  C   UNL     1      10.314   8.205   6.049  0.00  0.00    +0.114 C 
ATOM     13  C   UNL     1      10.808   5.842   6.638  0.00  0.00    +0.119 C 
ATOM     14  C   UNL     1       9.474   7.490   3.746  0.00  0.00    +0.130 C 
ATOM     15  C   UNL     1      10.094   5.145   4.335  0.00  0.00    +0.026 A 
ATOM     16  C   UNL     1      10.542   3.933   3.971  0.00  0.00    +0.022 A 
ATOM     17  C   UNL     1      10.530   6.028   2.088  0.00  0.00    +0.259 A 
ATOM     18  C   UNL     1      11.059   4.669   1.720  0.00  0.00    +0.047 A 
ATOM     19  C   UNL     1      11.036   3.697   2.644  0.00  0.00    +0.015 A 
ENDROOT
BRANCH  18  21
ATOM      1 CL   UNL     1      13.267   3.573  -3.734  0.00  0.00    -0.084 Cl
ATOM     21  C   UNL     1      11.603   4.400   0.377  0.00  0.00    -0.013 A 
ATOM     24  C   UNL     1      10.747   4.333  -0.723  0.00  0.00    +0.010 A 
ATOM     25  C   UNL     1      12.975   4.209   0.204  0.00  0.00    +0.010 A 
ATOM     29  C   UNL     1      11.261   4.078  -1.995  0.00  0.00    +0.020 A 
ATOM     30  C   UNL     1      13.489   3.954  -1.068  0.00  0.00    +0.020 A 
ATOM     31  C   UNL     1      12.633   3.888  -2.167  0.00  0.00    +0.041 A 
ENDBRANCH  18  21
BRANCH   7   2
ATOM      2  S   UNL     1      12.849   7.622   6.819  0.00  0.00    +0.061 S 
ATOM      4  O   UNL     1      13.311   6.577   7.708  0.00  0.00    -0.153 OA
ATOM      5  O   UNL     1      12.756   9.004   7.244  0.00  0.00    -0.153 OA
BRANCH   2  20
ATOM      3  F   UNL     1      16.800   7.747   2.473  0.00  0.00    -0.205 F 
ATOM     20  C   UNL     1      14.052   7.660   5.495  0.00  0.00    +0.106 A 
ATOM     22  C   UNL     1      15.339   8.041   5.792  0.00  0.00    +0.031 A 
ATOM     23  C   UNL     1      13.645   7.309   4.231  0.00  0.00    +0.031 A 
ATOM     26  C   UNL     1      16.277   8.070   4.760  0.00  0.00    +0.040 A 
ATOM     27  C   UNL     1      14.584   7.338   3.200  0.00  0.00    +0.040 A 
ATOM     28  C   UNL     1      15.899   7.720   3.464  0.00  0.00    +0.124 A 
ENDBRANCH   2  20
ENDBRANCH   7   2
TORSDOF 3
ENDMDL
MODEL 6
REMARK VINA RESULT:      -6.8     30.109     31.686
REMARK  Name = 11885174
REMARK  3 active torsions:
REMARK  status: ('A' for Active; 'I' for Inactive)
REMARK    1  A    between atoms: S_2  and  N_7
REMARK    2  A    between atoms: S_2  and  C_20
REMARK    3  A    between atoms: C_18  and  C_21
REMARK                            x       y       z     vdW  Elec       q    Type
REMARK                         _______ _______ _______ _____ _____    ______ ____
ROOT
ATOM      6  O   UNL     1       9.165 -11.799  31.890  0.00  0.00    -0.267 OA
ATOM      7  N   UNL     1       7.115  -8.697  35.210  0.00  0.00    -0.176 NA
ATOM      8  N   UNL     1       8.487  -9.662  32.532  0.00  0.00    -0.311 N 
ATOM      9  C   UNL     1       9.505  -8.436  34.537  0.00  0.00    +0.025 C 
ATOM     10  C   UNL     1       7.741  -7.355  33.214  0.00  0.00    +0.052 C 
ATOM     11  C   UNL     1       9.153  -7.172  33.763  0.00  0.00    +0.017 C 
ATOM     12  C   UNL     1       8.523  -8.648  35.700  0.00  0.00    +0.114 C 
ATOM     13  C   UNL     1       6.751  -7.509  34.382  0.00  0.00    +0.119 C 
ATOM     14  C   UNL     1       9.530  -9.624  33.566  0.00  0.00    +0.130 C 
ATOM     15  C   UNL     1       7.665  -8.559  32.293  0.00  0.00    +0.026 A 
ATOM     16  C   UNL     1       6.798  -8.574  31.268  0.00  0.00    +0.022 A 
ATOM     17  C   UNL     1       8.433 -10.821  31.732  0.00  0.00    +0.259 A 
ATOM     18  C   UNL     1       7.427 -10.822  30.613  0.00  0.00    +0.047 A 
ATOM     19  C   UNL     1       6.677  -9.726  30.421  0.00  0.00    +0.015 A 
ENDROOT
BRANCH  18  21
ATOM      1 CL   UNL     1       6.720 -15.601  27.081  0.00  0.00    -0.084 Cl
ATOM     21  C   UNL     1       7.254 -11.999  29.744  0.00  0.00    -0.013 A 
ATOM     24  C   UNL     1       8.112 -12.202  28.662  0.00  0.00    +0.010 A 
ATOM     25  C   UNL     1       6.229 -12.912  30.000  0.00  0.00    +0.010 A 
ATOM     29  C   UNL     1       7.947 -13.316  27.839  0.00  0.00    +0.020 A 
ATOM     30  C   UNL     1       6.065 -14.026  29.177  0.00  0.00    +0.020 A 
ATOM     31  C   UNL     1       6.923 -14.228  28.096  0.00  0.00    +0.041 A 
ENDBRANCH  18  21
BRANCH   7   2
ATOM      2  S   UNL     1       5.947  -9.182  36.362  0.00  0.00    +0.061 S 
ATOM      4  O   UNL     1       5.099  -8.048  36.665  0.00  0.00    -0.153 OA
ATOM      5  O   UNL     1       6.595  -9.954  37.402  0.00  0.00    -0.153 OA
BRANCH   2  20
ATOM      3  F   UNL     1       2.388 -13.054  33.743  0.00  0.00    -0.205 F 
ATOM     20  C   UNL     1       4.863 -10.362  35.564  0.00  0.00    +0.106 A 
ATOM     22  C   UNL     1       3.549 -10.416  35.963  0.00  0.00    +0.031 A 
ATOM     23  C   UNL     1       5.385 -11.170  34.584  0.00  0.00    +0.031 A 
ATOM     26  C   UNL     1       2.704 -11.335  35.341  0.00  0.00    +0.040 A 
ATOM     27  C   UNL     1       4.539 -12.089  33.963  0.00  0.00    +0.040 A 
ATOM     28  C   UNL     1       3.199 -12.172  34.341  0.00  0.00    +0.124 A 
ENDBRANCH   2  20
ENDBRANCH   7   2
TORSDOF 3
ENDMDL
MODEL 7
REMARK VINA RESULT:      -6.8     21.986     23.041
REMARK  Name = 11885174
REMARK  3 active torsions:
REMARK  status: ('A' for Active; 'I' for Inactive)
REMARK    1  A    between atoms: S_2  and  N_7
REMARK    2  A    between atoms: S_2  and  C_20
REMARK    3  A    between atoms: C_18  and  C_21
REMARK                            x       y       z     vdW  Elec       q    Type
REMARK                         _______ _______ _______ _____ _____    ______ ____
ROOT
ATOM      6  O   UNL     1      -6.658 -10.724  14.581  0.00  0.00    -0.267 OA
ATOM      7  N   UNL     1      -2.502 -13.056  13.117  0.00  0.00    -0.176 NA
ATOM      8  N   UNL     1      -4.336 -10.808  14.367  0.00  0.00    -0.311 N 
ATOM      9  C   UNL     1      -3.162 -10.876  12.093  0.00  0.00    +0.025 C 
ATOM     10  C   UNL     1      -1.828 -10.900  14.155  0.00  0.00    +0.052 C 
ATOM     11  C   UNL     1      -2.018 -10.183  12.821  0.00  0.00    +0.017 C 
ATOM     12  C   UNL     1      -2.825 -12.355  11.841  0.00  0.00    +0.114 C 
ATOM     13  C   UNL     1      -1.434 -12.366  13.900  0.00  0.00    +0.119 C 
ATOM     14  C   UNL     1      -4.450 -10.700  12.907  0.00  0.00    +0.130 C 
ATOM     15  C   UNL     1      -3.090 -10.830  14.996  0.00  0.00    +0.026 A 
ATOM     16  C   UNL     1      -3.010 -10.812  16.336  0.00  0.00    +0.022 A 
ATOM     17  C   UNL     1      -5.541 -10.780  15.099  0.00  0.00    +0.259 A 
ATOM     18  C   UNL     1      -5.420 -10.796  16.598  0.00  0.00    +0.047 A 
ATOM     19  C   UNL     1      -4.195 -10.800  17.146  0.00  0.00    +0.015 A 
ENDROOT
BRANCH  18  21
ATOM      1 CL   UNL     1     -10.277 -10.877  20.094  0.00  0.00    -0.084 Cl
ATOM     21  C   UNL     1      -6.616 -10.815  17.460  0.00  0.00    -0.013 A 
ATOM     24  C   UNL     1      -6.804 -11.856  18.370  0.00  0.00    +0.010 A 
ATOM     25  C   UNL     1      -7.562  -9.794  17.365  0.00  0.00    +0.010 A 
ATOM     29  C   UNL     1      -7.936 -11.875  19.185  0.00  0.00    +0.020 A 
ATOM     30  C   UNL     1      -8.694  -9.813  18.180  0.00  0.00    +0.020 A 
ATOM     31  C   UNL     1      -8.881 -10.853  19.090  0.00  0.00    +0.041 A 
ENDBRANCH  18  21
BRANCH   7   2
ATOM      2  S   UNL     1      -2.359 -14.757  13.011  0.00  0.00    +0.061 S 
ATOM      4  O   UNL     1      -0.953 -15.101  12.962  0.00  0.00    -0.153 OA
ATOM      5  O   UNL     1      -3.304 -15.255  12.033  0.00  0.00    -0.153 OA
BRANCH   2  20
ATOM      3  F   UNL     1      -4.272 -17.007  18.091  0.00  0.00    -0.205 F 
ATOM     20  C   UNL     1      -2.942 -15.443  14.559  0.00  0.00    +0.106 A 
ATOM     22  C   UNL     1      -2.350 -16.590  15.030  0.00  0.00    +0.031 A 
ATOM     23  C   UNL     1      -3.960 -14.797  15.217  0.00  0.00    +0.031 A 
ATOM     26  C   UNL     1      -2.804 -17.124  16.236  0.00  0.00    +0.040 A 
ATOM     27  C   UNL     1      -4.413 -15.332  16.423  0.00  0.00    +0.040 A 
ATOM     28  C   UNL     1      -3.836 -16.495  16.932  0.00  0.00    +0.124 A 
ENDBRANCH   2  20
ENDBRANCH   7   2
TORSDOF 3
ENDMDL
MODEL 8
REMARK VINA RESULT:      -6.7     19.427     20.973
REMARK  Name = 11885174
REMARK  3 active torsions:
REMARK  status: ('A' for Active; 'I' for Inactive)
REMARK    1  A    between atoms: S_2  and  N_7
REMARK    2  A    between atoms: S_2  and  C_20
REMARK    3  A    between atoms: C_18  and  C_21
REMARK                            x       y       z     vdW  Elec       q    Type
REMARK                         _______ _______ _______ _____ _____    ______ ____
ROOT
ATOM      6  O   UNL     1      -5.901 -13.257  15.642  0.00  0.00    -0.267 OA
ATOM      7  N   UNL     1     -10.046 -11.868  18.039  0.00  0.00    -0.176 NA
ATOM      8  N   UNL     1      -6.982 -12.470  17.554  0.00  0.00    -0.311 N 
ATOM      9  C   UNL     1      -8.736 -13.848  18.813  0.00  0.00    +0.025 C 
ATOM     10  C   UNL     1      -8.142 -11.605  19.616  0.00  0.00    +0.052 C 
ATOM     11  C   UNL     1      -8.268 -13.067  20.033  0.00  0.00    +0.017 C 
ATOM     12  C   UNL     1     -10.101 -13.330  18.329  0.00  0.00    +0.114 C 
ATOM     13  C   UNL     1      -9.520 -11.071  19.187  0.00  0.00    +0.119 C 
ATOM     14  C   UNL     1      -7.658 -13.763  17.724  0.00  0.00    +0.130 C 
ATOM     15  C   UNL     1      -7.139 -11.444  18.488  0.00  0.00    +0.026 A 
ATOM     16  C   UNL     1      -6.422 -10.315  18.375  0.00  0.00    +0.022 A 
ATOM     17  C   UNL     1      -6.093 -12.361  16.466  0.00  0.00    +0.259 A 
ATOM     18  C   UNL     1      -5.330 -11.070  16.346  0.00  0.00    +0.047 A 
ATOM     19  C   UNL     1      -5.509 -10.126  17.283  0.00  0.00    +0.015 A 
ENDROOT
BRANCH  18  21
ATOM      1 CL   UNL     1      -1.584 -10.100  11.780  0.00  0.00    -0.084 Cl
ATOM     21  C   UNL     1      -4.407 -10.830  15.222  0.00  0.00    -0.013 A 
ATOM     24  C   UNL     1      -4.912 -10.535  13.955  0.00  0.00    +0.010 A 
ATOM     25  C   UNL     1      -3.028 -10.900  15.423  0.00  0.00    +0.010 A 
ATOM     29  C   UNL     1      -4.039 -10.308  12.891  0.00  0.00    +0.020 A 
ATOM     30  C   UNL     1      -2.155 -10.674  14.359  0.00  0.00    +0.020 A 
ATOM     31  C   UNL     1      -2.660 -10.378  13.093  0.00  0.00    +0.041 A 
ENDBRANCH  18  21
BRANCH   7   2
ATOM      2  S   UNL     1     -11.419 -11.217  17.254  0.00  0.00    +0.061 S 
ATOM      4  O   UNL     1     -12.453 -10.992  18.243  0.00  0.00    -0.153 OA
ATOM      5  O   UNL     1     -11.672 -11.964  16.039  0.00  0.00    -0.153 OA
BRANCH   2  20
ATOM      3  F   UNL     1      -9.981  -5.852  15.340  0.00  0.00    -0.205 F 
ATOM     20  C   UNL     1     -10.981  -9.583  16.670  0.00  0.00    +0.106 A 
ATOM     22  C   UNL     1     -11.647  -8.501  17.195  0.00  0.00    +0.031 A 
ATOM     23  C   UNL     1      -9.996  -9.471  15.719  0.00  0.00    +0.031 A 
ATOM     26  C   UNL     1     -11.305  -7.228  16.741  0.00  0.00    +0.040 A 
ATOM     27  C   UNL     1      -9.656  -8.196  15.266  0.00  0.00    +0.040 A 
ATOM     28  C   UNL     1     -10.310  -7.075  15.776  0.00  0.00    +0.124 A 
ENDBRANCH   2  20
ENDBRANCH   7   2
TORSDOF 3
ENDMDL
MODEL 9
REMARK VINA RESULT:      -6.6     29.762     31.382
REMARK  Name = 11885174
REMARK  3 active torsions:
REMARK  status: ('A' for Active; 'I' for Inactive)
REMARK    1  A    between atoms: S_2  and  N_7
REMARK    2  A    between atoms: S_2  and  C_20
REMARK    3  A    between atoms: C_18  and  C_21
REMARK                            x       y       z     vdW  Elec       q    Type
REMARK                         _______ _______ _______ _____ _____    ______ ____
ROOT
ATOM      6  O   UNL     1       9.155  -9.671  33.286  0.00  0.00    -0.267 OA
ATOM      7  N   UNL     1       8.091  -5.906  36.375  0.00  0.00    -0.176 NA
ATOM      8  N   UNL     1       8.564  -7.445  33.657  0.00  0.00    -0.311 N 
ATOM      9  C   UNL     1      10.093  -5.799  34.887  0.00  0.00    +0.025 C 
ATOM     10  C   UNL     1       7.911  -5.045  34.050  0.00  0.00    +0.052 C 
ATOM     11  C   UNL     1       9.406  -4.742  34.032  0.00  0.00    +0.017 C 
ATOM     12  C   UNL     1       9.573  -5.747  36.333  0.00  0.00    +0.114 C 
ATOM     13  C   UNL     1       7.380  -4.935  35.491  0.00  0.00    +0.119 C 
ATOM     14  C   UNL     1       9.885  -7.174  34.239  0.00  0.00    +0.130 C 
ATOM     15  C   UNL     1       7.626  -6.425  33.486  0.00  0.00    +0.026 A 
ATOM     16  C   UNL     1       6.472  -6.670  32.847  0.00  0.00    +0.022 A 
ATOM     17  C   UNL     1       8.338  -8.754  33.186  0.00  0.00    +0.259 A 
ATOM     18  C   UNL     1       7.020  -9.007  32.505  0.00  0.00    +0.047 A 
ATOM     19  C   UNL     1       6.166  -7.984  32.355  0.00  0.00    +0.015 A 
ENDROOT
BRANCH  18  21
ATOM      1 CL   UNL     1       5.554 -14.459  30.517  0.00  0.00    -0.084 Cl
ATOM     21  C   UNL     1       6.660 -10.350  32.015  0.00  0.00    -0.013 A 
ATOM     24  C   UNL     1       6.811 -10.665  30.665  0.00  0.00    +0.010 A 
ATOM     25  C   UNL     1       6.165 -11.307  32.902  0.00  0.00    +0.010 A 
ATOM     29  C   UNL     1       6.470 -11.936  30.201  0.00  0.00    +0.020 A 
ATOM     30  C   UNL     1       5.824 -12.578  32.439  0.00  0.00    +0.020 A 
ATOM     31  C   UNL     1       5.975 -12.892  31.088  0.00  0.00    +0.041 A 
ENDBRANCH  18  21
BRANCH   7   2
ATOM      2  S   UNL     1       7.414  -6.122  37.931  0.00  0.00    +0.061 S 
ATOM      4  O   UNL     1       6.903  -4.848  38.393  0.00  0.00    -0.153 OA
ATOM      5  O   UNL     1       8.313  -6.924  38.735  0.00  0.00    -0.153 OA
BRANCH   2  20
ATOM      3  F   UNL     1       2.655  -9.516  37.331  0.00  0.00    -0.205 F 
ATOM     20  C   UNL     1       5.964  -7.156  37.748  0.00  0.00    +0.106 A 
ATOM     22  C   UNL     1       4.926  -6.989  38.632  0.00  0.00    +0.031 A 
ATOM     23  C   UNL     1       5.944  -8.079  36.732  0.00  0.00    +0.031 A 
ATOM     26  C   UNL     1       3.796  -7.794  38.490  0.00  0.00    +0.040 A 
ATOM     27  C   UNL     1       4.814  -8.884  36.590  0.00  0.00    +0.040 A 
ATOM     28  C   UNL     1       3.741  -8.742  37.469  0.00  0.00    +0.124 A 
ENDBRANCH   2  20
ENDBRANCH   7   2
TORSDOF 3
ENDMDL
MODEL 10
REMARK VINA RESULT:      -6.5     20.738     22.545
REMARK  Name = 11885174
REMARK  3 active torsions:
REMARK  status: ('A' for Active; 'I' for Inactive)
REMARK    1  A    between atoms: S_2  and  N_7
REMARK    2  A    between atoms: S_2  and  C_20
REMARK    3  A    between atoms: C_18  and  C_21
REMARK                            x       y       z     vdW  Elec       q    Type
REMARK                         _______ _______ _______ _____ _____    ______ ____
ROOT
ATOM      6  O   UNL     1      -5.784 -12.370  10.471  0.00  0.00    -0.267 OA
ATOM      7  N   UNL     1      -3.571 -12.087  14.929  0.00  0.00    -0.176 NA
ATOM      8  N   UNL     1      -3.861 -12.262  11.788  0.00  0.00    -0.311 N 
ATOM      9  C   UNL     1      -3.238 -14.087  13.472  0.00  0.00    +0.025 C 
ATOM     10  C   UNL     1      -1.782 -12.129  13.203  0.00  0.00    +0.052 C 
ATOM     11  C   UNL     1      -1.804 -13.654  13.197  0.00  0.00    +0.017 C 
ATOM     12  C   UNL     1      -3.706 -13.569  14.842  0.00  0.00    +0.114 C 
ATOM     13  C   UNL     1      -2.195 -11.613  14.593  0.00  0.00    +0.119 C 
ATOM     14  C   UNL     1      -4.134 -13.601  12.325  0.00  0.00    +0.130 C 
ATOM     15  C   UNL     1      -2.702 -11.565  12.136  0.00  0.00    +0.026 A 
ATOM     16  C   UNL     1      -2.416 -10.395  11.544  0.00  0.00    +0.022 A 
ATOM     17  C   UNL     1      -4.770 -11.769  10.830  0.00  0.00    +0.259 A 
ATOM     18  C   UNL     1      -4.440 -10.438  10.210  0.00  0.00    +0.047 A 
ATOM     19  C   UNL     1      -3.303  -9.823  10.571  0.00  0.00    +0.015 A 
ENDROOT
BRANCH  18  21
ATOM      1 CL   UNL     1      -8.112  -7.879   6.236  0.00  0.00    -0.084 Cl
ATOM     21  C   UNL     1      -5.344  -9.807   9.232  0.00  0.00    -0.013 A 
ATOM     24  C   UNL     1      -6.299  -8.883   9.656  0.00  0.00    +0.010 A 
ATOM     25  C   UNL     1      -5.246 -10.135   7.878  0.00  0.00    +0.010 A 
ATOM     29  C   UNL     1      -7.155  -8.286   8.730  0.00  0.00    +0.020 A 
ATOM     30  C   UNL     1      -6.102  -9.538   6.952  0.00  0.00    +0.020 A 
ATOM     31  C   UNL     1      -7.056  -8.615   7.378  0.00  0.00    +0.041 A 
ENDBRANCH  18  21
BRANCH   7   2
ATOM      2  S   UNL     1      -4.291 -11.356  16.298  0.00  0.00    +0.061 S 
ATOM      4  O   UNL     1      -3.487 -10.217  16.690  0.00  0.00    -0.153 OA
ATOM      5  O   UNL     1      -4.673 -12.386  17.242  0.00  0.00    -0.153 OA
BRANCH   2  20
ATOM      3  F   UNL     1      -9.415  -9.051  14.578  0.00  0.00    -0.205 F 
ATOM     20  C   UNL     1      -5.852 -10.655  15.774  0.00  0.00    +0.106 A 
ATOM     22  C   UNL     1      -6.703 -10.162  16.734  0.00  0.00    +0.031 A 
ATOM     23  C   UNL     1      -6.142 -10.635  14.431  0.00  0.00    +0.031 A 
ATOM     26  C   UNL     1      -7.919  -9.615  16.326  0.00  0.00    +0.040 A 
ATOM     27  C   UNL     1      -7.358 -10.087  14.024  0.00  0.00    +0.040 A 
ATOM     28  C   UNL     1      -8.247  -9.578  14.971  0.00  0.00    +0.124 A 
ENDBRANCH   2  20
ENDBRANCH   7   2
TORSDOF 3
ENDMDL
