MODEL 1
REMARK VINA RESULT:      -7.2      0.000      0.000
REMARK  Name = 11943011
REMARK  7 active torsions:
REMARK  status: ('A' for Active; 'I' for Inactive)
REMARK    1  A    between atoms: O_4  and  C_24
REMARK    2  A    between atoms: O_4  and  C_30
REMARK    3  A    between atoms: N_5  and  C_12
REMARK    4  A    between atoms: N_6  and  C_13
REMARK    5  A    between atoms: N_7  and  C_19
REMARK    6  A    between atoms: C_18  and  C_22
REMARK    7  A    between atoms: C_19  and  C_23
REMARK                            x       y       z     vdW  Elec       q    Type
REMARK                         _______ _______ _______ _____ _____    ______ ____
ROOT
ATOM      1  O   UNL     1      10.871  13.094  23.763  0.00  0.00    -0.370 OA
ATOM      2  O   UNL     1      13.835  12.173  23.446  0.00  0.00    -0.370 OA
ATOM     10  C   UNL     1      12.606  11.468  23.692  0.00  0.00    +0.171 C 
ATOM     11  C   UNL     1      11.762  12.340  24.601  0.00  0.00    +0.171 C 
ATOM     12  C   UNL     1      11.796  11.367  22.420  0.00  0.00    +0.130 C 
ATOM     13  C   UNL     1      12.764  13.257  25.264  0.00  0.00    +0.131 C 
ATOM     14  C   UNL     1      11.045  12.686  22.398  0.00  0.00    +0.185 C 
ATOM     15  C   UNL     1      13.835  13.395  24.196  0.00  0.00    +0.185 C 
ENDROOT
BRANCH  12   5
ATOM      5  N   UNL     1      10.866  10.264  22.513  0.00  0.00    -0.306 N 
ATOM      8  N   UNL     1      12.422   8.758  21.671  0.00  0.00    -0.214 NA
ATOM      9  N   UNL     1      10.203   8.049  22.288  0.00  0.00    -0.223 NA
ATOM     16  C   UNL     1      11.177   8.968  22.141  0.00  0.00    +0.216 A 
ATOM     18  C   UNL     1      12.691   7.484  21.319  0.00  0.00    +0.080 A 
ATOM     20  C   UNL     1      10.540   6.797  21.916  0.00  0.00    +0.116 A 
ATOM     21  C   UNL     1      11.780   6.452  21.420  0.00  0.00    +0.048 A 
ATOM     31  H   UNL     1       9.949  10.417  22.916  0.00  0.00    +0.149 HD
BRANCH  18  22
ATOM     22  C   UNL     1      14.024   7.257  20.815  0.00  0.00    +0.042 A 
ATOM     24  C   UNL     1      14.262   7.139  19.446  0.00  0.00    +0.129 A 
ATOM     25  C   UNL     1      15.083   7.156  21.718  0.00  0.00    +0.013 A 
ATOM     26  C   UNL     1      15.558   6.920  18.980  0.00  0.00    +0.046 A 
ATOM     27  C   UNL     1      16.379   6.938  21.252  0.00  0.00    +0.001 A 
ATOM     29  C   UNL     1      16.617   6.820  19.883  0.00  0.00    +0.004 A 
BRANCH  24   4
ATOM      4  O   UNL     1      13.247   7.233  18.541  0.00  0.00    -0.494 OA
ATOM     30  C   UNL     1      13.512   7.961  17.345  0.00  0.00    +0.277 C 
ENDBRANCH  24   4
ENDBRANCH  18  22
ENDBRANCH  12   5
BRANCH  13   6
ATOM      3  O   UNL     1      13.939  14.640  27.508  0.00  0.00    -0.253 OA
ATOM      6  N   UNL     1      13.298  12.666  26.467  0.00  0.00    -0.292 N 
ATOM      7  N   UNL     1      14.287  12.593  28.543  0.00  0.00    -0.296 N 
ATOM     17  C   UNL     1      13.850  13.413  27.507  0.00  0.00    +0.300 C 
ATOM     32  H   UNL     1      13.210  11.662  26.593  0.00  0.00    +0.151 HD
ATOM     33  H   UNL     1      14.154  11.589  28.462  0.00  0.00    +0.151 HD
BRANCH   7  19
ATOM     19  C   UNL     1      14.900  13.109  29.743  0.00  0.00    +0.132 C 
BRANCH  19  23
ATOM     23  C   UNL     1      14.072  12.716  30.922  0.00  0.00    -0.016 C 
ATOM     28  C   UNL     1      13.085  13.467  31.424  0.00  0.00    +0.005 C 
ENDBRANCH  19  23
ENDBRANCH   7  19
ENDBRANCH  13   6
TORSDOF 6
ENDMDL
MODEL 2
REMARK VINA RESULT:      -6.8     26.965     29.690
REMARK  Name = 11943011
REMARK  7 active torsions:
REMARK  status: ('A' for Active; 'I' for Inactive)
REMARK    1  A    between atoms: O_4  and  C_24
REMARK    2  A    between atoms: O_4  and  C_30
REMARK    3  A    between atoms: N_5  and  C_12
REMARK    4  A    between atoms: N_6  and  C_13
REMARK    5  A    between atoms: N_7  and  C_19
REMARK    6  A    between atoms: C_18  and  C_22
REMARK    7  A    between atoms: C_19  and  C_23
REMARK                            x       y       z     vdW  Elec       q    Type
REMARK                         _______ _______ _______ _____ _____    ______ ____
ROOT
ATOM      1  O   UNL     1      -5.877 -11.512  19.206  0.00  0.00    -0.370 OA
ATOM      2  O   UNL     1      -7.066 -11.751  16.330  0.00  0.00    -0.370 OA
ATOM     10  C   UNL     1      -5.913 -11.081  16.866  0.00  0.00    +0.171 C 
ATOM     11  C   UNL     1      -6.298 -10.543  18.231  0.00  0.00    +0.171 C 
ATOM     12  C   UNL     1      -4.815 -12.077  17.158  0.00  0.00    +0.130 C 
ATOM     13  C   UNL     1      -7.806 -10.466  18.183  0.00  0.00    +0.131 C 
ATOM     14  C   UNL     1      -5.179 -12.577  18.544  0.00  0.00    +0.185 C 
ATOM     15  C   UNL     1      -8.161 -11.608  17.247  0.00  0.00    +0.185 C 
ENDROOT
BRANCH  12   5
ATOM      5  N   UNL     1      -3.534 -11.407  17.188  0.00  0.00    -0.306 N 
ATOM      8  N   UNL     1      -3.469 -11.225  14.873  0.00  0.00    -0.214 NA
ATOM      9  N   UNL     1      -1.681 -10.372  16.245  0.00  0.00    -0.223 NA
ATOM     16  C   UNL     1      -2.865 -10.983  16.053  0.00  0.00    +0.216 A 
ATOM     18  C   UNL     1      -2.790 -10.799  13.788  0.00  0.00    +0.080 A 
ATOM     20  C   UNL     1      -1.056  -9.972  15.118  0.00  0.00    +0.116 A 
ATOM     21  C   UNL     1      -1.568 -10.160  13.850  0.00  0.00    +0.048 A 
ATOM     31  H   UNL     1      -3.110 -11.181  18.080  0.00  0.00    +0.149 HD
BRANCH  18  22
ATOM     22  C   UNL     1      -3.434 -11.055  12.523  0.00  0.00    +0.042 A 
ATOM     24  C   UNL     1      -3.270 -12.278  11.871  0.00  0.00    +0.129 A 
ATOM     25  C   UNL     1      -4.230 -10.063  11.952  0.00  0.00    +0.013 A 
ATOM     26  C   UNL     1      -3.903 -12.507  10.649  0.00  0.00    +0.046 A 
ATOM     27  C   UNL     1      -4.863 -10.291  10.730  0.00  0.00    +0.001 A 
ATOM     29  C   UNL     1      -4.699 -11.514  10.079  0.00  0.00    +0.004 A 
BRANCH  24   4
ATOM      4  O   UNL     1      -2.499 -13.267  12.405  0.00  0.00    -0.494 OA
ATOM     30  C   UNL     1      -2.660 -14.575  11.866  0.00  0.00    +0.277 C 
ENDBRANCH  24   4
ENDBRANCH  18  22
ENDBRANCH  12   5
BRANCH  13   6
ATOM      3  O   UNL     1     -10.529  -9.543  17.925  0.00  0.00    -0.253 OA
ATOM      6  N   UNL     1      -8.249  -9.199  17.653  0.00  0.00    -0.292 N 
ATOM      7  N   UNL     1      -9.735  -7.561  17.018  0.00  0.00    -0.296 N 
ATOM     17  C   UNL     1      -9.591  -8.833  17.565  0.00  0.00    +0.300 C 
ATOM     32  H   UNL     1      -7.547  -8.513  17.390  0.00  0.00    +0.151 HD
ATOM     33  H   UNL     1      -8.899  -7.040  16.766  0.00  0.00    +0.151 HD
BRANCH   7  19
ATOM     19  C   UNL     1     -11.020  -6.937  16.814  0.00  0.00    +0.132 C 
BRANCH  19  23
ATOM     23  C   UNL     1     -10.945  -6.044  15.620  0.00  0.00    -0.016 C 
ATOM     28  C   UNL     1     -12.002  -5.708  14.873  0.00  0.00    +0.005 C 
ENDBRANCH  19  23
ENDBRANCH   7  19
ENDBRANCH  13   6
TORSDOF 6
ENDMDL
MODEL 3
REMARK VINA RESULT:      -6.5      5.668      9.381
REMARK  Name = 11943011
REMARK  7 active torsions:
REMARK  status: ('A' for Active; 'I' for Inactive)
REMARK    1  A    between atoms: O_4  and  C_24
REMARK    2  A    between atoms: O_4  and  C_30
REMARK    3  A    between atoms: N_5  and  C_12
REMARK    4  A    between atoms: N_6  and  C_13
REMARK    5  A    between atoms: N_7  and  C_19
REMARK    6  A    between atoms: C_18  and  C_22
REMARK    7  A    between atoms: C_19  and  C_23
REMARK                            x       y       z     vdW  Elec       q    Type
REMARK                         _______ _______ _______ _____ _____    ______ ____
ROOT
ATOM      1  O   UNL     1      19.612   8.216  22.768  0.00  0.00    -0.370 OA
ATOM      2  O   UNL     1      19.945   6.510  20.176  0.00  0.00    -0.370 OA
ATOM     10  C   UNL     1      18.973   6.512  21.235  0.00  0.00    +0.171 C 
ATOM     11  C   UNL     1      19.713   6.803  22.526  0.00  0.00    +0.171 C 
ATOM     12  C   UNL     1      18.029   7.681  21.079  0.00  0.00    +0.130 C 
ATOM     13  C   UNL     1      21.145   6.424  22.222  0.00  0.00    +0.131 C 
ATOM     14  C   UNL     1      18.783   8.811  21.758  0.00  0.00    +0.185 C 
ATOM     15  C   UNL     1      21.250   6.717  20.736  0.00  0.00    +0.185 C 
ENDROOT
BRANCH  12   5
ATOM      5  N   UNL     1      16.791   7.415  21.778  0.00  0.00    -0.306 N 
ATOM      8  N   UNL     1      15.513   8.241  20.023  0.00  0.00    -0.214 NA
ATOM      9  N   UNL     1      14.482   7.385  22.026  0.00  0.00    -0.223 NA
ATOM     16  C   UNL     1      15.542   7.692  21.253  0.00  0.00    +0.216 A 
ATOM     18  C   UNL     1      14.279   8.498  19.542  0.00  0.00    +0.080 A 
ATOM     20  C   UNL     1      13.279   7.669  21.484  0.00  0.00    +0.116 A 
ATOM     21  C   UNL     1      13.115   8.230  20.234  0.00  0.00    +0.048 A 
ATOM     31  H   UNL     1      16.817   6.954  22.680  0.00  0.00    +0.149 HD
BRANCH  18  22
ATOM     22  C   UNL     1      14.245   9.084  18.224  0.00  0.00    +0.042 A 
ATOM     24  C   UNL     1      14.407  10.458  18.048  0.00  0.00    +0.129 A 
ATOM     25  C   UNL     1      14.049   8.258  17.117  0.00  0.00    +0.013 A 
ATOM     26  C   UNL     1      14.373  11.005  16.765  0.00  0.00    +0.046 A 
ATOM     27  C   UNL     1      14.014   8.805  15.835  0.00  0.00    +0.001 A 
ATOM     29  C   UNL     1      14.176  10.179  15.659  0.00  0.00    +0.004 A 
BRANCH  24   4
ATOM      4  O   UNL     1      14.602  11.290  19.110  0.00  0.00    -0.494 OA
ATOM     30  C   UNL     1      15.894  11.872  19.248  0.00  0.00    +0.277 C 
ENDBRANCH  24   4
ENDBRANCH  18  22
ENDBRANCH  12   5
BRANCH  13   6
ATOM      3  O   UNL     1      23.662   5.198  22.921  0.00  0.00    -0.253 OA
ATOM      6  N   UNL     1      21.385   5.029  22.498  0.00  0.00    -0.292 N 
ATOM      7  N   UNL     1      22.589   3.145  23.046  0.00  0.00    -0.296 N 
ATOM     17  C   UNL     1      22.640   4.519  22.830  0.00  0.00    +0.300 C 
ATOM     32  H   UNL     1      20.592   4.395  22.515  0.00  0.00    +0.151 HD
ATOM     33  H   UNL     1      21.694   2.671  22.966  0.00  0.00    +0.151 HD
BRANCH   7  19
ATOM     19  C   UNL     1      23.749   2.365  23.403  0.00  0.00    +0.132 C 
BRANCH  19  23
ATOM     23  C   UNL     1      23.999   1.348  22.339  0.00  0.00    -0.016 C 
ATOM     28  C   UNL     1      24.236   1.652  21.058  0.00  0.00    +0.005 C 
ENDBRANCH  19  23
ENDBRANCH   7  19
ENDBRANCH  13   6
TORSDOF 6
ENDMDL
MODEL 4
REMARK VINA RESULT:      -6.3     27.400     31.202
REMARK  Name = 11943011
REMARK  7 active torsions:
REMARK  status: ('A' for Active; 'I' for Inactive)
REMARK    1  A    between atoms: O_4  and  C_24
REMARK    2  A    between atoms: O_4  and  C_30
REMARK    3  A    between atoms: N_5  and  C_12
REMARK    4  A    between atoms: N_6  and  C_13
REMARK    5  A    between atoms: N_7  and  C_19
REMARK    6  A    between atoms: C_18  and  C_22
REMARK    7  A    between atoms: C_19  and  C_23
REMARK                            x       y       z     vdW  Elec       q    Type
REMARK                         _______ _______ _______ _____ _____    ______ ____
ROOT
ATOM      1  O   UNL     1      -5.545  -8.874  10.657  0.00  0.00    -0.370 OA
ATOM      2  O   UNL     1      -6.703 -11.763  10.888  0.00  0.00    -0.370 OA
ATOM     10  C   UNL     1      -5.369 -11.230  10.945  0.00  0.00    +0.171 C 
ATOM     11  C   UNL     1      -5.295 -10.095   9.941  0.00  0.00    +0.171 C 
ATOM     12  C   UNL     1      -5.128 -10.560  12.278  0.00  0.00    +0.130 C 
ATOM     13  C   UNL     1      -6.425 -10.381   8.979  0.00  0.00    +0.131 C 
ATOM     14  C   UNL     1      -5.686  -9.166  12.056  0.00  0.00    +0.185 C 
ATOM     15  C   UNL     1      -7.442 -11.075   9.868  0.00  0.00    +0.185 C 
ENDROOT
BRANCH  12   5
ATOM      5  N   UNL     1      -3.710 -10.494  12.549  0.00  0.00    -0.306 N 
ATOM      8  N   UNL     1      -4.044 -10.677  14.841  0.00  0.00    -0.214 NA
ATOM      9  N   UNL     1      -1.829 -10.481  13.912  0.00  0.00    -0.223 NA
ATOM     16  C   UNL     1      -3.171 -10.553  13.822  0.00  0.00    +0.216 A 
ATOM     18  C   UNL     1      -3.484 -10.731  16.067  0.00  0.00    +0.080 A 
ATOM     20  C   UNL     1      -1.337 -10.541  15.167  0.00  0.00    +0.116 A 
ATOM     21  C   UNL     1      -2.124 -10.667  16.293  0.00  0.00    +0.048 A 
ATOM     31  H   UNL     1      -3.055 -10.455  11.776  0.00  0.00    +0.149 HD
BRANCH  18  22
ATOM     22  C   UNL     1      -4.417 -10.864  17.160  0.00  0.00    +0.042 A 
ATOM     24  C   UNL     1      -5.668 -10.250  17.112  0.00  0.00    +0.129 A 
ATOM     25  C   UNL     1      -4.054 -11.620  18.275  0.00  0.00    +0.013 A 
ATOM     26  C   UNL     1      -6.556 -10.392  18.178  0.00  0.00    +0.046 A 
ATOM     27  C   UNL     1      -4.942 -11.762  19.341  0.00  0.00    +0.001 A 
ATOM     29  C   UNL     1      -6.193 -11.148  19.293  0.00  0.00    +0.004 A 
BRANCH  24   4
ATOM      4  O   UNL     1      -6.050  -9.506  16.036  0.00  0.00    -0.494 OA
ATOM     30  C   UNL     1      -7.351  -9.751  15.508  0.00  0.00    +0.277 C 
ENDBRANCH  24   4
ENDBRANCH  18  22
ENDBRANCH  12   5
BRANCH  13   6
ATOM      3  O   UNL     1      -6.303  -9.738   6.168  0.00  0.00    -0.253 OA
ATOM      6  N   UNL     1      -5.992 -11.244   7.907  0.00  0.00    -0.292 N 
ATOM      7  N   UNL     1      -5.506 -11.875   5.748  0.00  0.00    -0.296 N 
ATOM     17  C   UNL     1      -5.965 -10.850   6.570  0.00  0.00    +0.300 C 
ATOM     32  H   UNL     1      -5.628 -12.163   8.143  0.00  0.00    +0.151 HD
ATOM     33  H   UNL     1      -5.231 -12.756   6.173  0.00  0.00    +0.151 HD
BRANCH   7  19
ATOM     19  C   UNL     1      -5.379 -11.734   4.318  0.00  0.00    +0.132 C 
BRANCH  19  23
ATOM     23  C   UNL     1      -4.115 -12.392   3.873  0.00  0.00    -0.016 C 
ATOM     28  C   UNL     1      -3.009 -12.467   4.622  0.00  0.00    +0.005 C 
ENDBRANCH  19  23
ENDBRANCH   7  19
ENDBRANCH  13   6
TORSDOF 6
ENDMDL
MODEL 5
REMARK VINA RESULT:      -6.1      2.663      8.621
REMARK  Name = 11943011
REMARK  7 active torsions:
REMARK  status: ('A' for Active; 'I' for Inactive)
REMARK    1  A    between atoms: O_4  and  C_24
REMARK    2  A    between atoms: O_4  and  C_30
REMARK    3  A    between atoms: N_5  and  C_12
REMARK    4  A    between atoms: N_6  and  C_13
REMARK    5  A    between atoms: N_7  and  C_19
REMARK    6  A    between atoms: C_18  and  C_22
REMARK    7  A    between atoms: C_19  and  C_23
REMARK                            x       y       z     vdW  Elec       q    Type
REMARK                         _______ _______ _______ _____ _____    ______ ____
ROOT
ATOM      1  O   UNL     1      10.566   7.816  20.472  0.00  0.00    -0.370 OA
ATOM      2  O   UNL     1      13.573   8.580  20.808  0.00  0.00    -0.370 OA
ATOM     10  C   UNL     1      12.344   9.259  21.118  0.00  0.00    +0.171 C 
ATOM     11  C   UNL     1      11.355   8.927  20.017  0.00  0.00    +0.171 C 
ATOM     12  C   UNL     1      11.720   8.672  22.363  0.00  0.00    +0.130 C 
ATOM     13  C   UNL     1      12.227   8.511  18.855  0.00  0.00    +0.131 C 
ATOM     14  C   UNL     1      10.940   7.490  21.819  0.00  0.00    +0.185 C 
ATOM     15  C   UNL     1      13.430   7.901  19.552  0.00  0.00    +0.185 C 
ENDROOT
BRANCH  12   5
ATOM      5  N   UNL     1      10.821   9.631  22.965  0.00  0.00    -0.306 N 
ATOM      8  N   UNL     1      12.577  10.983  23.661  0.00  0.00    -0.214 NA
ATOM      9  N   UNL     1      10.287  11.575  24.118  0.00  0.00    -0.223 NA
ATOM     16  C   UNL     1      11.246  10.779  23.610  0.00  0.00    +0.216 A 
ATOM     18  C   UNL     1      12.957  12.111  24.296  0.00  0.00    +0.080 A 
ATOM     20  C   UNL     1      10.736  12.685  24.739  0.00  0.00    +0.116 A 
ATOM     21  C   UNL     1      12.072  13.008  24.860  0.00  0.00    +0.048 A 
ATOM     31  H   UNL     1       9.820   9.499  22.877  0.00  0.00    +0.149 HD
BRANCH  18  22
ATOM     22  C   UNL     1      14.381  12.332  24.352  0.00  0.00    +0.042 A 
ATOM     24  C   UNL     1      15.076  12.219  25.556  0.00  0.00    +0.129 A 
ATOM     25  C   UNL     1      15.065  12.662  23.181  0.00  0.00    +0.013 A 
ATOM     26  C   UNL     1      16.454  12.436  25.589  0.00  0.00    +0.046 A 
ATOM     27  C   UNL     1      16.442  12.879  23.214  0.00  0.00    +0.001 A 
ATOM     29  C   UNL     1      17.137  12.765  24.418  0.00  0.00    +0.004 A 
BRANCH  24   4
ATOM      4  O   UNL     1      14.436  11.898  26.716  0.00  0.00    -0.494 OA
ATOM     30  C   UNL     1      14.495  12.851  27.773  0.00  0.00    +0.277 C 
ENDBRANCH  24   4
ENDBRANCH  18  22
ENDBRANCH  12   5
BRANCH  13   6
ATOM      3  O   UNL     1      13.231   8.476  16.149  0.00  0.00    -0.253 OA
ATOM      6  N   UNL     1      12.608   9.649  18.054  0.00  0.00    -0.292 N 
ATOM      7  N   UNL     1      13.376  10.791  16.209  0.00  0.00    -0.296 N 
ATOM     17  C   UNL     1      13.085   9.541  16.748  0.00  0.00    +0.300 C 
ATOM     32  H   UNL     1      12.461  10.579  18.434  0.00  0.00    +0.151 HD
ATOM     33  H   UNL     1      13.206  11.618  16.774  0.00  0.00    +0.151 HD
BRANCH   7  19
ATOM     19  C   UNL     1      13.887  10.966  14.871  0.00  0.00    +0.132 C 
BRANCH  19  23
ATOM     23  C   UNL     1      15.379  10.951  14.913  0.00  0.00    -0.016 C 
ATOM     28  C   UNL     1      16.119  11.903  15.493  0.00  0.00    +0.005 C 
ENDBRANCH  19  23
ENDBRANCH   7  19
ENDBRANCH  13   6
TORSDOF 6
ENDMDL
MODEL 6
REMARK VINA RESULT:      -6.1      5.311     10.318
REMARK  Name = 11943011
REMARK  7 active torsions:
REMARK  status: ('A' for Active; 'I' for Inactive)
REMARK    1  A    between atoms: O_4  and  C_24
REMARK    2  A    between atoms: O_4  and  C_30
REMARK    3  A    between atoms: N_5  and  C_12
REMARK    4  A    between atoms: N_6  and  C_13
REMARK    5  A    between atoms: N_7  and  C_19
REMARK    6  A    between atoms: C_18  and  C_22
REMARK    7  A    between atoms: C_19  and  C_23
REMARK                            x       y       z     vdW  Elec       q    Type
REMARK                         _______ _______ _______ _____ _____    ______ ____
ROOT
ATOM      1  O   UNL     1      15.165  11.434  16.938  0.00  0.00    -0.370 OA
ATOM      2  O   UNL     1      13.203  10.650  14.641  0.00  0.00    -0.370 OA
ATOM     10  C   UNL     1      14.189   9.916  15.387  0.00  0.00    +0.171 C 
ATOM     11  C   UNL     1      15.355  10.854  15.637  0.00  0.00    +0.171 C 
ATOM     12  C   UNL     1      13.670   9.596  16.770  0.00  0.00    +0.130 C 
ATOM     13  C   UNL     1      15.213  11.909  14.564  0.00  0.00    +0.131 C 
ATOM     14  C   UNL     1      14.004  10.855  17.550  0.00  0.00    +0.185 C 
ATOM     15  C   UNL     1      13.709  11.961  14.356  0.00  0.00    +0.185 C 
ENDROOT
BRANCH  12   5
ATOM      5  N   UNL     1      14.385   8.464  17.317  0.00  0.00    -0.306 N 
ATOM      8  N   UNL     1      13.538   8.840  19.448  0.00  0.00    -0.214 NA
ATOM      9  N   UNL     1      15.041   7.009  19.004  0.00  0.00    -0.223 NA
ATOM     16  C   UNL     1      14.319   8.088  18.647  0.00  0.00    +0.216 A 
ATOM     18  C   UNL     1      13.497   8.445  20.737  0.00  0.00    +0.080 A 
ATOM     20  C   UNL     1      14.954   6.670  20.308  0.00  0.00    +0.116 A 
ATOM     21  C   UNL     1      14.191   7.358  21.229  0.00  0.00    +0.048 A 
ATOM     31  H   UNL     1      14.928   7.871  16.700  0.00  0.00    +0.149 HD
BRANCH  18  22
ATOM     22  C   UNL     1      12.662   9.249  21.597  0.00  0.00    +0.042 A 
ATOM     24  C   UNL     1      11.313   8.942  21.773  0.00  0.00    +0.129 A 
ATOM     25  C   UNL     1      13.220  10.343  22.257  0.00  0.00    +0.013 A 
ATOM     26  C   UNL     1      10.522   9.731  22.609  0.00  0.00    +0.046 A 
ATOM     27  C   UNL     1      12.430  11.132  23.093  0.00  0.00    +0.001 A 
ATOM     29  C   UNL     1      11.081  10.825  23.269  0.00  0.00    +0.004 A 
BRANCH  24   4
ATOM      4  O   UNL     1      10.740   7.879  21.142  0.00  0.00    -0.494 OA
ATOM     30  C   UNL     1      10.508   6.710  21.923  0.00  0.00    +0.277 C 
ENDBRANCH  24   4
ENDBRANCH  18  22
ENDBRANCH  12   5
BRANCH  13   6
ATOM      3  O   UNL     1      16.770  13.603  12.823  0.00  0.00    -0.253 OA
ATOM      6  N   UNL     1      15.895  11.520  13.354  0.00  0.00    -0.292 N 
ATOM      7  N   UNL     1      17.182  11.769  11.463  0.00  0.00    -0.296 N 
ATOM     17  C   UNL     1      16.629  12.408  12.569  0.00  0.00    +0.300 C 
ATOM     32  H   UNL     1      15.895  10.538  13.094  0.00  0.00    +0.151 HD
ATOM     33  H   UNL     1      17.026  10.772  11.345  0.00  0.00    +0.151 HD
BRANCH   7  19
ATOM     19  C   UNL     1      17.989  12.458  10.485  0.00  0.00    +0.132 C 
BRANCH  19  23
ATOM     23  C   UNL     1      19.320  11.787  10.392  0.00  0.00    -0.016 C 
ATOM     28  C   UNL     1      20.048  11.425  11.454  0.00  0.00    +0.005 C 
ENDBRANCH  19  23
ENDBRANCH   7  19
ENDBRANCH  13   6
TORSDOF 6
ENDMDL
MODEL 7
REMARK VINA RESULT:      -6.1     26.530     29.823
REMARK  Name = 11943011
REMARK  7 active torsions:
REMARK  status: ('A' for Active; 'I' for Inactive)
REMARK    1  A    between atoms: O_4  and  C_24
REMARK    2  A    between atoms: O_4  and  C_30
REMARK    3  A    between atoms: N_5  and  C_12
REMARK    4  A    between atoms: N_6  and  C_13
REMARK    5  A    between atoms: N_7  and  C_19
REMARK    6  A    between atoms: C_18  and  C_22
REMARK    7  A    between atoms: C_19  and  C_23
REMARK                            x       y       z     vdW  Elec       q    Type
REMARK                         _______ _______ _______ _____ _____    ______ ____
ROOT
ATOM      1  O   UNL     1     -15.856   3.914  33.043  0.00  0.00    -0.370 OA
ATOM      2  O   UNL     1     -12.908   3.995  32.023  0.00  0.00    -0.370 OA
ATOM     10  C   UNL     1     -13.960   4.973  32.070  0.00  0.00    +0.171 C 
ATOM     11  C   UNL     1     -15.261   4.250  31.779  0.00  0.00    +0.171 C 
ATOM     12  C   UNL     1     -14.133   5.490  33.479  0.00  0.00    +0.130 C 
ATOM     13  C   UNL     1     -14.829   2.997  31.052  0.00  0.00    +0.131 C 
ATOM     14  C   UNL     1     -15.054   4.457  34.102  0.00  0.00    +0.185 C 
ATOM     15  C   UNL     1     -13.463   2.724  31.657  0.00  0.00    +0.185 C 
ENDROOT
BRANCH  12   5
ATOM      5  N   UNL     1     -14.777   6.785  33.456  0.00  0.00    -0.306 N 
ATOM      8  N   UNL     1     -13.059   7.766  34.674  0.00  0.00    -0.214 NA
ATOM      9  N   UNL     1     -14.962   9.049  33.939  0.00  0.00    -0.223 NA
ATOM     16  C   UNL     1     -14.243   7.915  34.049  0.00  0.00    +0.216 A 
ATOM     18  C   UNL     1     -12.569   8.888  35.241  0.00  0.00    +0.080 A 
ATOM     20  C   UNL     1     -14.414  10.132  34.529  0.00  0.00    +0.116 A 
ATOM     21  C   UNL     1     -13.208  10.110  35.200  0.00  0.00    +0.048 A 
ATOM     31  H   UNL     1     -15.640   6.903  32.939  0.00  0.00    +0.149 HD
BRANCH  18  22
ATOM     22  C   UNL     1     -11.301   8.731  35.911  0.00  0.00    +0.042 A 
ATOM     24  C   UNL     1     -10.181   9.454  35.503  0.00  0.00    +0.129 A 
ATOM     25  C   UNL     1     -11.204   7.842  36.982  0.00  0.00    +0.013 A 
ATOM     26  C   UNL     1      -8.964   9.288  36.164  0.00  0.00    +0.046 A 
ATOM     27  C   UNL     1      -9.987   7.676  37.644  0.00  0.00    +0.001 A 
ATOM     29  C   UNL     1      -8.867   8.400  37.235  0.00  0.00    +0.004 A 
BRANCH  24   4
ATOM      4  O   UNL     1     -10.246  10.330  34.460  0.00  0.00    -0.494 OA
ATOM     30  C   UNL     1      -9.669   9.912  33.227  0.00  0.00    +0.277 C 
ENDBRANCH  24   4
ENDBRANCH  18  22
ENDBRANCH  12   5
BRANCH  13   6
ATOM      3  O   UNL     1     -16.873   2.510  29.073  0.00  0.00    -0.253 OA
ATOM      6  N   UNL     1     -14.735   3.224  29.630  0.00  0.00    -0.292 N 
ATOM      7  N   UNL     1     -15.419   3.269  27.433  0.00  0.00    -0.296 N 
ATOM     17  C   UNL     1     -15.777   2.959  28.742  0.00  0.00    +0.300 C 
ATOM     32  H   UNL     1     -13.893   3.658  29.264  0.00  0.00    +0.151 HD
ATOM     33  H   UNL     1     -14.495   3.654  27.257  0.00  0.00    +0.151 HD
BRANCH   7  19
ATOM     19  C   UNL     1     -16.312   3.090  26.314  0.00  0.00    +0.132 C 
BRANCH  19  23
ATOM     23  C   UNL     1     -15.679   3.661  25.089  0.00  0.00    -0.016 C 
ATOM     28  C   UNL     1     -16.056   3.353  23.842  0.00  0.00    +0.005 C 
ENDBRANCH  19  23
ENDBRANCH   7  19
ENDBRANCH  13   6
TORSDOF 6
ENDMDL
MODEL 8
REMARK VINA RESULT:      -6.1      3.881      8.764
REMARK  Name = 11943011
REMARK  7 active torsions:
REMARK  status: ('A' for Active; 'I' for Inactive)
REMARK    1  A    between atoms: O_4  and  C_24
REMARK    2  A    between atoms: O_4  and  C_30
REMARK    3  A    between atoms: N_5  and  C_12
REMARK    4  A    between atoms: N_6  and  C_13
REMARK    5  A    between atoms: N_7  and  C_19
REMARK    6  A    between atoms: C_18  and  C_22
REMARK    7  A    between atoms: C_19  and  C_23
REMARK                            x       y       z     vdW  Elec       q    Type
REMARK                         _______ _______ _______ _____ _____    ______ ____
ROOT
ATOM      1  O   UNL     1      13.902   7.660  17.810  0.00  0.00    -0.370 OA
ATOM      2  O   UNL     1      13.528   8.115  20.875  0.00  0.00    -0.370 OA
ATOM     10  C   UNL     1      14.112   8.906  19.826  0.00  0.00    +0.171 C 
ATOM     11  C   UNL     1      14.815   7.952  18.880  0.00  0.00    +0.171 C 
ATOM     12  C   UNL     1      13.031   9.536  18.979  0.00  0.00    +0.130 C 
ATOM     13  C   UNL     1      15.056   6.716  19.717  0.00  0.00    +0.131 C 
ATOM     14  C   UNL     1      12.708   8.438  17.982  0.00  0.00    +0.185 C 
ATOM     15  C   UNL     1      13.878   6.738  20.675  0.00  0.00    +0.185 C 
ENDROOT
BRANCH  12   5
ATOM      5  N   UNL     1      13.553  10.697  18.293  0.00  0.00    -0.306 N 
ATOM      8  N   UNL     1      12.685  12.146  19.888  0.00  0.00    -0.214 NA
ATOM      9  N   UNL     1      13.929  12.969  17.995  0.00  0.00    -0.223 NA
ATOM     16  C   UNL     1      13.382  11.993  18.745  0.00  0.00    +0.216 A 
ATOM     18  C   UNL     1      12.537  13.423  20.299  0.00  0.00    +0.080 A 
ATOM     20  C   UNL     1      13.743  14.221  18.464  0.00  0.00    +0.116 A 
ATOM     21  C   UNL     1      13.049  14.510  19.621  0.00  0.00    +0.048 A 
ATOM     31  H   UNL     1      14.121  10.572  17.463  0.00  0.00    +0.149 HD
BRANCH  18  22
ATOM     22  C   UNL     1      11.791  13.589  21.523  0.00  0.00    +0.042 A 
ATOM     24  C   UNL     1      12.373  13.308  22.759  0.00  0.00    +0.129 A 
ATOM     25  C   UNL     1      10.473  14.039  21.459  0.00  0.00    +0.013 A 
ATOM     26  C   UNL     1      11.636  13.477  23.930  0.00  0.00    +0.046 A 
ATOM     27  C   UNL     1       9.735  14.207  22.631  0.00  0.00    +0.001 A 
ATOM     29  C   UNL     1      10.317  13.926  23.867  0.00  0.00    +0.004 A 
BRANCH  24   4
ATOM      4  O   UNL     1      13.660  12.868  22.851  0.00  0.00    -0.494 OA
ATOM     30  C   UNL     1      13.855  11.525  23.283  0.00  0.00    +0.277 C 
ENDBRANCH  24   4
ENDBRANCH  18  22
ENDBRANCH  12   5
BRANCH  13   6
ATOM      3  O   UNL     1      17.603   5.644  18.885  0.00  0.00    -0.253 OA
ATOM      6  N   UNL     1      16.309   6.802  20.427  0.00  0.00    -0.292 N 
ATOM      7  N   UNL     1      18.552   6.481  20.830  0.00  0.00    -0.296 N 
ATOM     17  C   UNL     1      17.498   6.253  19.949  0.00  0.00    +0.300 C 
ATOM     32  H   UNL     1      16.343   7.344  21.285  0.00  0.00    +0.151 HD
ATOM     33  H   UNL     1      18.374   7.011  21.678  0.00  0.00    +0.151 HD
BRANCH   7  19
ATOM     19  C   UNL     1      19.895   6.018  20.579  0.00  0.00    +0.132 C 
BRANCH  19  23
ATOM     23  C   UNL     1      20.834   7.176  20.666  0.00  0.00    -0.016 C 
ATOM     28  C   UNL     1      22.140   7.100  20.385  0.00  0.00    +0.005 C 
ENDBRANCH  19  23
ENDBRANCH   7  19
ENDBRANCH  13   6
TORSDOF 6
ENDMDL
MODEL 9
REMARK VINA RESULT:      -6.0      2.662      8.398
REMARK  Name = 11943011
REMARK  7 active torsions:
REMARK  status: ('A' for Active; 'I' for Inactive)
REMARK    1  A    between atoms: O_4  and  C_24
REMARK    2  A    between atoms: O_4  and  C_30
REMARK    3  A    between atoms: N_5  and  C_12
REMARK    4  A    between atoms: N_6  and  C_13
REMARK    5  A    between atoms: N_7  and  C_19
REMARK    6  A    between atoms: C_18  and  C_22
REMARK    7  A    between atoms: C_19  and  C_23
REMARK                            x       y       z     vdW  Elec       q    Type
REMARK                         _______ _______ _______ _____ _____    ______ ____
ROOT
ATOM      1  O   UNL     1      10.477   7.752  20.940  0.00  0.00    -0.370 OA
ATOM      2  O   UNL     1      13.395   7.957  22.026  0.00  0.00    -0.370 OA
ATOM     10  C   UNL     1      12.440   8.934  21.579  0.00  0.00    +0.171 C 
ATOM     11  C   UNL     1      11.684   8.326  20.414  0.00  0.00    +0.171 C 
ATOM     12  C   UNL     1      11.379   9.152  22.633  0.00  0.00    +0.130 C 
ATOM     13  C   UNL     1      12.606   7.239  19.907  0.00  0.00    +0.131 C 
ATOM     14  C   UNL     1      10.389   8.039  22.343  0.00  0.00    +0.185 C 
ATOM     15  C   UNL     1      13.325   6.806  21.172  0.00  0.00    +0.185 C 
ENDROOT
BRANCH  12   5
ATOM      5  N   UNL     1      10.752  10.441  22.445  0.00  0.00    -0.306 N 
ATOM      8  N   UNL     1      12.419  11.531  23.640  0.00  0.00    -0.214 NA
ATOM      9  N   UNL     1      10.569  12.744  22.684  0.00  0.00    -0.223 NA
ATOM     16  C   UNL     1      11.269  11.623  22.945  0.00  0.00    +0.216 A 
ATOM     18  C   UNL     1      12.895  12.703  24.113  0.00  0.00    +0.080 A 
ATOM     20  C   UNL     1      11.101  13.878  23.186  0.00  0.00    +0.116 A 
ATOM     21  C   UNL     1      12.272  13.918  23.915  0.00  0.00    +0.048 A 
ATOM     31  H   UNL     1       9.916  10.511  21.877  0.00  0.00    +0.149 HD
BRANCH  18  22
ATOM     22  C   UNL     1      14.127  12.607  24.858  0.00  0.00    +0.042 A 
ATOM     24  C   UNL     1      15.359  12.609  24.205  0.00  0.00    +0.129 A 
ATOM     25  C   UNL     1      14.074  12.514  26.248  0.00  0.00    +0.013 A 
ATOM     26  C   UNL     1      16.539  12.517  24.943  0.00  0.00    +0.046 A 
ATOM     27  C   UNL     1      15.254  12.422  26.987  0.00  0.00    +0.001 A 
ATOM     29  C   UNL     1      16.487  12.423  26.334  0.00  0.00    +0.004 A 
BRANCH  24   4
ATOM      4  O   UNL     1      15.441  12.700  22.847  0.00  0.00    -0.494 OA
ATOM     30  C   UNL     1      15.865  11.535  22.145  0.00  0.00    +0.277 C 
ENDBRANCH  24   4
ENDBRANCH  18  22
ENDBRANCH  12   5
BRANCH  13   6
ATOM      3  O   UNL     1      12.062   7.818  17.132  0.00  0.00    -0.253 OA
ATOM      6  N   UNL     1      13.532   7.754  18.928  0.00  0.00    -0.292 N 
ATOM      7  N   UNL     1      14.266   8.498  16.878  0.00  0.00    -0.296 N 
ATOM     17  C   UNL     1      13.183   8.006  17.602  0.00  0.00    +0.300 C 
ATOM     32  H   UNL     1      14.467   8.007  19.233  0.00  0.00    +0.151 HD
ATOM     33  H   UNL     1      15.151   8.638  17.356  0.00  0.00    +0.151 HD
BRANCH   7  19
ATOM     19  C   UNL     1      14.180   8.841  15.479  0.00  0.00    +0.132 C 
BRANCH  19  23
ATOM     23  C   UNL     1      14.465  10.297  15.316  0.00  0.00    -0.016 C 
ATOM     28  C   UNL     1      14.978  11.070  16.281  0.00  0.00    +0.005 C 
ENDBRANCH  19  23
ENDBRANCH   7  19
ENDBRANCH  13   6
TORSDOF 6
ENDMDL
MODEL 10
REMARK VINA RESULT:      -6.0     25.440     27.613
REMARK  Name = 11943011
REMARK  7 active torsions:
REMARK  status: ('A' for Active; 'I' for Inactive)
REMARK    1  A    between atoms: O_4  and  C_24
REMARK    2  A    between atoms: O_4  and  C_30
REMARK    3  A    between atoms: N_5  and  C_12
REMARK    4  A    between atoms: N_6  and  C_13
REMARK    5  A    between atoms: N_7  and  C_19
REMARK    6  A    between atoms: C_18  and  C_22
REMARK    7  A    between atoms: C_19  and  C_23
REMARK                            x       y       z     vdW  Elec       q    Type
REMARK                         _______ _______ _______ _____ _____    ______ ____
ROOT
ATOM      1  O   UNL     1     -13.168  10.734  33.085  0.00  0.00    -0.370 OA
ATOM      2  O   UNL     1     -11.498   9.043  31.063  0.00  0.00    -0.370 OA
ATOM     10  C   UNL     1     -11.805   8.887  32.459  0.00  0.00    +0.171 C 
ATOM     11  C   UNL     1     -11.808  10.272  33.076  0.00  0.00    +0.171 C 
ATOM     12  C   UNL     1     -13.225   8.402  32.633  0.00  0.00    +0.130 C 
ATOM     13  C   UNL     1     -10.977  11.101  32.123  0.00  0.00    +0.131 C 
ATOM     14  C   UNL     1     -14.024   9.692  32.593  0.00  0.00    +0.185 C 
ATOM     15  C   UNL     1     -11.247  10.428  30.788  0.00  0.00    +0.185 C 
ENDROOT
BRANCH  12   5
ATOM      5  N   UNL     1     -13.375   7.762  33.921  0.00  0.00    -0.306 N 
ATOM      8  N   UNL     1     -13.976   5.739  32.950  0.00  0.00    -0.214 NA
ATOM      9  N   UNL     1     -13.842   5.986  35.343  0.00  0.00    -0.223 NA
ATOM     16  C   UNL     1     -13.747   6.438  34.078  0.00  0.00    +0.216 A 
ATOM     18  C   UNL     1     -14.338   4.453  33.140  0.00  0.00    +0.080 A 
ATOM     20  C   UNL     1     -14.207   4.692  35.461  0.00  0.00    +0.116 A 
ATOM     21  C   UNL     1     -14.470   3.870  34.384  0.00  0.00    +0.048 A 
ATOM     31  H   UNL     1     -13.149   8.277  34.764  0.00  0.00    +0.149 HD
BRANCH  18  22
ATOM     22  C   UNL     1     -14.583   3.701  31.933  0.00  0.00    +0.042 A 
ATOM     24  C   UNL     1     -15.835   3.723  31.319  0.00  0.00    +0.129 A 
ATOM     25  C   UNL     1     -13.549   2.947  31.380  0.00  0.00    +0.013 A 
ATOM     26  C   UNL     1     -16.052   2.990  30.153  0.00  0.00    +0.046 A 
ATOM     27  C   UNL     1     -13.765   2.214  30.214  0.00  0.00    +0.001 A 
ATOM     29  C   UNL     1     -15.017   2.236  29.599  0.00  0.00    +0.004 A 
BRANCH  24   4
ATOM      4  O   UNL     1     -16.865   4.451  31.836  0.00  0.00    -0.494 OA
ATOM     30  C   UNL     1     -17.666   5.185  30.915  0.00  0.00    +0.277 C 
ENDBRANCH  24   4
ENDBRANCH  18  22
ENDBRANCH  12   5
BRANCH  13   6
ATOM      3  O   UNL     1      -9.126  13.311  32.248  0.00  0.00    -0.253 OA
ATOM      6  N   UNL     1      -9.577  11.044  32.464  0.00  0.00    -0.292 N 
ATOM      7  N   UNL     1      -7.450  11.828  32.859  0.00  0.00    -0.296 N 
ATOM     17  C   UNL     1      -8.752  12.167  32.500  0.00  0.00    +0.300 C 
ATOM     32  H   UNL     1      -9.185  10.153  32.755  0.00  0.00    +0.151 HD
ATOM     33  H   UNL     1      -7.237  10.857  33.067  0.00  0.00    +0.151 HD
BRANCH   7  19
ATOM     19  C   UNL     1      -6.391  12.802  32.971  0.00  0.00    +0.132 C 
BRANCH  19  23
ATOM     23  C   UNL     1      -5.582  12.791  31.717  0.00  0.00    -0.016 C 
ATOM     28  C   UNL     1      -4.777  13.790  31.339  0.00  0.00    +0.005 C 
ENDBRANCH  19  23
ENDBRANCH   7  19
ENDBRANCH  13   6
TORSDOF 6
ENDMDL
