MODEL 1
REMARK VINA RESULT:      -7.1      0.000      0.000
REMARK  Name = 45360760
REMARK  13 active torsions:
REMARK  status: ('A' for Active; 'I' for Inactive)
REMARK    1  A    between atoms: N_5  and  C_9
REMARK    2  A    between atoms: N_5  and  C_17
REMARK    3  A    between atoms: N_6  and  C_22
REMARK    4  A    between atoms: N_6  and  C_23
REMARK    5  A    between atoms: N_7  and  C_26
REMARK    6  A    between atoms: N_7  and  C_29
REMARK    7  A    between atoms: N_7  and  C_30
REMARK    8  A    between atoms: C_10  and  C_15
REMARK    9  A    between atoms: C_15  and  C_16
REMARK   10  A    between atoms: C_16  and  C_18
REMARK   11  A    between atoms: C_17  and  C_19
REMARK   12  A    between atoms: C_22  and  C_27
REMARK   13  A    between atoms: C_23  and  C_28
REMARK                            x       y       z     vdW  Elec       q    Type
REMARK                         _______ _______ _______ _____ _____    ______ ____
ROOT
ATOM      1  O   UNL     1      11.827   7.641  17.466  0.00  0.00    -0.274 OA
ATOM      3  N   UNL     1      13.293   9.250  20.396  0.00  0.00    -0.286 NA
ATOM      4  N   UNL     1      10.858   8.241  19.434  0.00  0.00    -0.313 N 
ATOM      8  C   UNL     1      13.219   8.884  18.976  0.00  0.00    +0.145 C 
ATOM      9  C   UNL     1      15.083   7.839  20.128  0.00  0.00    +0.070 C 
ATOM     10  C   UNL     1      12.044   9.761  20.951  0.00  0.00    +0.075 C 
ATOM     11  C   UNL     1      14.427   7.960  18.753  0.00  0.00    +0.048 C 
ATOM     12  C   UNL     1      13.946   8.145  21.093  0.00  0.00    +0.104 C 
ATOM     13  C   UNL     1      10.924   8.746  20.786  0.00  0.00    +0.123 C 
ATOM     14  C   UNL     1      11.925   8.185  18.570  0.00  0.00    +0.230 C 
ATOM     31  H   UNL     1       9.996   7.790  19.143  0.00  0.00    +0.149 HD
ENDROOT
BRANCH   9   5
ATOM      5  N   UNL     1      15.702   6.542  20.353  0.00  0.00    -0.308 NA
ATOM     32  H   UNL     1      16.008   6.484  21.325  0.00  0.00    +0.123 HD
BRANCH   5  17
ATOM     17  C   UNL     1      16.854   6.353  19.481  0.00  0.00    +0.116 C 
BRANCH  17  19
ATOM     19  C   UNL     1      18.127   6.174  20.266  0.00  0.00    -0.033 A 
ATOM     20  C   UNL     1      18.348   6.927  21.418  0.00  0.00    +0.007 A 
ATOM     21  C   UNL     1      19.085   5.255  19.839  0.00  0.00    +0.007 A 
ATOM     24  C   UNL     1      19.527   6.761  22.144  0.00  0.00    +0.023 A 
ATOM     25  C   UNL     1      20.265   5.089  20.565  0.00  0.00    +0.023 A 
ATOM     26  C   UNL     1      20.485   5.842  21.717  0.00  0.00    +0.029 A 
BRANCH  26   7
ATOM      7  N   UNL     1      21.678   5.674  22.451  0.00  0.00    -0.336 N 
ATOM     29  C   UNL     1      22.054   6.634  23.470  0.00  0.00    +0.129 C 
ATOM     30  C   UNL     1      22.540   4.537  22.201  0.00  0.00    +0.129 C 
ENDBRANCH  26   7
ENDBRANCH  17  19
ENDBRANCH   5  17
ENDBRANCH   9   5
BRANCH  10  15
ATOM     15  C   UNL     1      12.178  10.199  22.410  0.00  0.00    +0.029 C 
BRANCH  15  16
ATOM     16  C   UNL     1      10.843  10.689  22.963  0.00  0.00    +0.097 C 
BRANCH  16  18
ATOM      2  O   UNL     1      11.194  10.715  25.334  0.00  0.00    -0.276 OA
ATOM      6  N   UNL     1      10.900  12.774  24.307  0.00  0.00    -0.302 N 
ATOM     18  C   UNL     1      10.997  11.378  24.312  0.00  0.00    +0.216 C 
BRANCH   6  22
ATOM     22  C   UNL     1      11.025  13.507  25.561  0.00  0.00    +0.104 C 
ATOM     27  C   UNL     1      12.456  13.933  25.812  0.00  0.00    +0.024 C 
ENDBRANCH   6  22
BRANCH   6  23
ATOM     23  C   UNL     1      10.668  13.600  23.124  0.00  0.00    +0.104 C 
ATOM     28  C   UNL     1       9.437  14.468  23.286  0.00  0.00    +0.024 C 
ENDBRANCH   6  23
ENDBRANCH  16  18
ENDBRANCH  15  16
ENDBRANCH  10  15
TORSDOF 9
ENDMDL
MODEL 2
REMARK VINA RESULT:      -7.0      1.658      2.442
REMARK  Name = 45360760
REMARK  13 active torsions:
REMARK  status: ('A' for Active; 'I' for Inactive)
REMARK    1  A    between atoms: N_5  and  C_9
REMARK    2  A    between atoms: N_5  and  C_17
REMARK    3  A    between atoms: N_6  and  C_22
REMARK    4  A    between atoms: N_6  and  C_23
REMARK    5  A    between atoms: N_7  and  C_26
REMARK    6  A    between atoms: N_7  and  C_29
REMARK    7  A    between atoms: N_7  and  C_30
REMARK    8  A    between atoms: C_10  and  C_15
REMARK    9  A    between atoms: C_15  and  C_16
REMARK   10  A    between atoms: C_16  and  C_18
REMARK   11  A    between atoms: C_17  and  C_19
REMARK   12  A    between atoms: C_22  and  C_27
REMARK   13  A    between atoms: C_23  and  C_28
REMARK                            x       y       z     vdW  Elec       q    Type
REMARK                         _______ _______ _______ _____ _____    ______ ____
ROOT
ATOM      1  O   UNL     1      11.138   6.103  20.692  0.00  0.00    -0.274 OA
ATOM      3  N   UNL     1      11.714   9.702  20.502  0.00  0.00    -0.286 NA
ATOM      4  N   UNL     1      10.999   7.686  22.318  0.00  0.00    -0.313 N 
ATOM      8  C   UNL     1      11.402   8.373  19.960  0.00  0.00    +0.145 C 
ATOM      9  C   UNL     1      13.553   9.220  19.216  0.00  0.00    +0.070 C 
ATOM     10  C   UNL     1      10.952  10.058  21.694  0.00  0.00    +0.075 C 
ATOM     11  C   UNL     1      12.604   8.031  19.065  0.00  0.00    +0.048 C 
ATOM     12  C   UNL     1      13.169   9.811  20.566  0.00  0.00    +0.104 C 
ATOM     13  C   UNL     1      11.170   9.037  22.800  0.00  0.00    +0.123 C 
ATOM     14  C   UNL     1      11.193   7.292  21.017  0.00  0.00    +0.230 C 
ATOM     31  H   UNL     1      10.841   6.959  23.009  0.00  0.00    +0.149 HD
ENDROOT
BRANCH   9   5
ATOM      5  N   UNL     1      14.955   8.846  19.125  0.00  0.00    -0.308 NA
ATOM     32  H   UNL     1      15.327   9.167  18.230  0.00  0.00    +0.123 HD
BRANCH   5  17
ATOM     17  C   UNL     1      15.118   7.400  19.213  0.00  0.00    +0.116 C 
BRANCH  17  19
ATOM     19  C   UNL     1      16.463   7.021  19.776  0.00  0.00    -0.033 A 
ATOM     20  C   UNL     1      16.954   7.672  20.907  0.00  0.00    +0.007 A 
ATOM     21  C   UNL     1      17.216   6.019  19.165  0.00  0.00    +0.007 A 
ATOM     24  C   UNL     1      18.199   7.321  21.427  0.00  0.00    +0.023 A 
ATOM     25  C   UNL     1      18.462   5.668  19.686  0.00  0.00    +0.023 A 
ATOM     26  C   UNL     1      18.953   6.319  20.817  0.00  0.00    +0.029 A 
BRANCH  26   7
ATOM      7  N   UNL     1      20.213   5.964  21.343  0.00  0.00    -0.336 N 
ATOM     29  C   UNL     1      21.132   5.157  20.564  0.00  0.00    +0.129 C 
ATOM     30  C   UNL     1      20.608   6.406  22.664  0.00  0.00    +0.129 C 
ENDBRANCH  26   7
ENDBRANCH  17  19
ENDBRANCH   5  17
ENDBRANCH   9   5
BRANCH  10  15
ATOM     15  C   UNL     1      11.250  11.475  22.187  0.00  0.00    +0.029 C 
BRANCH  15  16
ATOM     16  C   UNL     1      10.986  11.604  23.684  0.00  0.00    +0.097 C 
BRANCH  16  18
ATOM      2  O   UNL     1       9.971  13.776  23.653  0.00  0.00    -0.276 OA
ATOM      6  N   UNL     1      11.789  13.501  25.067  0.00  0.00    -0.302 N 
ATOM     18  C   UNL     1      10.856  13.057  24.123  0.00  0.00    +0.216 C 
BRANCH   6  22
ATOM     22  C   UNL     1      11.738  14.882  25.531  0.00  0.00    +0.104 C 
ATOM     27  C   UNL     1      11.062  14.989  26.881  0.00  0.00    +0.024 C 
ENDBRANCH   6  22
BRANCH   6  23
ATOM     23  C   UNL     1      12.853  12.688  25.651  0.00  0.00    +0.104 C 
ATOM     28  C   UNL     1      14.207  13.054  25.079  0.00  0.00    +0.024 C 
ENDBRANCH   6  23
ENDBRANCH  16  18
ENDBRANCH  15  16
ENDBRANCH  10  15
TORSDOF 9
ENDMDL
MODEL 3
REMARK VINA RESULT:      -6.5     26.930     29.711
REMARK  Name = 45360760
REMARK  13 active torsions:
REMARK  status: ('A' for Active; 'I' for Inactive)
REMARK    1  A    between atoms: N_5  and  C_9
REMARK    2  A    between atoms: N_5  and  C_17
REMARK    3  A    between atoms: N_6  and  C_22
REMARK    4  A    between atoms: N_6  and  C_23
REMARK    5  A    between atoms: N_7  and  C_26
REMARK    6  A    between atoms: N_7  and  C_29
REMARK    7  A    between atoms: N_7  and  C_30
REMARK    8  A    between atoms: C_10  and  C_15
REMARK    9  A    between atoms: C_15  and  C_16
REMARK   10  A    between atoms: C_16  and  C_18
REMARK   11  A    between atoms: C_17  and  C_19
REMARK   12  A    between atoms: C_22  and  C_27
REMARK   13  A    between atoms: C_23  and  C_28
REMARK                            x       y       z     vdW  Elec       q    Type
REMARK                         _______ _______ _______ _____ _____    ______ ____
ROOT
ATOM      1  O   UNL     1      -3.274 -14.396  13.696  0.00  0.00    -0.274 OA
ATOM      3  N   UNL     1      -2.242 -11.164  12.349  0.00  0.00    -0.286 NA
ATOM      4  N   UNL     1      -4.232 -13.123  12.074  0.00  0.00    -0.313 N 
ATOM      8  C   UNL     1      -2.040 -12.445  13.038  0.00  0.00    +0.145 C 
ATOM      9  C   UNL     1      -1.820 -10.530  14.514  0.00  0.00    +0.070 C 
ATOM     10  C   UNL     1      -2.965 -11.269  11.086  0.00  0.00    +0.075 C 
ATOM     11  C   UNL     1      -1.722 -12.055  14.490  0.00  0.00    +0.048 C 
ATOM     12  C   UNL     1      -2.739 -10.214  13.341  0.00  0.00    +0.104 C 
ATOM     13  C   UNL     1      -4.329 -11.910  11.296  0.00  0.00    +0.123 C 
ATOM     14  C   UNL     1      -3.238 -13.389  12.983  0.00  0.00    +0.230 C 
ATOM     31  H   UNL     1      -5.015 -13.769  12.033  0.00  0.00    +0.149 HD
ENDROOT
BRANCH   9   5
ATOM      5  N   UNL     1      -2.300 -10.008  15.783  0.00  0.00    -0.308 NA
ATOM     32  H   UNL     1      -1.509  -9.637  16.311  0.00  0.00    +0.123 HD
BRANCH   5  17
ATOM     17  C   UNL     1      -2.944 -11.054  16.569  0.00  0.00    +0.116 C 
BRANCH  17  19
ATOM     19  C   UNL     1      -4.373 -10.710  16.895  0.00  0.00    -0.033 A 
ATOM     20  C   UNL     1      -4.894 -11.012  18.152  0.00  0.00    +0.007 A 
ATOM     21  C   UNL     1      -5.176 -10.088  15.939  0.00  0.00    +0.007 A 
ATOM     24  C   UNL     1      -6.217 -10.694  18.454  0.00  0.00    +0.023 A 
ATOM     25  C   UNL     1      -6.501  -9.770  16.241  0.00  0.00    +0.023 A 
ATOM     26  C   UNL     1      -7.021 -10.072  17.498  0.00  0.00    +0.029 A 
BRANCH  26   7
ATOM      7  N   UNL     1      -8.360  -9.750  17.803  0.00  0.00    -0.336 N 
ATOM     29  C   UNL     1      -9.115 -10.563  18.736  0.00  0.00    +0.129 C 
ATOM     30  C   UNL     1      -8.995  -8.600  17.194  0.00  0.00    +0.129 C 
ENDBRANCH  26   7
ENDBRANCH  17  19
ENDBRANCH   5  17
ENDBRANCH   9   5
BRANCH  10  15
ATOM     15  C   UNL     1      -3.094  -9.928  10.363  0.00  0.00    +0.029 C 
BRANCH  15  16
ATOM     16  C   UNL     1      -4.163  -9.988   9.277  0.00  0.00    +0.097 C 
BRANCH  16  18
ATOM      2  O   UNL     1      -5.085  -8.032  10.312  0.00  0.00    -0.276 OA
ATOM      6  N   UNL     1      -6.288  -8.935   8.547  0.00  0.00    -0.302 N 
ATOM     18  C   UNL     1      -5.209  -8.893   9.437  0.00  0.00    +0.216 C 
BRANCH   6  22
ATOM     22  C   UNL     1      -7.337  -7.928   8.643  0.00  0.00    +0.104 C 
ATOM     27  C   UNL     1      -8.497  -8.413   9.486  0.00  0.00    +0.024 C 
ENDBRANCH   6  22
BRANCH   6  23
ATOM     23  C   UNL     1      -6.478  -9.933   7.496  0.00  0.00    +0.104 C 
ATOM     28  C   UNL     1      -6.764  -9.282   6.159  0.00  0.00    +0.024 C 
ENDBRANCH   6  23
ENDBRANCH  16  18
ENDBRANCH  15  16
ENDBRANCH  10  15
TORSDOF 9
ENDMDL
MODEL 4
REMARK VINA RESULT:      -6.2     15.525     19.373
REMARK  Name = 45360760
REMARK  13 active torsions:
REMARK  status: ('A' for Active; 'I' for Inactive)
REMARK    1  A    between atoms: N_5  and  C_9
REMARK    2  A    between atoms: N_5  and  C_17
REMARK    3  A    between atoms: N_6  and  C_22
REMARK    4  A    between atoms: N_6  and  C_23
REMARK    5  A    between atoms: N_7  and  C_26
REMARK    6  A    between atoms: N_7  and  C_29
REMARK    7  A    between atoms: N_7  and  C_30
REMARK    8  A    between atoms: C_10  and  C_15
REMARK    9  A    between atoms: C_15  and  C_16
REMARK   10  A    between atoms: C_16  and  C_18
REMARK   11  A    between atoms: C_17  and  C_19
REMARK   12  A    between atoms: C_22  and  C_27
REMARK   13  A    between atoms: C_23  and  C_28
REMARK                            x       y       z     vdW  Elec       q    Type
REMARK                         _______ _______ _______ _____ _____    ______ ____
ROOT
ATOM      1  O   UNL     1       9.848   5.220   8.055  0.00  0.00    -0.274 OA
ATOM      3  N   UNL     1      11.525   7.806   6.100  0.00  0.00    -0.286 NA
ATOM      4  N   UNL     1      12.059   5.734   7.915  0.00  0.00    -0.313 N 
ATOM      8  C   UNL     1      10.383   7.181   6.779  0.00  0.00    +0.145 C 
ATOM      9  C   UNL     1      10.144   7.221   4.363  0.00  0.00    +0.070 C 
ATOM     10  C   UNL     1      12.743   7.860   6.901  0.00  0.00    +0.075 C 
ATOM     11  C   UNL     1       9.419   6.804   5.642  0.00  0.00    +0.048 C 
ATOM     12  C   UNL     1      11.612   7.214   4.768  0.00  0.00    +0.104 C 
ATOM     13  C   UNL     1      13.164   6.466   7.341  0.00  0.00    +0.123 C 
ATOM     14  C   UNL     1      10.737   5.954   7.614  0.00  0.00    +0.230 C 
ATOM     31  H   UNL     1      12.280   4.925   8.489  0.00  0.00    +0.149 HD
ENDROOT
BRANCH   9   5
ATOM      5  N   UNL     1       9.850   6.354   3.232  0.00  0.00    -0.308 NA
ATOM     32  H   UNL     1       8.843   6.194   3.189  0.00  0.00    +0.123 HD
BRANCH   5  17
ATOM     17  C   UNL     1      10.529   5.072   3.365  0.00  0.00    +0.116 C 
BRANCH  17  19
ATOM     19  C   UNL     1      11.079   4.589   2.049  0.00  0.00    -0.033 A 
ATOM     20  C   UNL     1      12.307   3.931   2.005  0.00  0.00    +0.007 A 
ATOM     21  C   UNL     1      10.360   4.802   0.873  0.00  0.00    +0.007 A 
ATOM     24  C   UNL     1      12.816   3.484   0.787  0.00  0.00    +0.023 A 
ATOM     25  C   UNL     1      10.869   4.356  -0.347  0.00  0.00    +0.023 A 
ATOM     26  C   UNL     1      12.097   3.697  -0.390  0.00  0.00    +0.029 A 
BRANCH  26   7
ATOM      7  N   UNL     1      12.612   3.246  -1.623  0.00  0.00    -0.336 N 
ATOM     29  C   UNL     1      11.994   2.131  -2.313  0.00  0.00    +0.129 C 
ATOM     30  C   UNL     1      13.762   3.895  -2.220  0.00  0.00    +0.129 C 
ENDBRANCH  26   7
ENDBRANCH  17  19
ENDBRANCH   5  17
ENDBRANCH   9   5
BRANCH  10  15
ATOM     15  C   UNL     1      13.889   8.581   6.190  0.00  0.00    +0.029 C 
BRANCH  15  16
ATOM     16  C   UNL     1      15.174   7.760   6.242  0.00  0.00    +0.097 C 
BRANCH  16  18
ATOM      2  O   UNL     1      15.372   7.138   3.935  0.00  0.00    -0.276 OA
ATOM      6  N   UNL     1      17.125   8.362   4.834  0.00  0.00    -0.302 N 
ATOM     18  C   UNL     1      15.885   7.717   4.896  0.00  0.00    +0.216 C 
BRANCH   6  22
ATOM     22  C   UNL     1      17.874   8.357   3.583  0.00  0.00    +0.104 C 
ATOM     27  C   UNL     1      19.322   7.974   3.805  0.00  0.00    +0.024 C 
ENDBRANCH   6  22
BRANCH   6  23
ATOM     23  C   UNL     1      17.771   9.060   5.943  0.00  0.00    +0.104 C 
ATOM     28  C   UNL     1      17.490  10.548   5.901  0.00  0.00    +0.024 C 
ENDBRANCH   6  23
ENDBRANCH  16  18
ENDBRANCH  15  16
ENDBRANCH  10  15
TORSDOF 9
ENDMDL
MODEL 5
REMARK VINA RESULT:      -6.2     27.129     30.809
REMARK  Name = 45360760
REMARK  13 active torsions:
REMARK  status: ('A' for Active; 'I' for Inactive)
REMARK    1  A    between atoms: N_5  and  C_9
REMARK    2  A    between atoms: N_5  and  C_17
REMARK    3  A    between atoms: N_6  and  C_22
REMARK    4  A    between atoms: N_6  and  C_23
REMARK    5  A    between atoms: N_7  and  C_26
REMARK    6  A    between atoms: N_7  and  C_29
REMARK    7  A    between atoms: N_7  and  C_30
REMARK    8  A    between atoms: C_10  and  C_15
REMARK    9  A    between atoms: C_15  and  C_16
REMARK   10  A    between atoms: C_16  and  C_18
REMARK   11  A    between atoms: C_17  and  C_19
REMARK   12  A    between atoms: C_22  and  C_27
REMARK   13  A    between atoms: C_23  and  C_28
REMARK                            x       y       z     vdW  Elec       q    Type
REMARK                         _______ _______ _______ _____ _____    ______ ____
ROOT
ATOM      1  O   UNL     1      -7.566 -13.357  18.093  0.00  0.00    -0.274 OA
ATOM      3  N   UNL     1      -5.325 -10.575  17.344  0.00  0.00    -0.286 NA
ATOM      4  N   UNL     1      -5.615 -13.334  16.925  0.00  0.00    -0.313 N 
ATOM      8  C   UNL     1      -6.373 -11.274  18.098  0.00  0.00    +0.145 C 
ATOM      9  C   UNL     1      -7.204  -9.338  16.890  0.00  0.00    +0.070 C 
ATOM     10  C   UNL     1      -4.138 -11.381  17.077  0.00  0.00    +0.075 C 
ATOM     11  C   UNL     1      -7.646 -10.451  17.841  0.00  0.00    +0.048 C 
ATOM     12  C   UNL     1      -5.972  -9.920  16.210  0.00  0.00    +0.104 C 
ATOM     13  C   UNL     1      -4.504 -12.644  16.312  0.00  0.00    +0.123 C 
ATOM     14  C   UNL     1      -6.582 -12.729  17.690  0.00  0.00    +0.230 C 
ATOM     31  H   UNL     1      -5.755 -14.309  16.677  0.00  0.00    +0.149 HD
ENDROOT
BRANCH   9   5
ATOM      5  N   UNL     1      -8.246  -8.938  15.957  0.00  0.00    -0.308 NA
ATOM     32  H   UNL     1      -8.025  -8.011  15.590  0.00  0.00    +0.123 HD
BRANCH   5  17
ATOM     17  C   UNL     1      -9.546  -8.889  16.615  0.00  0.00    +0.116 C 
BRANCH  17  19
ATOM     19  C   UNL     1     -10.506  -7.982  15.891  0.00  0.00    -0.033 A 
ATOM     20  C   UNL     1     -10.790  -6.716  16.402  0.00  0.00    +0.007 A 
ATOM     21  C   UNL     1     -11.111  -8.408  14.709  0.00  0.00    +0.007 A 
ATOM     24  C   UNL     1     -11.679  -5.877  15.732  0.00  0.00    +0.023 A 
ATOM     25  C   UNL     1     -12.001  -7.569  14.038  0.00  0.00    +0.023 A 
ATOM     26  C   UNL     1     -12.285  -6.303  14.550  0.00  0.00    +0.029 A 
BRANCH  26   7
ATOM      7  N   UNL     1     -13.184  -5.454  13.872  0.00  0.00    -0.336 N 
ATOM     29  C   UNL     1     -12.698  -4.292  13.156  0.00  0.00    +0.129 C 
ATOM     30  C   UNL     1     -14.605  -5.737  13.876  0.00  0.00    +0.129 C 
ENDBRANCH  26   7
ENDBRANCH  17  19
ENDBRANCH   5  17
ENDBRANCH   9   5
BRANCH  10  15
ATOM     15  C   UNL     1      -3.040 -10.599  16.354  0.00  0.00    +0.029 C 
BRANCH  15  16
ATOM     16  C   UNL     1      -2.439 -11.418  15.216  0.00  0.00    +0.097 C 
BRANCH  16  18
ATOM      2  O   UNL     1      -1.136  -9.632  14.291  0.00  0.00    -0.276 OA
ATOM      6  N   UNL     1      -2.452 -10.832  12.806  0.00  0.00    -0.302 N 
ATOM     18  C   UNL     1      -1.941 -10.541  14.076  0.00  0.00    +0.216 C 
BRANCH   6  22
ATOM     22  C   UNL     1      -2.033 -10.031  11.662  0.00  0.00    +0.104 C 
ATOM     27  C   UNL     1      -3.128  -9.934  10.621  0.00  0.00    +0.024 C 
ENDBRANCH   6  22
BRANCH   6  23
ATOM     23  C   UNL     1      -3.406 -11.896  12.503  0.00  0.00    +0.104 C 
ATOM     28  C   UNL     1      -2.704 -13.212  12.239  0.00  0.00    +0.024 C 
ENDBRANCH   6  23
ENDBRANCH  16  18
ENDBRANCH  15  16
ENDBRANCH  10  15
TORSDOF 9
ENDMDL
MODEL 6
REMARK VINA RESULT:      -6.0     27.430     30.735
REMARK  Name = 45360760
REMARK  13 active torsions:
REMARK  status: ('A' for Active; 'I' for Inactive)
REMARK    1  A    between atoms: N_5  and  C_9
REMARK    2  A    between atoms: N_5  and  C_17
REMARK    3  A    between atoms: N_6  and  C_22
REMARK    4  A    between atoms: N_6  and  C_23
REMARK    5  A    between atoms: N_7  and  C_26
REMARK    6  A    between atoms: N_7  and  C_29
REMARK    7  A    between atoms: N_7  and  C_30
REMARK    8  A    between atoms: C_10  and  C_15
REMARK    9  A    between atoms: C_15  and  C_16
REMARK   10  A    between atoms: C_16  and  C_18
REMARK   11  A    between atoms: C_17  and  C_19
REMARK   12  A    between atoms: C_22  and  C_27
REMARK   13  A    between atoms: C_23  and  C_28
REMARK                            x       y       z     vdW  Elec       q    Type
REMARK                         _______ _______ _______ _____ _____    ______ ____
ROOT
ATOM      1  O   UNL     1      -5.645 -14.018  16.972  0.00  0.00    -0.274 OA
ATOM      3  N   UNL     1      -3.732 -11.100  15.902  0.00  0.00    -0.286 NA
ATOM      4  N   UNL     1      -4.210 -13.780  15.224  0.00  0.00    -0.313 N 
ATOM      8  C   UNL     1      -4.475 -11.925  16.862  0.00  0.00    +0.145 C 
ATOM      9  C   UNL     1      -5.624  -9.863  16.296  0.00  0.00    +0.070 C 
ATOM     10  C   UNL     1      -2.727 -11.828  15.136  0.00  0.00    +0.075 C 
ATOM     11  C   UNL     1      -5.739 -11.108  17.174  0.00  0.00    +0.048 C 
ATOM     12  C   UNL     1      -4.713 -10.310  15.161  0.00  0.00    +0.104 C 
ATOM     13  C   UNL     1      -3.360 -12.982  14.372  0.00  0.00    +0.123 C 
ATOM     14  C   UNL     1      -4.844 -13.314  16.350  0.00  0.00    +0.230 C 
ATOM     31  H   UNL     1      -4.449 -14.715  14.905  0.00  0.00    +0.149 HD
ENDROOT
BRANCH   9   5
ATOM      5  N   UNL     1      -6.913  -9.363  15.842  0.00  0.00    -0.308 NA
ATOM     32  H   UNL     1      -6.773  -8.475  15.359  0.00  0.00    +0.123 HD
BRANCH   5  17
ATOM     17  C   UNL     1      -7.819  -9.156  16.964  0.00  0.00    +0.116 C 
BRANCH  17  19
ATOM     19  C   UNL     1      -9.207  -8.797  16.504  0.00  0.00    -0.033 A 
ATOM     20  C   UNL     1     -10.135  -8.292  17.414  0.00  0.00    +0.007 A 
ATOM     21  C   UNL     1      -9.565  -8.968  15.167  0.00  0.00    +0.007 A 
ATOM     24  C   UNL     1     -11.420  -7.960  16.989  0.00  0.00    +0.023 A 
ATOM     25  C   UNL     1     -10.851  -8.635  14.740  0.00  0.00    +0.023 A 
ATOM     26  C   UNL     1     -11.778  -8.131  15.651  0.00  0.00    +0.029 A 
BRANCH  26   7
ATOM      7  N   UNL     1     -13.078  -7.795  15.220  0.00  0.00    -0.336 N 
ATOM     29  C   UNL     1     -13.831  -6.758  15.898  0.00  0.00    +0.129 C 
ATOM     30  C   UNL     1     -13.677  -8.477  14.090  0.00  0.00    +0.129 C 
ENDBRANCH  26   7
ENDBRANCH  17  19
ENDBRANCH   5  17
ENDBRANCH   9   5
BRANCH  10  15
ATOM     15  C   UNL     1      -1.924 -10.924  14.199  0.00  0.00    +0.029 C 
BRANCH  15  16
ATOM     16  C   UNL     1      -1.930 -11.465  12.773  0.00  0.00    +0.097 C 
BRANCH  16  18
ATOM      2  O   UNL     1      -1.115  -9.544  11.592  0.00  0.00    -0.276 OA
ATOM      6  N   UNL     1      -3.214 -10.321  10.984  0.00  0.00    -0.302 N 
ATOM     18  C   UNL     1      -2.034 -10.354  11.736  0.00  0.00    +0.216 C 
BRANCH   6  22
ATOM     22  C   UNL     1      -3.394  -9.282   9.978  0.00  0.00    +0.104 C 
ATOM     27  C   UNL     1      -4.708  -8.553  10.164  0.00  0.00    +0.024 C 
ENDBRANCH   6  22
BRANCH   6  23
ATOM     23  C   UNL     1      -4.327 -11.257  11.118  0.00  0.00    +0.104 C 
ATOM     28  C   UNL     1      -4.283 -12.329  10.049  0.00  0.00    +0.024 C 
ENDBRANCH   6  23
ENDBRANCH  16  18
ENDBRANCH  15  16
ENDBRANCH  10  15
TORSDOF 9
ENDMDL
MODEL 7
REMARK VINA RESULT:      -5.8     16.657     22.021
REMARK  Name = 45360760
REMARK  13 active torsions:
REMARK  status: ('A' for Active; 'I' for Inactive)
REMARK    1  A    between atoms: N_5  and  C_9
REMARK    2  A    between atoms: N_5  and  C_17
REMARK    3  A    between atoms: N_6  and  C_22
REMARK    4  A    between atoms: N_6  and  C_23
REMARK    5  A    between atoms: N_7  and  C_26
REMARK    6  A    between atoms: N_7  and  C_29
REMARK    7  A    between atoms: N_7  and  C_30
REMARK    8  A    between atoms: C_10  and  C_15
REMARK    9  A    between atoms: C_15  and  C_16
REMARK   10  A    between atoms: C_16  and  C_18
REMARK   11  A    between atoms: C_17  and  C_19
REMARK   12  A    between atoms: C_22  and  C_27
REMARK   13  A    between atoms: C_23  and  C_28
REMARK                            x       y       z     vdW  Elec       q    Type
REMARK                         _______ _______ _______ _____ _____    ______ ____
ROOT
ATOM      1  O   UNL     1       9.365   5.860   8.089  0.00  0.00    -0.274 OA
ATOM      3  N   UNL     1      10.383   6.954   4.759  0.00  0.00    -0.286 NA
ATOM      4  N   UNL     1       9.941   4.629   6.266  0.00  0.00    -0.313 N 
ATOM      8  C   UNL     1      10.176   7.106   6.205  0.00  0.00    +0.145 C 
ATOM      9  C   UNL     1       8.697   8.507   4.884  0.00  0.00    +0.070 C 
ATOM     10  C   UNL     1      11.061   5.721   4.375  0.00  0.00    +0.075 C 
ATOM     11  C   UNL     1       9.071   8.167   6.326  0.00  0.00    +0.048 C 
ATOM     12  C   UNL     1       9.113   7.265   4.107  0.00  0.00    +0.104 C 
ATOM     13  C   UNL     1      10.291   4.505   4.870  0.00  0.00    +0.123 C 
ATOM     14  C   UNL     1       9.772   5.822   6.924  0.00  0.00    +0.230 C 
ATOM     31  H   UNL     1       9.688   3.780   6.762  0.00  0.00    +0.149 HD
ENDROOT
BRANCH   9   5
ATOM      5  N   UNL     1       7.292   8.847   4.723  0.00  0.00    -0.308 NA
ATOM     32  H   UNL     1       6.733   7.998   4.809  0.00  0.00    +0.123 HD
BRANCH   5  17
ATOM     17  C   UNL     1       7.046   9.448   3.418  0.00  0.00    +0.116 C 
BRANCH  17  19
ATOM     19  C   UNL     1       5.770  10.249   3.402  0.00  0.00    -0.033 A 
ATOM     20  C   UNL     1       4.848  10.072   2.371  0.00  0.00    +0.007 A 
ATOM     21  C   UNL     1       5.511  11.167   4.420  0.00  0.00    +0.007 A 
ATOM     24  C   UNL     1       3.668  10.814   2.357  0.00  0.00    +0.023 A 
ATOM     25  C   UNL     1       4.330  11.910   4.405  0.00  0.00    +0.023 A 
ATOM     26  C   UNL     1       3.409  11.733   3.374  0.00  0.00    +0.029 A 
BRANCH  26   7
ATOM      7  N   UNL     1       2.215  12.483   3.359  0.00  0.00    -0.336 N 
ATOM     29  C   UNL     1       2.255  13.929   3.461  0.00  0.00    +0.129 C 
ATOM     30  C   UNL     1       0.932  11.821   3.235  0.00  0.00    +0.129 C 
ENDBRANCH  26   7
ENDBRANCH  17  19
ENDBRANCH   5  17
ENDBRANCH   9   5
BRANCH  10  15
ATOM     15  C   UNL     1      11.323   5.631   2.872  0.00  0.00    +0.029 C 
BRANCH  15  16
ATOM     16  C   UNL     1      11.016   4.234   2.341  0.00  0.00    +0.097 C 
BRANCH  16  18
ATOM      2  O   UNL     1       9.668   4.567   0.387  0.00  0.00    -0.276 OA
ATOM      6  N   UNL     1      11.838   3.826   0.036  0.00  0.00    -0.302 N 
ATOM     18  C   UNL     1      10.765   4.230   0.839  0.00  0.00    +0.216 C 
BRANCH   6  22
ATOM     22  C   UNL     1      11.674   3.786  -1.412  0.00  0.00    +0.104 C 
ATOM     27  C   UNL     1      12.097   2.448  -1.981  0.00  0.00    +0.024 C 
ENDBRANCH   6  22
BRANCH   6  23
ATOM     23  C   UNL     1      13.153   3.419   0.525  0.00  0.00    +0.104 C 
ATOM     28  C   UNL     1      14.185   4.507   0.313  0.00  0.00    +0.024 C 
ENDBRANCH   6  23
ENDBRANCH  16  18
ENDBRANCH  15  16
ENDBRANCH  10  15
TORSDOF 9
ENDMDL
MODEL 8
REMARK VINA RESULT:      -5.8     32.406     35.127
REMARK  Name = 45360760
REMARK  13 active torsions:
REMARK  status: ('A' for Active; 'I' for Inactive)
REMARK    1  A    between atoms: N_5  and  C_9
REMARK    2  A    between atoms: N_5  and  C_17
REMARK    3  A    between atoms: N_6  and  C_22
REMARK    4  A    between atoms: N_6  and  C_23
REMARK    5  A    between atoms: N_7  and  C_26
REMARK    6  A    between atoms: N_7  and  C_29
REMARK    7  A    between atoms: N_7  and  C_30
REMARK    8  A    between atoms: C_10  and  C_15
REMARK    9  A    between atoms: C_15  and  C_16
REMARK   10  A    between atoms: C_16  and  C_18
REMARK   11  A    between atoms: C_17  and  C_19
REMARK   12  A    between atoms: C_22  and  C_27
REMARK   13  A    between atoms: C_23  and  C_28
REMARK                            x       y       z     vdW  Elec       q    Type
REMARK                         _______ _______ _______ _____ _____    ______ ____
ROOT
ATOM      1  O   UNL     1      -6.285 -10.523  37.903  0.00  0.00    -0.274 OA
ATOM      3  N   UNL     1      -8.248  -8.836  40.477  0.00  0.00    -0.286 NA
ATOM      4  N   UNL     1      -6.396  -8.315  38.435  0.00  0.00    -0.313 N 
ATOM      8  C   UNL     1      -7.580  -9.985  39.851  0.00  0.00    +0.145 C 
ATOM      9  C   UNL     1     -10.000 -10.182  39.855  0.00  0.00    +0.070 C 
ATOM     10  C   UNL     1      -7.427  -7.633  40.553  0.00  0.00    +0.075 C 
ATOM     11  C   UNL     1      -8.727 -10.925  39.449  0.00  0.00    +0.048 C 
ATOM     12  C   UNL     1      -9.570  -8.722  39.867  0.00  0.00    +0.104 C 
ATOM     13  C   UNL     1      -6.961  -7.207  39.169  0.00  0.00    +0.123 C 
ATOM     14  C   UNL     1      -6.722  -9.634  38.639  0.00  0.00    +0.230 C 
ATOM     31  H   UNL     1      -5.807  -8.096  37.636  0.00  0.00    +0.149 HD
ENDROOT
BRANCH   9   5
ATOM      5  N   UNL     1     -11.123 -10.449  38.970  0.00  0.00    -0.308 NA
ATOM     32  H   UNL     1     -11.332 -11.448  38.990  0.00  0.00    +0.123 HD
BRANCH   5  17
ATOM     17  C   UNL     1     -10.816 -10.056  37.601  0.00  0.00    +0.116 C 
BRANCH  17  19
ATOM     19  C   UNL     1     -11.438 -10.991  36.597  0.00  0.00    -0.033 A 
ATOM     20  C   UNL     1     -12.678 -10.687  36.037  0.00  0.00    +0.007 A 
ATOM     21  C   UNL     1     -10.774 -12.160  36.228  0.00  0.00    +0.007 A 
ATOM     24  C   UNL     1     -13.254 -11.552  35.107  0.00  0.00    +0.023 A 
ATOM     25  C   UNL     1     -11.350 -13.026  35.298  0.00  0.00    +0.023 A 
ATOM     26  C   UNL     1     -12.590 -12.722  34.738  0.00  0.00    +0.029 A 
BRANCH  26   7
ATOM      7  N   UNL     1     -13.173 -13.598  33.798  0.00  0.00    -0.336 N 
ATOM     29  C   UNL     1     -14.602 -13.568  33.555  0.00  0.00    +0.129 C 
ATOM     30  C   UNL     1     -12.351 -14.533  33.058  0.00  0.00    +0.129 C 
ENDBRANCH  26   7
ENDBRANCH  17  19
ENDBRANCH   5  17
ENDBRANCH   9   5
BRANCH  10  15
ATOM     15  C   UNL     1      -8.129  -6.481  41.274  0.00  0.00    +0.029 C 
BRANCH  15  16
ATOM     16  C   UNL     1      -7.918  -5.161  40.540  0.00  0.00    +0.097 C 
BRANCH  16  18
ATOM      2  O   UNL     1      -9.893  -5.250  39.183  0.00  0.00    -0.276 OA
ATOM      6  N   UNL     1      -9.581  -3.322  40.435  0.00  0.00    -0.302 N 
ATOM     18  C   UNL     1      -9.219  -4.597  39.984  0.00  0.00    +0.216 C 
BRANCH   6  22
ATOM     22  C   UNL     1     -10.808  -2.709  39.941  0.00  0.00    +0.104 C 
ATOM     27  C   UNL     1     -10.541  -1.817  38.747  0.00  0.00    +0.024 C 
ENDBRANCH   6  22
BRANCH   6  23
ATOM     23  C   UNL     1      -8.818  -2.512  41.381  0.00  0.00    +0.104 C 
ATOM     28  C   UNL     1      -9.151  -2.873  42.814  0.00  0.00    +0.024 C 
ENDBRANCH   6  23
ENDBRANCH  16  18
ENDBRANCH  15  16
ENDBRANCH  10  15
TORSDOF 9
ENDMDL
MODEL 9
REMARK VINA RESULT:      -5.8     13.817     18.567
REMARK  Name = 45360760
REMARK  13 active torsions:
REMARK  status: ('A' for Active; 'I' for Inactive)
REMARK    1  A    between atoms: N_5  and  C_9
REMARK    2  A    between atoms: N_5  and  C_17
REMARK    3  A    between atoms: N_6  and  C_22
REMARK    4  A    between atoms: N_6  and  C_23
REMARK    5  A    between atoms: N_7  and  C_26
REMARK    6  A    between atoms: N_7  and  C_29
REMARK    7  A    between atoms: N_7  and  C_30
REMARK    8  A    between atoms: C_10  and  C_15
REMARK    9  A    between atoms: C_15  and  C_16
REMARK   10  A    between atoms: C_16  and  C_18
REMARK   11  A    between atoms: C_17  and  C_19
REMARK   12  A    between atoms: C_22  and  C_27
REMARK   13  A    between atoms: C_23  and  C_28
REMARK                            x       y       z     vdW  Elec       q    Type
REMARK                         _______ _______ _______ _____ _____    ______ ____
ROOT
ATOM      1  O   UNL     1      10.854   5.527   8.734  0.00  0.00    -0.274 OA
ATOM      3  N   UNL     1      11.032   6.650   5.265  0.00  0.00    -0.286 NA
ATOM      4  N   UNL     1      10.023   4.565   6.848  0.00  0.00    -0.313 N 
ATOM      8  C   UNL     1      11.461   6.588   6.668  0.00  0.00    +0.145 C 
ATOM      9  C   UNL     1      10.560   8.756   6.047  0.00  0.00    +0.070 C 
ATOM     10  C   UNL     1      10.789   5.348   4.653  0.00  0.00    +0.075 C 
ATOM     11  C   UNL     1      11.188   7.998   7.217  0.00  0.00    +0.048 C 
ATOM     12  C   UNL     1       9.970   7.650   5.183  0.00  0.00    +0.104 C 
ATOM     13  C   UNL     1       9.738   4.572   5.432  0.00  0.00    +0.123 C 
ATOM     14  C   UNL     1      10.739   5.535   7.504  0.00  0.00    +0.230 C 
ATOM     31  H   UNL     1       9.564   3.857   7.415  0.00  0.00    +0.149 HD
ENDROOT
BRANCH   9   5
ATOM      5  N   UNL     1       9.582   9.747   6.469  0.00  0.00    -0.308 NA
ATOM     32  H   UNL     1       8.890   9.866   5.728  0.00  0.00    +0.123 HD
BRANCH   5  17
ATOM     17  C   UNL     1      10.219  11.030   6.733  0.00  0.00    +0.116 C 
BRANCH  17  19
ATOM     19  C   UNL     1      10.302  11.321   8.209  0.00  0.00    -0.033 A 
ATOM     20  C   UNL     1      11.539  11.567   8.803  0.00  0.00    +0.007 A 
ATOM     21  C   UNL     1       9.141  11.343   8.981  0.00  0.00    +0.007 A 
ATOM     24  C   UNL     1      11.616  11.835  10.169  0.00  0.00    +0.023 A 
ATOM     25  C   UNL     1       9.218  11.612  10.348  0.00  0.00    +0.023 A 
ATOM     26  C   UNL     1      10.455  11.858  10.942  0.00  0.00    +0.029 A 
BRANCH  26   7
ATOM      7  N   UNL     1      10.532  12.129  12.324  0.00  0.00    -0.336 N 
ATOM     29  C   UNL     1      11.816  12.152  12.996  0.00  0.00    +0.129 C 
ATOM     30  C   UNL     1       9.331  12.396  13.088  0.00  0.00    +0.129 C 
ENDBRANCH  26   7
ENDBRANCH  17  19
ENDBRANCH   5  17
ENDBRANCH   9   5
BRANCH  10  15
ATOM     15  C   UNL     1      10.414   5.448   3.174  0.00  0.00    +0.029 C 
BRANCH  15  16
ATOM     16  C   UNL     1      11.641   5.731   2.312  0.00  0.00    +0.097 C 
BRANCH  16  18
ATOM      2  O   UNL     1      12.590   3.541   2.082  0.00  0.00    -0.276 OA
ATOM      6  N   UNL     1      11.865   4.568   0.133  0.00  0.00    -0.302 N 
ATOM     18  C   UNL     1      12.078   4.510   1.514  0.00  0.00    +0.216 C 
BRANCH   6  22
ATOM     22  C   UNL     1      12.265   3.442  -0.703  0.00  0.00    +0.104 C 
ATOM     27  C   UNL     1      13.334   3.843  -1.698  0.00  0.00    +0.024 C 
ENDBRANCH   6  22
BRANCH   6  23
ATOM     23  C   UNL     1      11.264   5.690  -0.583  0.00  0.00    +0.104 C 
ATOM     28  C   UNL     1       9.849   5.374  -1.024  0.00  0.00    +0.024 C 
ENDBRANCH   6  23
ENDBRANCH  16  18
ENDBRANCH  15  16
ENDBRANCH  10  15
TORSDOF 9
ENDMDL
MODEL 10
REMARK VINA RESULT:      -5.7     29.712     32.104
REMARK  Name = 45360760
REMARK  13 active torsions:
REMARK  status: ('A' for Active; 'I' for Inactive)
REMARK    1  A    between atoms: N_5  and  C_9
REMARK    2  A    between atoms: N_5  and  C_17
REMARK    3  A    between atoms: N_6  and  C_22
REMARK    4  A    between atoms: N_6  and  C_23
REMARK    5  A    between atoms: N_7  and  C_26
REMARK    6  A    between atoms: N_7  and  C_29
REMARK    7  A    between atoms: N_7  and  C_30
REMARK    8  A    between atoms: C_10  and  C_15
REMARK    9  A    between atoms: C_15  and  C_16
REMARK   10  A    between atoms: C_16  and  C_18
REMARK   11  A    between atoms: C_17  and  C_19
REMARK   12  A    between atoms: C_22  and  C_27
REMARK   13  A    between atoms: C_23  and  C_28
REMARK                            x       y       z     vdW  Elec       q    Type
REMARK                         _______ _______ _______ _____ _____    ______ ____
ROOT
ATOM      1  O   UNL     1     -16.094  -5.537  12.204  0.00  0.00    -0.274 OA
ATOM      3  N   UNL     1     -13.014  -4.712  13.981  0.00  0.00    -0.286 NA
ATOM      4  N   UNL     1     -14.713  -6.873  13.419  0.00  0.00    -0.313 N 
ATOM      8  C   UNL     1     -14.310  -4.418  13.357  0.00  0.00    +0.145 C 
ATOM      9  C   UNL     1     -12.436  -3.452  12.152  0.00  0.00    +0.070 C 
ATOM     10  C   UNL     1     -13.030  -5.857  14.886  0.00  0.00    +0.075 C 
ATOM     11  C   UNL     1     -13.962  -3.545  12.140  0.00  0.00    +0.048 C 
ATOM     12  C   UNL     1     -12.010  -4.696  12.920  0.00  0.00    +0.104 C 
ATOM     13  C   UNL     1     -13.498  -7.111  14.163  0.00  0.00    +0.123 C 
ATOM     14  C   UNL     1     -15.099  -5.651  12.926  0.00  0.00    +0.230 C 
ATOM     31  H   UNL     1     -15.259  -7.685  13.141  0.00  0.00    +0.149 HD
ENDROOT
BRANCH   9   5
ATOM      5  N   UNL     1     -11.859  -3.368  10.820  0.00  0.00    -0.308 NA
ATOM     32  H   UNL     1     -12.115  -2.471  10.403  0.00  0.00    +0.123 HD
BRANCH   5  17
ATOM     17  C   UNL     1     -12.350  -4.443   9.968  0.00  0.00    +0.116 C 
BRANCH  17  19
ATOM     19  C   UNL     1     -11.228  -5.302   9.447  0.00  0.00    -0.033 A 
ATOM     20  C   UNL     1     -11.281  -6.687   9.601  0.00  0.00    +0.007 A 
ATOM     21  C   UNL     1     -10.136  -4.712   8.811  0.00  0.00    +0.007 A 
ATOM     24  C   UNL     1     -10.242  -7.482   9.119  0.00  0.00    +0.023 A 
ATOM     25  C   UNL     1      -9.096  -5.508   8.330  0.00  0.00    +0.023 A 
ATOM     26  C   UNL     1      -9.149  -6.892   8.483  0.00  0.00    +0.029 A 
BRANCH  26   7
ATOM      7  N   UNL     1      -8.098  -7.696   7.996  0.00  0.00    -0.336 N 
ATOM     29  C   UNL     1      -7.225  -8.400   8.916  0.00  0.00    +0.129 C 
ATOM     30  C   UNL     1      -7.879  -7.836   6.571  0.00  0.00    +0.129 C 
ENDBRANCH  26   7
ENDBRANCH  17  19
ENDBRANCH   5  17
ENDBRANCH   9   5
BRANCH  10  15
ATOM     15  C   UNL     1     -11.683  -6.089  15.572  0.00  0.00    +0.029 C 
BRANCH  15  16
ATOM     16  C   UNL     1     -11.082  -7.431  15.168  0.00  0.00    +0.097 C 
BRANCH  16  18
ATOM      2  O   UNL     1     -10.198  -7.517  17.394  0.00  0.00    -0.276 OA
ATOM      6  N   UNL     1      -9.554  -9.220  15.957  0.00  0.00    -0.302 N 
ATOM     18  C   UNL     1     -10.245  -8.047  16.281  0.00  0.00    +0.216 C 
BRANCH   6  22
ATOM     22  C   UNL     1      -8.722  -9.864  16.966  0.00  0.00    +0.104 C 
ATOM     27  C   UNL     1      -7.299  -9.349  16.923  0.00  0.00    +0.024 C 
ENDBRANCH   6  22
BRANCH   6  23
ATOM     23  C   UNL     1      -9.579  -9.883  14.655  0.00  0.00    +0.104 C 
ATOM     28  C   UNL     1     -10.399 -11.155  14.697  0.00  0.00    +0.024 C 
ENDBRANCH   6  23
ENDBRANCH  16  18
ENDBRANCH  15  16
ENDBRANCH  10  15
TORSDOF 9
ENDMDL
