MODEL 1
REMARK VINA RESULT:      -5.8      0.000      0.000
REMARK  Name = 11885044
REMARK  17 active torsions:
REMARK  status: ('A' for Active; 'I' for Inactive)
REMARK    1  A    between atoms: O_2  and  C_15
REMARK    2  A    between atoms: O_3  and  C_20
REMARK    3  A    between atoms: N_7  and  C_26
REMARK    4  A    between atoms: N_9  and  C_28
REMARK    5  A    between atoms: N_9  and  C_34
REMARK    6  A    between atoms: N_9  and  C_35
REMARK    7  A    between atoms: C_10  and  C_18
REMARK    8  A    between atoms: C_12  and  C_20
REMARK    9  A    between atoms: C_12  and  C_21
REMARK   10  A    between atoms: C_13  and  C_23
REMARK   11  A    between atoms: C_23  and  C_24
REMARK   12  A    between atoms: C_26  and  C_28
REMARK   13  A    between atoms: C_27  and  C_29
REMARK   14  A    between atoms: C_29  and  C_30
REMARK   15  A    between atoms: C_30  and  C_31
REMARK   16  A    between atoms: C_30  and  C_32
REMARK   17  A    between atoms: C_30  and  C_33
REMARK                            x       y       z     vdW  Elec       q    Type
REMARK                         _______ _______ _______ _____ _____    ______ ____
ROOT
ATOM      1  S   UNL     1      -6.637 -10.511  10.746  0.00  0.00    -0.057 S 
ATOM      5  O   UNL     1     -10.870  -8.805  11.692  0.00  0.00    -0.275 OA
ATOM      6  N   UNL     1      -8.217  -9.729  12.639  0.00  0.00    -0.229 NA
ATOM      8  N   UNL     1      -9.076  -9.615  10.391  0.00  0.00    -0.265 N 
ATOM     10  C   UNL     1      -5.567 -10.932  15.169  0.00  0.00    -0.019 C 
ATOM     11  C   UNL     1      -4.363 -10.618  14.176  0.00  0.00    +0.011 C 
ATOM     12  C   UNL     1      -2.918 -11.042  14.647  0.00  0.00    +0.021 C 
ATOM     13  C   UNL     1      -6.821 -10.052  14.717  0.00  0.00    +0.054 C 
ATOM     14  C   UNL     1      -5.170 -10.513  16.609  0.00  0.00    +0.010 C 
ATOM     15  C   UNL     1      -2.705 -10.589  16.119  0.00  0.00    +0.123 C 
ATOM     16  C   UNL     1      -4.699 -11.049  12.719  0.00  0.00    +0.049 C 
ATOM     17  C   UNL     1      -3.817 -11.046  17.056  0.00  0.00    +0.032 C 
ATOM     18  C   UNL     1      -5.964 -12.429  15.178  0.00  0.00    +0.012 C 
ATOM     19  C   UNL     1      -7.033 -10.136  13.226  0.00  0.00    +0.058 A 
ATOM     21  C   UNL     1      -1.863 -10.300  13.777  0.00  0.00    +0.016 C 
ATOM     22  C   UNL     1      -6.061 -10.569  12.347  0.00  0.00    +0.015 A 
ATOM     25  C   UNL     1      -8.125  -9.888  11.337  0.00  0.00    +0.165 A 
ATOM     27  C   UNL     1     -10.365  -9.100  10.613  0.00  0.00    +0.219 C 
ATOM     39  H   UNL     1      -8.797  -9.816   9.434  0.00  0.00    +0.157 HD
ENDROOT
BRANCH  15   2
ATOM      2  O   UNL     1      -1.457 -11.069  16.617  0.00  0.00    -0.391 OA
ATOM     36  H   UNL     1      -1.639 -11.808  17.222  0.00  0.00    +0.210 HD
ENDBRANCH  15   2
BRANCH  12  20
ATOM     20  C   UNL     1      -2.607 -12.546  14.483  0.00  0.00    +0.165 C 
BRANCH  20   3
ATOM      3  O   UNL     1      -1.284 -12.665  14.009  0.00  0.00    -0.394 OA
ATOM     37  H   UNL     1      -1.306 -12.613  13.038  0.00  0.00    +0.209 HD
ENDBRANCH  20   3
ENDBRANCH  12  20
BRANCH  13  23
ATOM     23  C   UNL     1      -8.117 -10.345  15.485  0.00  0.00    +0.106 C 
BRANCH  23  24
ATOM      4  O   UNL     1      -8.365  -8.890  17.402  0.00  0.00    -0.276 OA
ATOM      7  N   UNL     1      -9.411  -8.339  15.400  0.00  0.00    -0.314 N 
ATOM     24  C   UNL     1      -8.624  -9.129  16.226  0.00  0.00    +0.214 C 
ATOM     38  H   UNL     1      -9.587  -8.631  14.444  0.00  0.00    +0.149 HD
BRANCH   7  26
ATOM     26  C   UNL     1     -10.033  -7.111  15.843  0.00  0.00    +0.119 C 
BRANCH  26  28
ATOM     28  C   UNL     1     -11.439  -7.364  16.366  0.00  0.00    +0.102 C 
BRANCH  28   9
ATOM      9  N   UNL     1     -12.342  -6.310  15.922  0.00  0.00    -0.307 NA
ATOM     34  C   UNL     1     -13.696  -6.837  15.733  0.00  0.00    +0.104 C 
ATOM     35  C   UNL     1     -11.857  -5.702  14.683  0.00  0.00    +0.104 C 
ENDBRANCH  28   9
ENDBRANCH  26  28
ENDBRANCH   7  26
ENDBRANCH  23  24
ENDBRANCH  13  23
BRANCH  27  29
ATOM     29  C   UNL     1     -11.159  -8.928   9.324  0.00  0.00    +0.102 C 
BRANCH  29  30
ATOM     30  C   UNL     1     -11.194  -7.482   8.771  0.00  0.00    -0.029 C 
ATOM     31  C   UNL     1      -9.835  -6.787   8.956  0.00  0.00    +0.011 C 
ATOM     32  C   UNL     1     -11.502  -7.556   7.262  0.00  0.00    +0.011 C 
ATOM     33  C   UNL     1     -12.290  -6.644   9.450  0.00  0.00    +0.011 C 
ENDBRANCH  29  30
ENDBRANCH  27  29
TORSDOF 10
ENDMDL
MODEL 2
REMARK VINA RESULT:      -5.8     27.883     30.933
REMARK  Name = 11885044
REMARK  17 active torsions:
REMARK  status: ('A' for Active; 'I' for Inactive)
REMARK    1  A    between atoms: O_2  and  C_15
REMARK    2  A    between atoms: O_3  and  C_20
REMARK    3  A    between atoms: N_7  and  C_26
REMARK    4  A    between atoms: N_9  and  C_28
REMARK    5  A    between atoms: N_9  and  C_34
REMARK    6  A    between atoms: N_9  and  C_35
REMARK    7  A    between atoms: C_10  and  C_18
REMARK    8  A    between atoms: C_12  and  C_20
REMARK    9  A    between atoms: C_12  and  C_21
REMARK   10  A    between atoms: C_13  and  C_23
REMARK   11  A    between atoms: C_23  and  C_24
REMARK   12  A    between atoms: C_26  and  C_28
REMARK   13  A    between atoms: C_27  and  C_29
REMARK   14  A    between atoms: C_29  and  C_30
REMARK   15  A    between atoms: C_30  and  C_31
REMARK   16  A    between atoms: C_30  and  C_32
REMARK   17  A    between atoms: C_30  and  C_33
REMARK                            x       y       z     vdW  Elec       q    Type
REMARK                         _______ _______ _______ _____ _____    ______ ____
ROOT
ATOM      1  S   UNL     1      14.739   8.705   6.213  0.00  0.00    -0.057 S 
ATOM      5  O   UNL     1      11.894   7.031   2.925  0.00  0.00    -0.275 OA
ATOM      6  N   UNL     1      14.622   7.800   3.793  0.00  0.00    -0.229 NA
ATOM      8  N   UNL     1      12.547   7.906   5.015  0.00  0.00    -0.265 N 
ATOM     10  C   UNL     1      18.350   8.708   3.411  0.00  0.00    -0.019 C 
ATOM     11  C   UNL     1      18.651   8.453   4.954  0.00  0.00    +0.011 C 
ATOM     12  C   UNL     1      20.102   8.797   5.466  0.00  0.00    +0.021 C 
ATOM     13  C   UNL     1      17.024   7.903   3.028  0.00  0.00    +0.054 C 
ATOM     14  C   UNL     1      19.521   8.155   2.558  0.00  0.00    +0.010 C 
ATOM     15  C   UNL     1      21.148   8.211   4.476  0.00  0.00    +0.123 C 
ATOM     16  C   UNL     1      17.517   9.019   5.857  0.00  0.00    +0.049 C 
ATOM     17  C   UNL     1      20.895   8.612   3.027  0.00  0.00    +0.032 C 
ATOM     18  C   UNL     1      18.157  10.208   3.077  0.00  0.00    +0.012 C 
ATOM     19  C   UNL     1      15.941   8.124   4.053  0.00  0.00    +0.058 A 
ATOM     21  C   UNL     1      20.331   8.108   6.841  0.00  0.00    +0.016 C 
ATOM     22  C   UNL     1      16.187   8.608   5.322  0.00  0.00    +0.015 A 
ATOM     25  C   UNL     1      13.898   8.071   4.857  0.00  0.00    +0.165 A 
ATOM     27  C   UNL     1      11.640   7.407   4.065  0.00  0.00    +0.219 C 
ATOM     39  H   UNL     1      12.187   8.184   5.925  0.00  0.00    +0.157 HD
ENDROOT
BRANCH  15   2
ATOM      2  O   UNL     1      22.467   8.614   4.840  0.00  0.00    -0.391 OA
ATOM     36  H   UNL     1      22.924   8.914   4.037  0.00  0.00    +0.210 HD
ENDBRANCH  15   2
BRANCH  12  20
ATOM     20  C   UNL     1      20.356  10.302   5.708  0.00  0.00    +0.165 C 
BRANCH  20   3
ATOM      3  O   UNL     1      21.173  10.424   6.851  0.00  0.00    -0.394 OA
ATOM     37  H   UNL     1      20.695  10.962   7.506  0.00  0.00    +0.209 HD
ENDBRANCH  20   3
ENDBRANCH  12  20
BRANCH  13  23
ATOM     23  C   UNL     1      16.510   8.161   1.605  0.00  0.00    +0.106 C 
BRANCH  23  24
ATOM      4  O   UNL     1      17.249   6.745  -0.213  0.00  0.00    -0.276 OA
ATOM      7  N   UNL     1      15.606   5.979   1.243  0.00  0.00    -0.314 N 
ATOM     24  C   UNL     1      16.522   6.905   0.763  0.00  0.00    +0.214 C 
ATOM     38  H   UNL     1      15.030   6.212   2.046  0.00  0.00    +0.149 HD
BRANCH   7  26
ATOM     26  C   UNL     1      15.399   4.686   0.632  0.00  0.00    +0.119 C 
BRANCH  26  28
ATOM     28  C   UNL     1      14.845   3.685   1.636  0.00  0.00    +0.102 C 
BRANCH  28   9
ATOM      9  N   UNL     1      13.620   3.081   1.126  0.00  0.00    -0.307 NA
ATOM     34  C   UNL     1      13.429   3.418  -0.286  0.00  0.00    +0.104 C 
ATOM     35  C   UNL     1      12.465   3.514   1.912  0.00  0.00    +0.104 C 
ENDBRANCH  28   9
ENDBRANCH  26  28
ENDBRANCH   7  26
ENDBRANCH  23  24
ENDBRANCH  13  23
BRANCH  27  29
ATOM     29  C   UNL     1      10.208   7.368   4.584  0.00  0.00    +0.102 C 
BRANCH  29  30
ATOM     30  C   UNL     1       9.834   6.085   5.364  0.00  0.00    -0.029 C 
ATOM     31  C   UNL     1      10.479   6.077   6.759  0.00  0.00    +0.011 C 
ATOM     32  C   UNL     1       8.302   6.061   5.535  0.00  0.00    +0.011 C 
ATOM     33  C   UNL     1      10.257   4.818   4.602  0.00  0.00    +0.011 C 
ENDBRANCH  29  30
ENDBRANCH  27  29
TORSDOF 10
ENDMDL
MODEL 3
REMARK VINA RESULT:      -5.6     18.553     20.636
REMARK  Name = 11885044
REMARK  17 active torsions:
REMARK  status: ('A' for Active; 'I' for Inactive)
REMARK    1  A    between atoms: O_2  and  C_15
REMARK    2  A    between atoms: O_3  and  C_20
REMARK    3  A    between atoms: N_7  and  C_26
REMARK    4  A    between atoms: N_9  and  C_28
REMARK    5  A    between atoms: N_9  and  C_34
REMARK    6  A    between atoms: N_9  and  C_35
REMARK    7  A    between atoms: C_10  and  C_18
REMARK    8  A    between atoms: C_12  and  C_20
REMARK    9  A    between atoms: C_12  and  C_21
REMARK   10  A    between atoms: C_13  and  C_23
REMARK   11  A    between atoms: C_23  and  C_24
REMARK   12  A    between atoms: C_26  and  C_28
REMARK   13  A    between atoms: C_27  and  C_29
REMARK   14  A    between atoms: C_29  and  C_30
REMARK   15  A    between atoms: C_30  and  C_31
REMARK   16  A    between atoms: C_30  and  C_32
REMARK   17  A    between atoms: C_30  and  C_33
REMARK                            x       y       z     vdW  Elec       q    Type
REMARK                         _______ _______ _______ _____ _____    ______ ____
ROOT
ATOM      1  S   UNL     1     -12.732   5.097  22.344  0.00  0.00    -0.057 S 
ATOM      5  O   UNL     1     -16.767   5.169  24.673  0.00  0.00    -0.275 OA
ATOM      6  N   UNL     1     -14.902   6.444  22.754  0.00  0.00    -0.229 NA
ATOM      8  N   UNL     1     -14.668   4.368  23.955  0.00  0.00    -0.265 N 
ATOM     10  C   UNL     1     -13.406   9.263  20.590  0.00  0.00    -0.019 C 
ATOM     11  C   UNL     1     -12.580   8.242  19.691  0.00  0.00    +0.011 C 
ATOM     12  C   UNL     1     -11.606   8.861  18.616  0.00  0.00    +0.021 C 
ATOM     13  C   UNL     1     -14.611   8.462  21.267  0.00  0.00    +0.054 C 
ATOM     14  C   UNL     1     -14.005  10.376  19.690  0.00  0.00    +0.010 C 
ATOM     15  C   UNL     1     -12.347   9.986  17.840  0.00  0.00    +0.123 C 
ATOM     16  C   UNL     1     -11.932   7.120  20.552  0.00  0.00    +0.049 C 
ATOM     17  C   UNL     1     -12.995  11.021  18.752  0.00  0.00    +0.032 C 
ATOM     18  C   UNL     1     -12.544   9.926  21.693  0.00  0.00    +0.012 C 
ATOM     19  C   UNL     1     -14.132   7.158  21.854  0.00  0.00    +0.058 A 
ATOM     21  C   UNL     1     -11.224   7.761  17.584  0.00  0.00    +0.016 C 
ATOM     22  C   UNL     1     -12.935   6.565  21.506  0.00  0.00    +0.015 A 
ATOM     25  C   UNL     1     -14.261   5.345  23.086  0.00  0.00    +0.165 A 
ATOM     27  C   UNL     1     -15.869   4.332  24.683  0.00  0.00    +0.219 C 
ATOM     39  H   UNL     1     -14.013   3.598  24.070  0.00  0.00    +0.157 HD
ENDROOT
BRANCH  15   2
ATOM      2  O   UNL     1     -11.455  10.654  16.948  0.00  0.00    -0.391 OA
ATOM     36  H   UNL     1     -11.714  10.430  16.039  0.00  0.00    +0.210 HD
ENDBRANCH  15   2
BRANCH  12  20
ATOM     20  C   UNL     1     -10.267   9.377  19.187  0.00  0.00    +0.165 C 
BRANCH  20   3
ATOM      3  O   UNL     1      -9.320   9.370  18.142  0.00  0.00    -0.394 OA
ATOM     37  H   UNL     1      -9.718   9.812  17.372  0.00  0.00    +0.209 HD
ENDBRANCH  20   3
ENDBRANCH  12  20
BRANCH  13  23
ATOM     23  C   UNL     1     -15.423   9.272  22.287  0.00  0.00    +0.106 C 
BRANCH  23  24
ATOM      4  O   UNL     1     -17.650  10.217  22.324  0.00  0.00    -0.276 OA
ATOM      7  N   UNL     1     -17.233   8.314  21.057  0.00  0.00    -0.314 N 
ATOM     24  C   UNL     1     -16.886   9.349  21.913  0.00  0.00    +0.214 C 
ATOM     38  H   UNL     1     -16.534   7.627  20.788  0.00  0.00    +0.149 HD
BRANCH   7  26
ATOM     26  C   UNL     1     -18.570   8.135  20.536  0.00  0.00    +0.119 C 
BRANCH  26  28
ATOM     28  C   UNL     1     -18.835   6.677  20.189  0.00  0.00    +0.102 C 
BRANCH  28   9
ATOM      9  N   UNL     1     -17.605   5.902  20.282  0.00  0.00    -0.307 NA
ATOM     34  C   UNL     1     -17.229   5.373  18.969  0.00  0.00    +0.104 C 
ATOM     35  C   UNL     1     -17.754   4.810  21.245  0.00  0.00    +0.104 C 
ENDBRANCH  28   9
ENDBRANCH  26  28
ENDBRANCH   7  26
ENDBRANCH  23  24
ENDBRANCH  13  23
BRANCH  27  29
ATOM     29  C   UNL     1     -15.987   3.093  25.562  0.00  0.00    +0.102 C 
BRANCH  29  30
ATOM     30  C   UNL     1     -17.190   2.176  25.232  0.00  0.00    -0.029 C 
ATOM     31  C   UNL     1     -17.434   2.107  23.716  0.00  0.00    +0.011 C 
ATOM     32  C   UNL     1     -16.861   0.757  25.738  0.00  0.00    +0.011 C 
ATOM     33  C   UNL     1     -18.473   2.654  25.931  0.00  0.00    +0.011 C 
ENDBRANCH  29  30
ENDBRANCH  27  29
TORSDOF 10
ENDMDL
MODEL 4
REMARK VINA RESULT:      -5.6      4.112      7.556
REMARK  Name = 11885044
REMARK  17 active torsions:
REMARK  status: ('A' for Active; 'I' for Inactive)
REMARK    1  A    between atoms: O_2  and  C_15
REMARK    2  A    between atoms: O_3  and  C_20
REMARK    3  A    between atoms: N_7  and  C_26
REMARK    4  A    between atoms: N_9  and  C_28
REMARK    5  A    between atoms: N_9  and  C_34
REMARK    6  A    between atoms: N_9  and  C_35
REMARK    7  A    between atoms: C_10  and  C_18
REMARK    8  A    between atoms: C_12  and  C_20
REMARK    9  A    between atoms: C_12  and  C_21
REMARK   10  A    between atoms: C_13  and  C_23
REMARK   11  A    between atoms: C_23  and  C_24
REMARK   12  A    between atoms: C_26  and  C_28
REMARK   13  A    between atoms: C_27  and  C_29
REMARK   14  A    between atoms: C_29  and  C_30
REMARK   15  A    between atoms: C_30  and  C_31
REMARK   16  A    between atoms: C_30  and  C_32
REMARK   17  A    between atoms: C_30  and  C_33
REMARK                            x       y       z     vdW  Elec       q    Type
REMARK                         _______ _______ _______ _____ _____    ______ ____
ROOT
ATOM      1  S   UNL     1      -7.714 -11.820  12.567  0.00  0.00    -0.057 S 
ATOM      5  O   UNL     1      -3.865 -12.078   9.953  0.00  0.00    -0.275 OA
ATOM      6  N   UNL     1      -5.129 -11.790  12.619  0.00  0.00    -0.229 NA
ATOM      8  N   UNL     1      -6.169 -12.041  10.459  0.00  0.00    -0.265 N 
ATOM     10  C   UNL     1      -5.344 -10.966  16.380  0.00  0.00    -0.019 C 
ATOM     11  C   UNL     1      -6.706 -11.771  16.558  0.00  0.00    +0.011 C 
ATOM     12  C   UNL     1      -7.402 -11.697  17.972  0.00  0.00    +0.021 C 
ATOM     13  C   UNL     1      -4.611 -11.522  15.074  0.00  0.00    +0.054 C 
ATOM     14  C   UNL     1      -4.427 -11.226  17.604  0.00  0.00    +0.010 C 
ATOM     15  C   UNL     1      -6.337 -11.932  19.080  0.00  0.00    +0.123 C 
ATOM     16  C   UNL     1      -7.677 -11.519  15.368  0.00  0.00    +0.049 C 
ATOM     17  C   UNL     1      -5.118 -11.027  18.945  0.00  0.00    +0.032 C 
ATOM     18  C   UNL     1      -5.563  -9.439  16.238  0.00  0.00    +0.012 C 
ATOM     19  C   UNL     1      -5.573 -11.638  13.920  0.00  0.00    +0.058 A 
ATOM     21  C   UNL     1      -8.447 -12.843  18.084  0.00  0.00    +0.016 C 
ATOM     22  C   UNL     1      -6.945 -11.653  14.076  0.00  0.00    +0.015 A 
ATOM     25  C   UNL     1      -6.169 -11.888  11.821  0.00  0.00    +0.165 A 
ATOM     27  C   UNL     1      -5.046 -12.126   9.619  0.00  0.00    +0.219 C 
ATOM     39  H   UNL     1      -7.091 -12.093  10.036  0.00  0.00    +0.157 HD
ENDROOT
BRANCH  15   2
ATOM      2  O   UNL     1      -6.908 -11.744  20.374  0.00  0.00    -0.391 OA
ATOM     36  H   UNL     1      -6.317 -12.155  21.027  0.00  0.00    +0.210 HD
ENDBRANCH  15   2
BRANCH  12  20
ATOM     20  C   UNL     1      -8.187 -10.392  18.232  0.00  0.00    +0.165 C 
BRANCH  20   3
ATOM      3  O   UNL     1      -9.110 -10.642  19.268  0.00  0.00    -0.394 OA
ATOM     37  H   UNL     1      -9.982 -10.323  18.978  0.00  0.00    +0.209 HD
ENDBRANCH  20   3
ENDBRANCH  12  20
BRANCH  13  23
ATOM     23  C   UNL     1      -3.346 -10.748  14.675  0.00  0.00    +0.106 C 
BRANCH  23  24
ATOM      4  O   UNL     1      -1.122 -11.400  15.366  0.00  0.00    -0.276 OA
ATOM      7  N   UNL     1      -2.274 -12.708  13.829  0.00  0.00    -0.314 N 
ATOM     24  C   UNL     1      -2.117 -11.628  14.686  0.00  0.00    +0.214 C 
ATOM     38  H   UNL     1      -3.128 -12.801  13.288  0.00  0.00    +0.149 HD
BRANCH   7  26
ATOM     26  C   UNL     1      -1.256 -13.715  13.635  0.00  0.00    +0.119 C 
BRANCH  26  28
ATOM     28  C   UNL     1      -1.792 -15.107  13.941  0.00  0.00    +0.102 C 
BRANCH  28   9
ATOM      9  N   UNL     1      -0.733 -16.099  13.805  0.00  0.00    -0.307 NA
ATOM     34  C   UNL     1      -0.829 -16.781  12.513  0.00  0.00    +0.104 C 
ATOM     35  C   UNL     1      -0.793 -17.071  14.897  0.00  0.00    +0.104 C 
ENDBRANCH  28   9
ENDBRANCH  26  28
ENDBRANCH   7  26
ENDBRANCH  23  24
ENDBRANCH  13  23
BRANCH  27  29
ATOM     29  C   UNL     1      -5.420 -12.286   8.151  0.00  0.00    +0.102 C 
BRANCH  29  30
ATOM     30  C   UNL     1      -5.712 -10.960   7.407  0.00  0.00    -0.029 C 
ATOM     31  C   UNL     1      -4.993  -9.779   8.079  0.00  0.00    +0.011 C 
ATOM     32  C   UNL     1      -5.183 -11.096   5.966  0.00  0.00    +0.011 C 
ATOM     33  C   UNL     1      -7.220 -10.667   7.345  0.00  0.00    +0.011 C 
ENDBRANCH  29  30
ENDBRANCH  27  29
TORSDOF 10
ENDMDL
MODEL 5
REMARK VINA RESULT:      -5.6      3.912      6.740
REMARK  Name = 11885044
REMARK  17 active torsions:
REMARK  status: ('A' for Active; 'I' for Inactive)
REMARK    1  A    between atoms: O_2  and  C_15
REMARK    2  A    between atoms: O_3  and  C_20
REMARK    3  A    between atoms: N_7  and  C_26
REMARK    4  A    between atoms: N_9  and  C_28
REMARK    5  A    between atoms: N_9  and  C_34
REMARK    6  A    between atoms: N_9  and  C_35
REMARK    7  A    between atoms: C_10  and  C_18
REMARK    8  A    between atoms: C_12  and  C_20
REMARK    9  A    between atoms: C_12  and  C_21
REMARK   10  A    between atoms: C_13  and  C_23
REMARK   11  A    between atoms: C_23  and  C_24
REMARK   12  A    between atoms: C_26  and  C_28
REMARK   13  A    between atoms: C_27  and  C_29
REMARK   14  A    between atoms: C_29  and  C_30
REMARK   15  A    between atoms: C_30  and  C_31
REMARK   16  A    between atoms: C_30  and  C_32
REMARK   17  A    between atoms: C_30  and  C_33
REMARK                            x       y       z     vdW  Elec       q    Type
REMARK                         _______ _______ _______ _____ _____    ______ ____
ROOT
ATOM      1  S   UNL     1     -10.578 -12.945  19.173  0.00  0.00    -0.057 S 
ATOM      5  O   UNL     1     -13.705  -9.617  18.248  0.00  0.00    -0.275 OA
ATOM      6  N   UNL     1     -10.928 -10.638  18.059  0.00  0.00    -0.229 NA
ATOM      8  N   UNL     1     -12.856 -11.650  19.091  0.00  0.00    -0.265 N 
ATOM     10  C   UNL     1      -7.122 -10.495  17.459  0.00  0.00    -0.019 C 
ATOM     11  C   UNL     1      -7.005 -12.077  17.320  0.00  0.00    +0.011 C 
ATOM     12  C   UNL     1      -5.555 -12.677  17.166  0.00  0.00    +0.021 C 
ATOM     13  C   UNL     1      -8.636 -10.084  17.159  0.00  0.00    +0.054 C 
ATOM     14  C   UNL     1      -6.213  -9.816  16.400  0.00  0.00    +0.010 C 
ATOM     15  C   UNL     1      -4.769 -11.854  16.106  0.00  0.00    +0.123 C 
ATOM     16  C   UNL     1      -7.876 -12.808  18.383  0.00  0.00    +0.049 C 
ATOM     17  C   UNL     1      -4.790 -10.354  16.373  0.00  0.00    +0.032 C 
ATOM     18  C   UNL     1      -6.717  -9.983  18.863  0.00  0.00    +0.012 C 
ATOM     19  C   UNL     1      -9.597 -10.978  17.902  0.00  0.00    +0.058 A 
ATOM     21  C   UNL     1      -5.662 -14.134  16.634  0.00  0.00    +0.016 C 
ATOM     22  C   UNL     1      -9.239 -12.204  18.427  0.00  0.00    +0.015 A 
ATOM     25  C   UNL     1     -11.539 -11.596  18.720  0.00  0.00    +0.165 A 
ATOM     27  C   UNL     1     -13.844 -10.682  18.841  0.00  0.00    +0.219 C 
ATOM     39  H   UNL     1     -13.122 -12.488  19.602  0.00  0.00    +0.157 HD
ENDROOT
BRANCH  15   2
ATOM      2  O   UNL     1      -3.412 -12.290  16.036  0.00  0.00    -0.391 OA
ATOM     36  H   UNL     1      -3.069 -12.067  15.155  0.00  0.00    +0.210 HD
ENDBRANCH  15   2
BRANCH  12  20
ATOM     20  C   UNL     1      -4.759 -12.775  18.487  0.00  0.00    +0.165 C 
BRANCH  20   3
ATOM      3  O   UNL     1      -4.046 -13.992  18.472  0.00  0.00    -0.394 OA
ATOM     37  H   UNL     1      -3.183 -13.840  18.896  0.00  0.00    +0.209 HD
ENDBRANCH  20   3
ENDBRANCH  12  20
BRANCH  13  23
ATOM     23  C   UNL     1      -8.954  -8.601  17.395  0.00  0.00    +0.106 C 
BRANCH  23  24
ATOM      4  O   UNL     1      -9.710  -8.481  15.100  0.00  0.00    -0.276 OA
ATOM      7  N   UNL     1     -10.296  -6.797  16.590  0.00  0.00    -0.314 N 
ATOM     24  C   UNL     1      -9.681  -7.984  16.222  0.00  0.00    +0.214 C 
ATOM     38  H   UNL     1     -10.197  -6.452  17.540  0.00  0.00    +0.149 HD
BRANCH   7  26
ATOM     26  C   UNL     1     -11.063  -5.987  15.670  0.00  0.00    +0.119 C 
BRANCH  26  28
ATOM     28  C   UNL     1     -12.545  -6.325  15.742  0.00  0.00    +0.102 C 
BRANCH  28   9
ATOM      9  N   UNL     1     -13.189  -6.055  14.463  0.00  0.00    -0.307 NA
ATOM     34  C   UNL     1     -13.313  -7.286  13.679  0.00  0.00    +0.104 C 
ATOM     35  C   UNL     1     -12.441  -5.048  13.710  0.00  0.00    +0.104 C 
ENDBRANCH  28   9
ENDBRANCH  26  28
ENDBRANCH   7  26
ENDBRANCH  23  24
ENDBRANCH  13  23
BRANCH  27  29
ATOM     29  C   UNL     1     -15.204 -11.071  19.407  0.00  0.00    +0.102 C 
BRANCH  29  30
ATOM     30  C   UNL     1     -15.795 -10.065  20.425  0.00  0.00    -0.029 C 
ATOM     31  C   UNL     1     -14.717  -9.093  20.931  0.00  0.00    +0.011 C 
ATOM     32  C   UNL     1     -16.889  -9.250  19.709  0.00  0.00    +0.011 C 
ATOM     33  C   UNL     1     -16.433 -10.785  21.625  0.00  0.00    +0.011 C 
ENDBRANCH  29  30
ENDBRANCH  27  29
TORSDOF 10
ENDMDL
MODEL 6
REMARK VINA RESULT:      -5.6      3.498      6.755
REMARK  Name = 11885044
REMARK  17 active torsions:
REMARK  status: ('A' for Active; 'I' for Inactive)
REMARK    1  A    between atoms: O_2  and  C_15
REMARK    2  A    between atoms: O_3  and  C_20
REMARK    3  A    between atoms: N_7  and  C_26
REMARK    4  A    between atoms: N_9  and  C_28
REMARK    5  A    between atoms: N_9  and  C_34
REMARK    6  A    between atoms: N_9  and  C_35
REMARK    7  A    between atoms: C_10  and  C_18
REMARK    8  A    between atoms: C_12  and  C_20
REMARK    9  A    between atoms: C_12  and  C_21
REMARK   10  A    between atoms: C_13  and  C_23
REMARK   11  A    between atoms: C_23  and  C_24
REMARK   12  A    between atoms: C_26  and  C_28
REMARK   13  A    between atoms: C_27  and  C_29
REMARK   14  A    between atoms: C_29  and  C_30
REMARK   15  A    between atoms: C_30  and  C_31
REMARK   16  A    between atoms: C_30  and  C_32
REMARK   17  A    between atoms: C_30  and  C_33
REMARK                            x       y       z     vdW  Elec       q    Type
REMARK                         _______ _______ _______ _____ _____    ______ ____
ROOT
ATOM      1  S   UNL     1      -9.143 -10.173  13.416  0.00  0.00    -0.057 S 
ATOM      5  O   UNL     1      -5.099  -9.000  11.420  0.00  0.00    -0.275 OA
ATOM      6  N   UNL     1      -6.586 -10.017  13.774  0.00  0.00    -0.229 NA
ATOM      8  N   UNL     1      -7.425  -9.331  11.622  0.00  0.00    -0.265 N 
ATOM     10  C   UNL     1      -7.174 -10.988  17.459  0.00  0.00    -0.019 C 
ATOM     11  C   UNL     1      -8.455 -11.866  17.105  0.00  0.00    +0.011 C 
ATOM     12  C   UNL     1      -9.260 -12.477  18.316  0.00  0.00    +0.021 C 
ATOM     13  C   UNL     1      -6.289 -10.853  16.137  0.00  0.00    +0.054 C 
ATOM     14  C   UNL     1      -6.332 -11.717  18.539  0.00  0.00    +0.010 C 
ATOM     15  C   UNL     1      -8.265 -13.123  19.320  0.00  0.00    +0.123 C 
ATOM     16  C   UNL     1      -9.352 -11.163  16.046  0.00  0.00    +0.049 C 
ATOM     17  C   UNL     1      -7.140 -12.184  19.741  0.00  0.00    +0.032 C 
ATOM     18  C   UNL     1      -7.539  -9.576  17.982  0.00  0.00    +0.012 C 
ATOM     19  C   UNL     1      -7.142 -10.493  14.947  0.00  0.00    +0.058 A 
ATOM     21  C   UNL     1     -10.186 -13.610  17.789  0.00  0.00    +0.016 C 
ATOM     22  C   UNL     1      -8.513 -10.658  14.921  0.00  0.00    +0.015 A 
ATOM     25  C   UNL     1      -7.546  -9.807  12.900  0.00  0.00    +0.165 A 
ATOM     27  C   UNL     1      -6.238  -8.963  10.966  0.00  0.00    +0.219 C 
ATOM     39  H   UNL     1      -8.302  -9.241  11.115  0.00  0.00    +0.157 HD
ENDROOT
BRANCH  15   2
ATOM      2  O   UNL     1      -8.950 -13.571  20.489  0.00  0.00    -0.391 OA
ATOM     36  H   UNL     1      -9.802 -13.108  20.536  0.00  0.00    +0.210 HD
ENDBRANCH  15   2
BRANCH  12  20
ATOM     20  C   UNL     1     -10.195 -11.477  19.033  0.00  0.00    +0.165 C 
BRANCH  20   3
ATOM      3  O   UNL     1     -11.270 -12.207  19.581  0.00  0.00    -0.394 OA
ATOM     37  H   UNL     1     -11.610 -12.804  18.892  0.00  0.00    +0.209 HD
ENDBRANCH  20   3
ENDBRANCH  12  20
BRANCH  13  23
ATOM     23  C   UNL     1      -5.085  -9.910  16.268  0.00  0.00    +0.106 C 
BRANCH  23  24
ATOM      4  O   UNL     1      -3.156 -11.289  16.745  0.00  0.00    -0.276 OA
ATOM      7  N   UNL     1      -3.405 -10.357  14.630  0.00  0.00    -0.314 N 
ATOM     24  C   UNL     1      -3.782 -10.604  15.942  0.00  0.00    +0.214 C 
ATOM     38  H   UNL     1      -3.980  -9.757  14.046  0.00  0.00    +0.149 HD
BRANCH   7  26
ATOM     26  C   UNL     1      -2.198 -10.893  14.042  0.00  0.00    +0.119 C 
BRANCH  26  28
ATOM     28  C   UNL     1      -2.281 -10.900  12.523  0.00  0.00    +0.102 C 
BRANCH  28   9
ATOM      9  N   UNL     1      -2.596 -12.238  12.038  0.00  0.00    -0.307 NA
ATOM     34  C   UNL     1      -4.027 -12.360  11.755  0.00  0.00    +0.104 C 
ATOM     35  C   UNL     1      -2.184 -13.250  13.012  0.00  0.00    +0.104 C 
ENDBRANCH  28   9
ENDBRANCH  26  28
ENDBRANCH   7  26
ENDBRANCH  23  24
ENDBRANCH  13  23
BRANCH  27  29
ATOM     29  C   UNL     1      -6.481  -8.467   9.546  0.00  0.00    +0.102 C 
BRANCH  29  30
ATOM     30  C   UNL     1      -6.305  -9.541   8.445  0.00  0.00    -0.029 C 
ATOM     31  C   UNL     1      -7.046  -9.141   7.159  0.00  0.00    +0.011 C 
ATOM     32  C   UNL     1      -4.801  -9.654   8.125  0.00  0.00    +0.011 C 
ATOM     33  C   UNL     1      -6.807 -10.917   8.913  0.00  0.00    +0.011 C 
ENDBRANCH  29  30
ENDBRANCH  27  29
TORSDOF 10
ENDMDL
MODEL 7
REMARK VINA RESULT:      -5.4     24.890     27.471
REMARK  Name = 11885044
REMARK  17 active torsions:
REMARK  status: ('A' for Active; 'I' for Inactive)
REMARK    1  A    between atoms: O_2  and  C_15
REMARK    2  A    between atoms: O_3  and  C_20
REMARK    3  A    between atoms: N_7  and  C_26
REMARK    4  A    between atoms: N_9  and  C_28
REMARK    5  A    between atoms: N_9  and  C_34
REMARK    6  A    between atoms: N_9  and  C_35
REMARK    7  A    between atoms: C_10  and  C_18
REMARK    8  A    between atoms: C_12  and  C_20
REMARK    9  A    between atoms: C_12  and  C_21
REMARK   10  A    between atoms: C_13  and  C_23
REMARK   11  A    between atoms: C_23  and  C_24
REMARK   12  A    between atoms: C_26  and  C_28
REMARK   13  A    between atoms: C_27  and  C_29
REMARK   14  A    between atoms: C_29  and  C_30
REMARK   15  A    between atoms: C_30  and  C_31
REMARK   16  A    between atoms: C_30  and  C_32
REMARK   17  A    between atoms: C_30  and  C_33
REMARK                            x       y       z     vdW  Elec       q    Type
REMARK                         _______ _______ _______ _____ _____    ______ ____
ROOT
ATOM      1  S   UNL     1      11.294   3.635   2.354  0.00  0.00    -0.057 S 
ATOM      5  O   UNL     1       8.960   6.766   4.896  0.00  0.00    -0.275 OA
ATOM      6  N   UNL     1      10.058   5.906   2.280  0.00  0.00    -0.229 NA
ATOM      8  N   UNL     1      10.164   4.796   4.416  0.00  0.00    -0.265 N 
ATOM     10  C   UNL     1      11.203   6.262  -1.385  0.00  0.00    -0.019 C 
ATOM     11  C   UNL     1      11.187   4.688  -1.625  0.00  0.00    +0.011 C 
ATOM     12  C   UNL     1      11.713   4.172  -3.019  0.00  0.00    +0.021 C 
ATOM     13  C   UNL     1      10.248   6.581  -0.144  0.00  0.00    +0.054 C 
ATOM     14  C   UNL     1      10.633   6.981  -2.636  0.00  0.00    +0.010 C 
ATOM     15  C   UNL     1      11.083   5.027  -4.154  0.00  0.00    +0.123 C 
ATOM     16  C   UNL     1      11.779   3.920  -0.408  0.00  0.00    +0.049 C 
ATOM     17  C   UNL     1      11.259   6.526  -3.947  0.00  0.00    +0.032 C 
ATOM     18  C   UNL     1      12.622   6.813  -1.099  0.00  0.00    +0.012 C 
ATOM     19  C   UNL     1      10.520   5.642   1.004  0.00  0.00    +0.058 A 
ATOM     21  C   UNL     1      11.241   2.705  -3.228  0.00  0.00    +0.016 C 
ATOM     22  C   UNL     1      11.192   4.445   0.860  0.00  0.00    +0.015 A 
ATOM     25  C   UNL     1      10.414   4.921   3.075  0.00  0.00    +0.165 A 
ATOM     27  C   UNL     1       9.467   5.701   5.234  0.00  0.00    +0.219 C 
ATOM     39  H   UNL     1      10.534   3.950   4.842  0.00  0.00    +0.157 HD
ENDROOT
BRANCH  15   2
ATOM      2  O   UNL     1      11.638   4.670  -5.420  0.00  0.00    -0.391 OA
ATOM     36  H   UNL     1      10.917   4.657  -6.072  0.00  0.00    +0.210 HD
ENDBRANCH  15   2
BRANCH  12  20
ATOM     20  C   UNL     1      13.253   4.135  -3.148  0.00  0.00    +0.165 C 
BRANCH  20   3
ATOM      3  O   UNL     1      13.584   3.137  -4.089  0.00  0.00    -0.394 OA
ATOM     37  H   UNL     1      14.485   3.313  -4.409  0.00  0.00    +0.209 HD
ENDBRANCH  20   3
ENDBRANCH  12  20
BRANCH  13  23
ATOM     23  C   UNL     1      10.265   8.046   0.314  0.00  0.00    +0.106 C 
BRANCH  23  24
ATOM      4  O   UNL     1       8.296   8.949  -0.763  0.00  0.00    -0.276 OA
ATOM      7  N   UNL     1       8.401   8.872   1.558  0.00  0.00    -0.314 N 
ATOM     24  C   UNL     1       8.888   8.668   0.275  0.00  0.00    +0.214 C 
ATOM     38  H   UNL     1       8.975   8.627   2.359  0.00  0.00    +0.149 HD
BRANCH   7  26
ATOM     26  C   UNL     1       7.106   9.456   1.826  0.00  0.00    +0.119 C 
BRANCH  26  28
ATOM     28  C   UNL     1       6.876   9.623   3.321  0.00  0.00    +0.102 C 
BRANCH  28   9
ATOM      9  N   UNL     1       5.483   9.959   3.586  0.00  0.00    -0.307 NA
ATOM     34  C   UNL     1       4.749  10.138   2.331  0.00  0.00    +0.104 C 
ATOM     35  C   UNL     1       5.390  11.168   4.405  0.00  0.00    +0.104 C 
ENDBRANCH  28   9
ENDBRANCH  26  28
ENDBRANCH   7  26
ENDBRANCH  23  24
ENDBRANCH  13  23
BRANCH  27  29
ATOM     29  C   UNL     1       9.386   5.241   6.684  0.00  0.00    +0.102 C 
BRANCH  29  30
ATOM     30  C   UNL     1       9.952   6.245   7.717  0.00  0.00    -0.029 C 
ATOM     31  C   UNL     1       8.992   7.427   7.924  0.00  0.00    +0.011 C 
ATOM     32  C   UNL     1      10.113   5.507   9.061  0.00  0.00    +0.011 C 
ATOM     33  C   UNL     1      11.329   6.779   7.289  0.00  0.00    +0.011 C 
ENDBRANCH  29  30
ENDBRANCH  27  29
TORSDOF 10
ENDMDL
MODEL 8
REMARK VINA RESULT:      -5.3     28.579     31.712
REMARK  Name = 11885044
REMARK  17 active torsions:
REMARK  status: ('A' for Active; 'I' for Inactive)
REMARK    1  A    between atoms: O_2  and  C_15
REMARK    2  A    between atoms: O_3  and  C_20
REMARK    3  A    between atoms: N_7  and  C_26
REMARK    4  A    between atoms: N_9  and  C_28
REMARK    5  A    between atoms: N_9  and  C_34
REMARK    6  A    between atoms: N_9  and  C_35
REMARK    7  A    between atoms: C_10  and  C_18
REMARK    8  A    between atoms: C_12  and  C_20
REMARK    9  A    between atoms: C_12  and  C_21
REMARK   10  A    between atoms: C_13  and  C_23
REMARK   11  A    between atoms: C_23  and  C_24
REMARK   12  A    between atoms: C_26  and  C_28
REMARK   13  A    between atoms: C_27  and  C_29
REMARK   14  A    between atoms: C_29  and  C_30
REMARK   15  A    between atoms: C_30  and  C_31
REMARK   16  A    between atoms: C_30  and  C_32
REMARK   17  A    between atoms: C_30  and  C_33
REMARK                            x       y       z     vdW  Elec       q    Type
REMARK                         _______ _______ _______ _____ _____    ______ ____
ROOT
ATOM      1  S   UNL     1      15.530  13.422  20.197  0.00  0.00    -0.057 S 
ATOM      5  O   UNL     1      12.624  10.159  21.816  0.00  0.00    -0.275 OA
ATOM      6  N   UNL     1      14.202  11.291  19.577  0.00  0.00    -0.229 NA
ATOM      8  N   UNL     1      13.997  12.077  21.845  0.00  0.00    -0.265 N 
ATOM     10  C   UNL     1      15.314  11.821  15.922  0.00  0.00    -0.019 C 
ATOM     11  C   UNL     1      16.688  12.498  16.356  0.00  0.00    +0.011 C 
ATOM     12  C   UNL     1      17.596  13.075  15.203  0.00  0.00    +0.021 C 
ATOM     13  C   UNL     1      14.790  10.940  17.148  0.00  0.00    +0.054 C 
ATOM     14  C   UNL     1      15.561  10.879  14.714  0.00  0.00    +0.010 C 
ATOM     15  C   UNL     1      17.700  12.028  14.059  0.00  0.00    +0.123 C 
ATOM     16  C   UNL     1      16.489  13.478  17.548  0.00  0.00    +0.049 C 
ATOM     17  C   UNL     1      16.343  11.524  13.580  0.00  0.00    +0.032 C 
ATOM     18  C   UNL     1      14.230  12.856  15.532  0.00  0.00    +0.012 C 
ATOM     19  C   UNL     1      14.875  11.707  18.442  0.00  0.00    +0.058 A 
ATOM     21  C   UNL     1      19.033  13.302  15.754  0.00  0.00    +0.016 C 
ATOM     22  C   UNL     1      15.658  12.833  18.605  0.00  0.00    +0.015 A 
ATOM     25  C   UNL     1      14.467  12.123  20.560  0.00  0.00    +0.165 A 
ATOM     27  C   UNL     1      13.123  11.122  22.391  0.00  0.00    +0.219 C 
ATOM     39  H   UNL     1      14.328  12.827  22.448  0.00  0.00    +0.157 HD
ENDROOT
BRANCH  15   2
ATOM      2  O   UNL     1      18.408  12.569  12.944  0.00  0.00    -0.391 OA
ATOM     36  H   UNL     1      18.580  11.848  12.317  0.00  0.00    +0.210 HD
ENDBRANCH  15   2
BRANCH  12  20
ATOM     20  C   UNL     1      17.141  14.446  14.655  0.00  0.00    +0.165 C 
BRANCH  20   3
ATOM      3  O   UNL     1      18.293  15.164  14.273  0.00  0.00    -0.394 OA
ATOM     37  H   UNL     1      18.107  16.112  14.381  0.00  0.00    +0.209 HD
ENDBRANCH  20   3
ENDBRANCH  12  20
BRANCH  13  23
ATOM     23  C   UNL     1      13.395  10.332  16.947  0.00  0.00    +0.106 C 
BRANCH  23  24
ATOM      4  O   UNL     1      13.706   8.008  16.351  0.00  0.00    -0.276 OA
ATOM      7  N   UNL     1      12.967   8.555  18.486  0.00  0.00    -0.314 N 
ATOM     24  C   UNL     1      13.386   8.841  17.194  0.00  0.00    +0.214 C 
ATOM     38  H   UNL     1      12.700   9.313  19.106  0.00  0.00    +0.149 HD
BRANCH   7  26
ATOM     26  C   UNL     1      12.859   7.209  19.000  0.00  0.00    +0.119 C 
BRANCH  26  28
ATOM     28  C   UNL     1      13.615   7.058  20.312  0.00  0.00    +0.102 C 
BRANCH  28   9
ATOM      9  N   UNL     1      14.961   7.602  20.187  0.00  0.00    -0.307 NA
ATOM     34  C   UNL     1      15.860   6.618  19.580  0.00  0.00    +0.104 C 
ATOM     35  C   UNL     1      15.473   8.019  21.493  0.00  0.00    +0.104 C 
ENDBRANCH  28   9
ENDBRANCH  26  28
ENDBRANCH   7  26
ENDBRANCH  23  24
ENDBRANCH  13  23
BRANCH  27  29
ATOM     29  C   UNL     1      12.805  11.386  23.858  0.00  0.00    +0.102 C 
BRANCH  29  30
ATOM     30  C   UNL     1      11.807  12.543  24.107  0.00  0.00    -0.029 C 
ATOM     31  C   UNL     1      10.908  12.772  22.881  0.00  0.00    +0.011 C 
ATOM     32  C   UNL     1      10.912  12.152  25.301  0.00  0.00    +0.011 C 
ATOM     33  C   UNL     1      12.535  13.852  24.455  0.00  0.00    +0.011 C 
ENDBRANCH  29  30
ENDBRANCH  27  29
TORSDOF 10
ENDMDL
MODEL 9
REMARK VINA RESULT:      -5.3     25.760     27.570
REMARK  Name = 11885044
REMARK  17 active torsions:
REMARK  status: ('A' for Active; 'I' for Inactive)
REMARK    1  A    between atoms: O_2  and  C_15
REMARK    2  A    between atoms: O_3  and  C_20
REMARK    3  A    between atoms: N_7  and  C_26
REMARK    4  A    between atoms: N_9  and  C_28
REMARK    5  A    between atoms: N_9  and  C_34
REMARK    6  A    between atoms: N_9  and  C_35
REMARK    7  A    between atoms: C_10  and  C_18
REMARK    8  A    between atoms: C_12  and  C_20
REMARK    9  A    between atoms: C_12  and  C_21
REMARK   10  A    between atoms: C_13  and  C_23
REMARK   11  A    between atoms: C_23  and  C_24
REMARK   12  A    between atoms: C_26  and  C_28
REMARK   13  A    between atoms: C_27  and  C_29
REMARK   14  A    between atoms: C_29  and  C_30
REMARK   15  A    between atoms: C_30  and  C_31
REMARK   16  A    between atoms: C_30  and  C_32
REMARK   17  A    between atoms: C_30  and  C_33
REMARK                            x       y       z     vdW  Elec       q    Type
REMARK                         _______ _______ _______ _____ _____    ______ ____
ROOT
ATOM      1  S   UNL     1      12.987   7.107   5.449  0.00  0.00    -0.057 S 
ATOM      5  O   UNL     1      10.189   5.160   2.271  0.00  0.00    -0.275 OA
ATOM      6  N   UNL     1      10.671   7.261   4.307  0.00  0.00    -0.229 NA
ATOM      8  N   UNL     1      12.118   5.470   3.594  0.00  0.00    -0.265 N 
ATOM     10  C   UNL     1       9.787  10.089   6.775  0.00  0.00    -0.019 C 
ATOM     11  C   UNL     1      11.298  10.581   6.874  0.00  0.00    +0.011 C 
ATOM     12  C   UNL     1      11.609  11.733   7.906  0.00  0.00    +0.021 C 
ATOM     13  C   UNL     1       9.623   9.274   5.411  0.00  0.00    +0.054 C 
ATOM     14  C   UNL     1       8.846  11.321   6.723  0.00  0.00    +0.010 C 
ATOM     15  C   UNL     1      10.549  12.859   7.752  0.00  0.00    +0.123 C 
ATOM     16  C   UNL     1      12.284   9.380   6.960  0.00  0.00    +0.049 C 
ATOM     17  C   UNL     1       9.114  12.348   7.814  0.00  0.00    +0.032 C 
ATOM     18  C   UNL     1       9.367   9.192   7.965  0.00  0.00    +0.012 C 
ATOM     19  C   UNL     1      10.749   8.288   5.230  0.00  0.00    +0.058 A 
ATOM     21  C   UNL     1      12.995  12.353   7.571  0.00  0.00    +0.016 C 
ATOM     22  C   UNL     1      11.941   8.365   5.922  0.00  0.00    +0.015 A 
ATOM     25  C   UNL     1      11.790   6.570   4.341  0.00  0.00    +0.165 A 
ATOM     27  C   UNL     1      11.321   4.840   2.623  0.00  0.00    +0.219 C 
ATOM     39  H   UNL     1      13.040   5.086   3.782  0.00  0.00    +0.157 HD
ENDROOT
BRANCH  15   2
ATOM      2  O   UNL     1      10.725  13.857   8.757  0.00  0.00    -0.391 OA
ATOM     36  H   UNL     1       9.868  14.291   8.904  0.00  0.00    +0.210 HD
ENDBRANCH  15   2
BRANCH  12  20
ATOM     20  C   UNL     1      11.707  11.267   9.376  0.00  0.00    +0.165 C 
BRANCH  20   3
ATOM      3  O   UNL     1      12.859  11.855   9.940  0.00  0.00    -0.394 OA
ATOM     37  H   UNL     1      13.337  11.166  10.432  0.00  0.00    +0.209 HD
ENDBRANCH  20   3
ENDBRANCH  12  20
BRANCH  13  23
ATOM     23  C   UNL     1       8.255   8.602   5.229  0.00  0.00    +0.106 C 
BRANCH  23  24
ATOM      4  O   UNL     1       7.989   8.875   2.840  0.00  0.00    -0.276 OA
ATOM      7  N   UNL     1       6.381   9.738   4.280  0.00  0.00    -0.314 N 
ATOM     24  C   UNL     1       7.557   9.069   3.973  0.00  0.00    +0.214 C 
ATOM     38  H   UNL     1       6.116   9.869   5.251  0.00  0.00    +0.149 HD
BRANCH   7  26
ATOM     26  C   UNL     1       5.506  10.298   3.274  0.00  0.00    +0.119 C 
BRANCH  26  28
ATOM     28  C   UNL     1       5.321  11.795   3.477  0.00  0.00    +0.102 C 
BRANCH  28   9
ATOM      9  N   UNL     1       5.337  12.120   4.897  0.00  0.00    -0.307 NA
ATOM     34  C   UNL     1       3.973  12.297   5.400  0.00  0.00    +0.104 C 
ATOM     35  C   UNL     1       6.129  13.325   5.143  0.00  0.00    +0.104 C 
ENDBRANCH  28   9
ENDBRANCH  26  28
ENDBRANCH   7  26
ENDBRANCH  23  24
ENDBRANCH  13  23
BRANCH  27  29
ATOM     29  C   UNL     1      12.006   3.633   1.994  0.00  0.00    +0.102 C 
BRANCH  29  30
ATOM     30  C   UNL     1      13.123   3.977   0.979  0.00  0.00    -0.029 C 
ATOM     31  C   UNL     1      14.504   3.573   1.518  0.00  0.00    +0.011 C 
ATOM     32  C   UNL     1      12.853   3.182  -0.314  0.00  0.00    +0.011 C 
ATOM     33  C   UNL     1      13.131   5.476   0.634  0.00  0.00    +0.011 C 
ENDBRANCH  29  30
ENDBRANCH  27  29
TORSDOF 10
ENDMDL
MODEL 10
REMARK VINA RESULT:      -5.2     17.964     20.164
REMARK  Name = 11885044
REMARK  17 active torsions:
REMARK  status: ('A' for Active; 'I' for Inactive)
REMARK    1  A    between atoms: O_2  and  C_15
REMARK    2  A    between atoms: O_3  and  C_20
REMARK    3  A    between atoms: N_7  and  C_26
REMARK    4  A    between atoms: N_9  and  C_28
REMARK    5  A    between atoms: N_9  and  C_34
REMARK    6  A    between atoms: N_9  and  C_35
REMARK    7  A    between atoms: C_10  and  C_18
REMARK    8  A    between atoms: C_12  and  C_20
REMARK    9  A    between atoms: C_12  and  C_21
REMARK   10  A    between atoms: C_13  and  C_23
REMARK   11  A    between atoms: C_23  and  C_24
REMARK   12  A    between atoms: C_26  and  C_28
REMARK   13  A    between atoms: C_27  and  C_29
REMARK   14  A    between atoms: C_29  and  C_30
REMARK   15  A    between atoms: C_30  and  C_31
REMARK   16  A    between atoms: C_30  and  C_32
REMARK   17  A    between atoms: C_30  and  C_33
REMARK                            x       y       z     vdW  Elec       q    Type
REMARK                         _______ _______ _______ _____ _____    ______ ____
ROOT
ATOM      1  S   UNL     1     -12.977   5.054  22.548  0.00  0.00    -0.057 S 
ATOM      5  O   UNL     1     -17.400   3.919  23.478  0.00  0.00    -0.275 OA
ATOM      6  N   UNL     1     -15.446   5.544  21.952  0.00  0.00    -0.229 NA
ATOM      8  N   UNL     1     -15.047   3.867  23.636  0.00  0.00    -0.265 N 
ATOM     10  C   UNL     1     -14.197   8.425  19.713  0.00  0.00    -0.019 C 
ATOM     11  C   UNL     1     -12.832   7.677  19.378  0.00  0.00    +0.011 C 
ATOM     12  C   UNL     1     -11.771   8.474  18.525  0.00  0.00    +0.021 C 
ATOM     13  C   UNL     1     -15.261   7.325  20.174  0.00  0.00    +0.054 C 
ATOM     14  C   UNL     1     -14.734   9.117  18.433  0.00  0.00    +0.010 C 
ATOM     15  C   UNL     1     -12.482   9.140  17.314  0.00  0.00    +0.123 C 
ATOM     16  C   UNL     1     -12.234   6.990  20.640  0.00  0.00    +0.049 C 
ATOM     17  C   UNL     1     -13.699   9.968  17.711  0.00  0.00    +0.032 C 
ATOM     18  C   UNL     1     -14.042   9.490  20.827  0.00  0.00    +0.012 C 
ATOM     19  C   UNL     1     -14.657   6.375  21.177  0.00  0.00    +0.058 A 
ATOM     21  C   UNL     1     -10.725   7.474  17.955  0.00  0.00    +0.016 C 
ATOM     22  C   UNL     1     -13.297   6.227  21.356  0.00  0.00    +0.015 A 
ATOM     25  C   UNL     1     -14.668   4.810  22.717  0.00  0.00    +0.165 A 
ATOM     27  C   UNL     1     -16.359   3.481  23.959  0.00  0.00    +0.219 C 
ATOM     39  H   UNL     1     -14.278   3.415  24.125  0.00  0.00    +0.157 HD
ENDROOT
BRANCH  15   2
ATOM      2  O   UNL     1     -11.575   9.974  16.594  0.00  0.00    -0.391 OA
ATOM     36  H   UNL     1     -11.215   9.459  15.854  0.00  0.00    +0.210 HD
ENDBRANCH  15   2
BRANCH  12  20
ATOM     20  C   UNL     1     -10.957   9.515  19.326  0.00  0.00    +0.165 C 
BRANCH  20   3
ATOM      3  O   UNL     1      -9.684   9.620  18.728  0.00  0.00    -0.394 OA
ATOM     37  H   UNL     1      -9.276   8.737  18.732  0.00  0.00    +0.209 HD
ENDBRANCH  20   3
ENDBRANCH  12  20
BRANCH  13  23
ATOM     23  C   UNL     1     -16.594   7.898  20.676  0.00  0.00    +0.106 C 
BRANCH  23  24
ATOM      4  O   UNL     1     -18.637   6.611  20.820  0.00  0.00    -0.276 OA
ATOM      7  N   UNL     1     -17.756   7.135  18.734  0.00  0.00    -0.314 N 
ATOM     24  C   UNL     1     -17.780   7.143  20.121  0.00  0.00    +0.214 C 
ATOM     38  H   UNL     1     -16.990   7.585  18.241  0.00  0.00    +0.149 HD
BRANCH   7  26
ATOM     26  C   UNL     1     -18.767   6.484  17.931  0.00  0.00    +0.119 C 
BRANCH  26  28
ATOM     28  C   UNL     1     -18.216   5.232  17.262  0.00  0.00    +0.102 C 
BRANCH  28   9
ATOM      9  N   UNL     1     -18.330   5.340  15.814  0.00  0.00    -0.307 NA
ATOM     34  C   UNL     1     -19.441   4.522  15.322  0.00  0.00    +0.104 C 
ATOM     35  C   UNL     1     -17.080   4.940  15.166  0.00  0.00    +0.104 C 
ENDBRANCH  28   9
ENDBRANCH  26  28
ENDBRANCH   7  26
ENDBRANCH  23  24
ENDBRANCH  13  23
BRANCH  27  29
ATOM     29  C   UNL     1     -16.406   2.405  25.037  0.00  0.00    +0.102 C 
BRANCH  29  30
ATOM     30  C   UNL     1     -17.020   2.861  26.383  0.00  0.00    -0.029 C 
ATOM     31  C   UNL     1     -16.773   4.359  26.624  0.00  0.00    +0.011 C 
ATOM     32  C   UNL     1     -18.541   2.622  26.319  0.00  0.00    +0.011 C 
ATOM     33  C   UNL     1     -16.451   2.057  27.563  0.00  0.00    +0.011 C 
ENDBRANCH  29  30
ENDBRANCH  27  29
TORSDOF 10
ENDMDL
