MODEL 1
REMARK VINA RESULT:      -6.7      0.000      0.000
REMARK  Name = 7164894
REMARK  12 active torsions:
REMARK  status: ('A' for Active; 'I' for Inactive)
REMARK    1  A    between atoms: S_1  and  N_9
REMARK    2  A    between atoms: S_1  and  C_19
REMARK    3  A    between atoms: O_6  and  C_24
REMARK    4  A    between atoms: O_6  and  C_39
REMARK    5  A    between atoms: O_8  and  C_36
REMARK    6  A    between atoms: O_8  and  C_41
REMARK    7  A    between atoms: N_11  and  C_20
REMARK    8  A    between atoms: N_12  and  C_28
REMARK    9  A    between atoms: C_13  and  C_17
REMARK   10  A    between atoms: C_20  and  C_21
REMARK   11  A    between atoms: C_20  and  C_24
REMARK   12  A    between atoms: C_21  and  C_25
REMARK                            x       y       z     vdW  Elec       q    Type
REMARK                         _______ _______ _______ _____ _____    ______ ____
ROOT
ATOM      5  O   UNL     1      -9.648 -10.589  15.602  0.00  0.00    -0.252 OA
ATOM      9  N   UNL     1      -6.590 -11.618  11.802  0.00  0.00    -0.162 NA
ATOM     10  N   UNL     1      -8.770 -10.772  13.468  0.00  0.00    -0.282 N 
ATOM     12  N   UNL     1     -10.196  -8.976  14.014  0.00  0.00    -0.269 N 
ATOM     13  C   UNL     1      -6.670 -12.094  13.210  0.00  0.00    +0.183 C 
ATOM     14  C   UNL     1      -8.083 -12.026  13.788  0.00  0.00    +0.139 C 
ATOM     15  C   UNL     1      -7.897 -11.273  11.189  0.00  0.00    +0.129 C 
ATOM     16  C   UNL     1      -8.624 -10.284  12.091  0.00  0.00    +0.126 C 
ATOM     18  C   UNL     1      -9.559 -10.138  14.458  0.00  0.00    +0.307 C 
ATOM     43  H   UNL     1     -10.040  -8.674  13.059  0.00  0.00    +0.156 HD
ENDROOT
BRANCH  12  28
ATOM     28  C   UNL     1     -11.050  -8.118  14.752  0.00  0.00    +0.035 A 
ATOM     32  C   UNL     1     -12.431  -8.299  14.705  0.00  0.00    +0.023 A 
ATOM     33  C   UNL     1     -10.506  -7.091  15.526  0.00  0.00    +0.023 A 
ATOM     37  C   UNL     1     -13.271  -7.455  15.433  0.00  0.00    +0.002 A 
ATOM     38  C   UNL     1     -11.345  -6.247  16.253  0.00  0.00    +0.002 A 
ATOM     40  C   UNL     1     -12.728  -6.428  16.206  0.00  0.00    +0.000 A 
ENDBRANCH  12  28
BRANCH  13  17
ATOM      4  O   UNL     1      -5.693  -9.988  13.751  0.00  0.00    -0.274 OA
ATOM     11  N   UNL     1      -4.949 -11.896  14.859  0.00  0.00    -0.301 N 
ATOM     17  C   UNL     1      -5.736 -11.198  13.959  0.00  0.00    +0.234 C 
ATOM     42  H   UNL     1      -5.084 -12.896  14.965  0.00  0.00    +0.150 HD
BRANCH  11  20
ATOM     20  C   UNL     1      -3.949 -11.264  15.691  0.00  0.00    +0.186 C 
BRANCH  20  24
ATOM      7  O   UNL     1      -2.056 -12.403  14.712  0.00  0.00    -0.249 OA
ATOM     24  C   UNL     1      -2.555 -11.346  15.082  0.00  0.00    +0.328 C 
BRANCH  24   6
ATOM      6  O   UNL     1      -1.949 -10.127  15.022  0.00  0.00    -0.467 OA
ATOM     39  C   UNL     1      -0.761  -9.986  15.807  0.00  0.00    +0.280 C 
ENDBRANCH  24   6
ENDBRANCH  20  24
BRANCH  20  21
ATOM     21  C   UNL     1      -3.985 -11.814  17.123  0.00  0.00    +0.069 C 
BRANCH  21  25
ATOM     25  C   UNL     1      -5.280 -11.563  17.865  0.00  0.00    -0.045 A 
ATOM     30  C   UNL     1      -5.817 -12.553  18.686  0.00  0.00    +0.007 A 
ATOM     31  C   UNL     1      -5.935 -10.340  17.725  0.00  0.00    +0.007 A 
ATOM     34  C   UNL     1      -7.011 -12.320  19.369  0.00  0.00    +0.046 A 
ATOM     35  C   UNL     1      -7.130 -10.107  18.408  0.00  0.00    +0.046 A 
ATOM     36  C   UNL     1      -7.667 -11.097  19.230  0.00  0.00    +0.120 A 
BRANCH  36   8
ATOM      8  O   UNL     1      -8.831 -10.870  19.897  0.00  0.00    -0.495 OA
ATOM     41  C   UNL     1      -9.966 -10.502  19.115  0.00  0.00    +0.277 C 
ENDBRANCH  36   8
ENDBRANCH  21  25
ENDBRANCH  20  21
ENDBRANCH  11  20
ENDBRANCH  13  17
BRANCH   9   1
ATOM      1  S   UNL     1      -5.466 -12.410  10.785  0.00  0.00    +0.062 S 
ATOM      2  O   UNL     1      -6.024 -12.516   9.453  0.00  0.00    -0.153 OA
ATOM      3  O   UNL     1      -4.948 -13.575  11.471  0.00  0.00    -0.153 OA
BRANCH   1  19
ATOM     19  C   UNL     1      -4.184 -11.196  10.737  0.00  0.00    +0.106 A 
ATOM     22  C   UNL     1      -4.328 -10.060   9.939  0.00  0.00    +0.028 A 
ATOM     23  C   UNL     1      -3.028 -11.370  11.498  0.00  0.00    +0.028 A 
ATOM     26  C   UNL     1      -3.317  -9.100   9.902  0.00  0.00    +0.002 A 
ATOM     27  C   UNL     1      -2.017 -10.411  11.461  0.00  0.00    +0.002 A 
ATOM     29  C   UNL     1      -2.161  -9.276  10.663  0.00  0.00    +0.000 A 
ENDBRANCH   1  19
ENDBRANCH   9   1
TORSDOF 10
ENDMDL
MODEL 2
REMARK VINA RESULT:      -6.6     24.609     29.476
REMARK  Name = 7164894
REMARK  12 active torsions:
REMARK  status: ('A' for Active; 'I' for Inactive)
REMARK    1  A    between atoms: S_1  and  N_9
REMARK    2  A    between atoms: S_1  and  C_19
REMARK    3  A    between atoms: O_6  and  C_24
REMARK    4  A    between atoms: O_6  and  C_39
REMARK    5  A    between atoms: O_8  and  C_36
REMARK    6  A    between atoms: O_8  and  C_41
REMARK    7  A    between atoms: N_11  and  C_20
REMARK    8  A    between atoms: N_12  and  C_28
REMARK    9  A    between atoms: C_13  and  C_17
REMARK   10  A    between atoms: C_20  and  C_21
REMARK   11  A    between atoms: C_20  and  C_24
REMARK   12  A    between atoms: C_21  and  C_25
REMARK                            x       y       z     vdW  Elec       q    Type
REMARK                         _______ _______ _______ _____ _____    ______ ____
ROOT
ATOM      5  O   UNL     1      15.828   7.755   5.859  0.00  0.00    -0.252 OA
ATOM      9  N   UNL     1      10.845   7.846   5.751  0.00  0.00    -0.162 NA
ATOM     10  N   UNL     1      13.631   8.424   6.142  0.00  0.00    -0.282 N 
ATOM     12  N   UNL     1      15.329  10.030   5.833  0.00  0.00    -0.269 N 
ATOM     13  C   UNL     1      11.855   6.764   5.583  0.00  0.00    +0.183 C 
ATOM     14  C   UNL     1      13.165   7.045   6.315  0.00  0.00    +0.139 C 
ATOM     15  C   UNL     1      11.251   8.933   6.677  0.00  0.00    +0.129 C 
ATOM     16  C   UNL     1      12.608   9.473   6.246  0.00  0.00    +0.126 C 
ATOM     18  C   UNL     1      15.009   8.673   5.939  0.00  0.00    +0.307 C 
ATOM     43  H   UNL     1      14.578  10.709   5.888  0.00  0.00    +0.156 HD
ENDROOT
BRANCH  12  28
ATOM     28  C   UNL     1      16.608  10.607   5.629  0.00  0.00    +0.035 A 
ATOM     32  C   UNL     1      17.177  10.610   4.357  0.00  0.00    +0.023 A 
ATOM     33  C   UNL     1      17.296  11.171   6.703  0.00  0.00    +0.023 A 
ATOM     37  C   UNL     1      18.436  11.178   4.156  0.00  0.00    +0.002 A 
ATOM     38  C   UNL     1      18.555  11.739   6.504  0.00  0.00    +0.002 A 
ATOM     40  C   UNL     1      19.124  11.742   5.230  0.00  0.00    +0.000 A 
ENDBRANCH  12  28
BRANCH  13  17
ATOM      4  O   UNL     1      12.513   7.627   3.461  0.00  0.00    -0.274 OA
ATOM     11  N   UNL     1      11.688   5.454   3.589  0.00  0.00    -0.301 N 
ATOM     17  C   UNL     1      12.067   6.681   4.105  0.00  0.00    +0.234 C 
ATOM     42  H   UNL     1      11.350   4.733   4.219  0.00  0.00    +0.150 HD
BRANCH  11  20
ATOM     20  C   UNL     1      11.773   5.128   2.183  0.00  0.00    +0.186 C 
BRANCH  20  24
ATOM      7  O   UNL     1       9.953   3.971   1.091  0.00  0.00    -0.249 OA
ATOM     24  C   UNL     1      10.400   5.026   1.529  0.00  0.00    +0.328 C 
BRANCH  24   6
ATOM      6  O   UNL     1       9.765   6.230   1.480  0.00  0.00    -0.467 OA
ATOM     39  C   UNL     1      10.177   7.108   0.429  0.00  0.00    +0.280 C 
ENDBRANCH  24   6
ENDBRANCH  20  24
BRANCH  20  21
ATOM     21  C   UNL     1      12.615   3.865   1.953  0.00  0.00    +0.069 C 
BRANCH  21  25
ATOM     25  C   UNL     1      13.655   3.990   0.862  0.00  0.00    -0.045 A 
ATOM     30  C   UNL     1      13.260   4.083  -0.472  0.00  0.00    +0.007 A 
ATOM     31  C   UNL     1      15.010   4.010   1.191  0.00  0.00    +0.007 A 
ATOM     34  C   UNL     1      14.220   4.198  -1.477  0.00  0.00    +0.046 A 
ATOM     35  C   UNL     1      15.971   4.125   0.185  0.00  0.00    +0.046 A 
ATOM     36  C   UNL     1      15.575   4.219  -1.149  0.00  0.00    +0.120 A 
BRANCH  36   8
ATOM      8  O   UNL     1      16.512   4.332  -2.130  0.00  0.00    -0.495 OA
ATOM     41  C   UNL     1      17.742   4.965  -1.783  0.00  0.00    +0.277 C 
ENDBRANCH  36   8
ENDBRANCH  21  25
ENDBRANCH  20  21
ENDBRANCH  11  20
ENDBRANCH  13  17
BRANCH   9   1
ATOM      1  S   UNL     1       9.206   7.364   5.827  0.00  0.00    +0.062 S 
ATOM      2  O   UNL     1       8.863   6.657   4.611  0.00  0.00    -0.153 OA
ATOM      3  O   UNL     1       8.407   8.478   6.291  0.00  0.00    -0.153 OA
BRANCH   1  19
ATOM     19  C   UNL     1       9.293   6.178   7.133  0.00  0.00    +0.106 A 
ATOM     22  C   UNL     1       9.674   4.864   6.859  0.00  0.00    +0.028 A 
ATOM     23  C   UNL     1       8.982   6.556   8.440  0.00  0.00    +0.028 A 
ATOM     26  C   UNL     1       9.743   3.928   7.891  0.00  0.00    +0.002 A 
ATOM     27  C   UNL     1       9.053   5.620   9.472  0.00  0.00    +0.002 A 
ATOM     29  C   UNL     1       9.433   4.307   9.197  0.00  0.00    +0.000 A 
ENDBRANCH   1  19
ENDBRANCH   9   1
TORSDOF 10
ENDMDL
MODEL 3
REMARK VINA RESULT:      -6.5      2.949      6.967
REMARK  Name = 7164894
REMARK  12 active torsions:
REMARK  status: ('A' for Active; 'I' for Inactive)
REMARK    1  A    between atoms: S_1  and  N_9
REMARK    2  A    between atoms: S_1  and  C_19
REMARK    3  A    between atoms: O_6  and  C_24
REMARK    4  A    between atoms: O_6  and  C_39
REMARK    5  A    between atoms: O_8  and  C_36
REMARK    6  A    between atoms: O_8  and  C_41
REMARK    7  A    between atoms: N_11  and  C_20
REMARK    8  A    between atoms: N_12  and  C_28
REMARK    9  A    between atoms: C_13  and  C_17
REMARK   10  A    between atoms: C_20  and  C_21
REMARK   11  A    between atoms: C_20  and  C_24
REMARK   12  A    between atoms: C_21  and  C_25
REMARK                            x       y       z     vdW  Elec       q    Type
REMARK                         _______ _______ _______ _____ _____    ______ ____
ROOT
ATOM      5  O   UNL     1      -6.533  -8.508  11.318  0.00  0.00    -0.252 OA
ATOM      9  N   UNL     1      -7.486 -12.317  14.390  0.00  0.00    -0.162 NA
ATOM     10  N   UNL     1      -7.631 -10.195  12.461  0.00  0.00    -0.282 N 
ATOM     12  N   UNL     1      -8.292  -9.620  10.272  0.00  0.00    -0.269 N 
ATOM     13  C   UNL     1      -6.385 -11.318  14.307  0.00  0.00    +0.183 C 
ATOM     14  C   UNL     1      -6.814 -10.002  13.663  0.00  0.00    +0.139 C 
ATOM     15  C   UNL     1      -8.810 -11.819  13.938  0.00  0.00    +0.129 C 
ATOM     16  C   UNL     1      -8.669 -11.231  12.541  0.00  0.00    +0.126 C 
ATOM     18  C   UNL     1      -7.420  -9.364  11.334  0.00  0.00    +0.307 C 
ATOM     43  H   UNL     1      -8.973 -10.364  10.375  0.00  0.00    +0.156 HD
ENDROOT
BRANCH  12  28
ATOM     28  C   UNL     1      -8.341  -8.969   9.014  0.00  0.00    +0.035 A 
ATOM     32  C   UNL     1      -8.773  -9.664   7.885  0.00  0.00    +0.023 A 
ATOM     33  C   UNL     1      -7.957  -7.632   8.905  0.00  0.00    +0.023 A 
ATOM     37  C   UNL     1      -8.823  -9.023   6.647  0.00  0.00    +0.002 A 
ATOM     38  C   UNL     1      -8.006  -6.991   7.668  0.00  0.00    +0.002 A 
ATOM     40  C   UNL     1      -8.439  -7.687   6.538  0.00  0.00    +0.000 A 
ENDBRANCH  12  28
BRANCH  13  17
ATOM      4  O   UNL     1      -5.567 -13.002  12.830  0.00  0.00    -0.274 OA
ATOM     11  N   UNL     1      -4.096 -11.378  13.616  0.00  0.00    -0.301 N 
ATOM     17  C   UNL     1      -5.328 -11.998  13.496  0.00  0.00    +0.234 C 
ATOM     42  H   UNL     1      -4.015 -10.538  14.180  0.00  0.00    +0.150 HD
BRANCH  11  20
ATOM     20  C   UNL     1      -2.904 -11.853  12.949  0.00  0.00    +0.186 C 
BRANCH  20  24
ATOM      7  O   UNL     1      -1.015 -13.212  13.603  0.00  0.00    -0.249 OA
ATOM     24  C   UNL     1      -1.870 -12.396  13.929  0.00  0.00    +0.328 C 
BRANCH  24   6
ATOM      6  O   UNL     1      -2.031 -11.882  15.180  0.00  0.00    -0.467 OA
ATOM     39  C   UNL     1      -1.108 -10.853  15.552  0.00  0.00    +0.280 C 
ENDBRANCH  24   6
ENDBRANCH  20  24
BRANCH  20  21
ATOM     21  C   UNL     1      -2.314 -10.778  12.026  0.00  0.00    +0.069 C 
BRANCH  21  25
ATOM     25  C   UNL     1      -3.129 -10.495  10.784  0.00  0.00    -0.045 A 
ATOM     30  C   UNL     1      -3.238  -9.191  10.302  0.00  0.00    +0.007 A 
ATOM     31  C   UNL     1      -3.772 -11.540  10.121  0.00  0.00    +0.007 A 
ATOM     34  C   UNL     1      -3.989  -8.931   9.157  0.00  0.00    +0.046 A 
ATOM     35  C   UNL     1      -4.524 -11.280   8.974  0.00  0.00    +0.046 A 
ATOM     36  C   UNL     1      -4.632  -9.976   8.493  0.00  0.00    +0.120 A 
BRANCH  36   8
ATOM      8  O   UNL     1      -5.365  -9.722   7.374  0.00  0.00    -0.495 OA
ATOM     41  C   UNL     1      -5.482 -10.778   6.421  0.00  0.00    +0.277 C 
ENDBRANCH  36   8
ENDBRANCH  21  25
ENDBRANCH  20  21
ENDBRANCH  11  20
ENDBRANCH  13  17
BRANCH   9   1
ATOM      1  S   UNL     1      -7.493 -13.343  15.759  0.00  0.00    +0.062 S 
ATOM      2  O   UNL     1      -6.675 -14.505  15.486  0.00  0.00    -0.153 OA
ATOM      3  O   UNL     1      -8.853 -13.485  16.235  0.00  0.00    -0.153 OA
BRANCH   1  19
ATOM     19  C   UNL     1      -6.620 -12.327  16.910  0.00  0.00    +0.106 A 
ATOM     22  C   UNL     1      -7.269 -11.261  17.533  0.00  0.00    +0.028 A 
ATOM     23  C   UNL     1      -5.281 -12.592  17.198  0.00  0.00    +0.028 A 
ATOM     26  C   UNL     1      -6.580 -10.459  18.442  0.00  0.00    +0.002 A 
ATOM     27  C   UNL     1      -4.592 -11.791  18.109  0.00  0.00    +0.002 A 
ATOM     29  C   UNL     1      -5.241 -10.725  18.730  0.00  0.00    +0.000 A 
ENDBRANCH   1  19
ENDBRANCH   9   1
TORSDOF 10
ENDMDL
MODEL 4
REMARK VINA RESULT:      -6.4      3.842      7.987
REMARK  Name = 7164894
REMARK  12 active torsions:
REMARK  status: ('A' for Active; 'I' for Inactive)
REMARK    1  A    between atoms: S_1  and  N_9
REMARK    2  A    between atoms: S_1  and  C_19
REMARK    3  A    between atoms: O_6  and  C_24
REMARK    4  A    between atoms: O_6  and  C_39
REMARK    5  A    between atoms: O_8  and  C_36
REMARK    6  A    between atoms: O_8  and  C_41
REMARK    7  A    between atoms: N_11  and  C_20
REMARK    8  A    between atoms: N_12  and  C_28
REMARK    9  A    between atoms: C_13  and  C_17
REMARK   10  A    between atoms: C_20  and  C_21
REMARK   11  A    between atoms: C_20  and  C_24
REMARK   12  A    between atoms: C_21  and  C_25
REMARK                            x       y       z     vdW  Elec       q    Type
REMARK                         _______ _______ _______ _____ _____    ______ ____
ROOT
ATOM      5  O   UNL     1      -7.097 -11.855  13.133  0.00  0.00    -0.252 OA
ATOM      9  N   UNL     1     -10.330  -9.161  10.462  0.00  0.00    -0.162 NA
ATOM     10  N   UNL     1      -8.852 -10.463  12.551  0.00  0.00    -0.282 N 
ATOM     12  N   UNL     1      -7.718 -10.151  14.594  0.00  0.00    -0.269 N 
ATOM     13  C   UNL     1      -9.390 -10.266  10.123  0.00  0.00    +0.183 C 
ATOM     14  C   UNL     1      -9.100 -11.191  11.303  0.00  0.00    +0.139 C 
ATOM     15  C   UNL     1     -10.892  -9.225  11.835  0.00  0.00    +0.129 C 
ATOM     16  C   UNL     1      -9.748  -9.336  12.835  0.00  0.00    +0.126 C 
ATOM     18  C   UNL     1      -7.823 -10.901  13.419  0.00  0.00    +0.307 C 
ATOM     43  H   UNL     1      -8.348  -9.368  14.726  0.00  0.00    +0.156 HD
ENDROOT
BRANCH  12  28
ATOM     28  C   UNL     1      -6.800 -10.330  15.659  0.00  0.00    +0.035 A 
ATOM     32  C   UNL     1      -7.230 -10.885  16.864  0.00  0.00    +0.023 A 
ATOM     33  C   UNL     1      -5.467  -9.951  15.502  0.00  0.00    +0.023 A 
ATOM     37  C   UNL     1      -6.326 -11.063  17.913  0.00  0.00    +0.002 A 
ATOM     38  C   UNL     1      -4.563 -10.128  16.550  0.00  0.00    +0.002 A 
ATOM     40  C   UNL     1      -4.993 -10.683  17.755  0.00  0.00    +0.000 A 
ENDBRANCH  12  28
BRANCH  13  17
ATOM      4  O   UNL     1      -7.527  -8.804  10.395  0.00  0.00    -0.274 OA
ATOM     11  N   UNL     1      -7.831  -9.877   8.352  0.00  0.00    -0.301 N 
ATOM     17  C   UNL     1      -8.149  -9.569   9.663  0.00  0.00    +0.234 C 
ATOM     42  H   UNL     1      -8.406 -10.541   7.843  0.00  0.00    +0.150 HD
BRANCH  11  20
ATOM     20  C   UNL     1      -6.690  -9.316   7.664  0.00  0.00    +0.186 C 
BRANCH  20  24
ATOM      7  O   UNL     1      -6.650  -9.231   5.249  0.00  0.00    -0.249 OA
ATOM     24  C   UNL     1      -7.059  -8.748   6.299  0.00  0.00    +0.328 C 
BRANCH  24   6
ATOM      6  O   UNL     1      -7.864  -7.653   6.400  0.00  0.00    -0.467 OA
ATOM     39  C   UNL     1      -8.827  -7.492   5.354  0.00  0.00    +0.280 C 
ENDBRANCH  24   6
ENDBRANCH  20  24
BRANCH  20  21
ATOM     21  C   UNL     1      -5.539 -10.329   7.573  0.00  0.00    +0.069 C 
BRANCH  21  25
ATOM     25  C   UNL     1      -4.616 -10.346   8.771  0.00  0.00    -0.045 A 
ATOM     30  C   UNL     1      -4.351 -11.544   9.432  0.00  0.00    +0.007 A 
ATOM     31  C   UNL     1      -4.030  -9.160   9.214  0.00  0.00    +0.007 A 
ATOM     34  C   UNL     1      -3.500 -11.558  10.537  0.00  0.00    +0.046 A 
ATOM     35  C   UNL     1      -3.178  -9.174  10.319  0.00  0.00    +0.046 A 
ATOM     36  C   UNL     1      -2.913 -10.373  10.980  0.00  0.00    +0.120 A 
BRANCH  36   8
ATOM      8  O   UNL     1      -2.082 -10.387  12.058  0.00  0.00    -0.495 OA
ATOM     41  C   UNL     1      -1.902 -11.636  12.722  0.00  0.00    +0.277 C 
ENDBRANCH  36   8
ENDBRANCH  21  25
ENDBRANCH  20  21
ENDBRANCH  11  20
ENDBRANCH  13  17
BRANCH   9   1
ATOM      1  S   UNL     1     -11.406  -8.662   9.229  0.00  0.00    +0.062 S 
ATOM      2  O   UNL     1     -12.767  -8.901   9.662  0.00  0.00    -0.153 OA
ATOM      3  O   UNL     1     -10.931  -9.161   7.957  0.00  0.00    -0.153 OA
BRANCH   1  19
ATOM     19  C   UNL     1     -11.128  -6.918   9.265  0.00  0.00    +0.106 A 
ATOM     22  C   UNL     1      -9.992  -6.380   8.660  0.00  0.00    +0.028 A 
ATOM     23  C   UNL     1     -12.046  -6.078   9.897  0.00  0.00    +0.028 A 
ATOM     26  C   UNL     1      -9.773  -5.003   8.688  0.00  0.00    +0.002 A 
ATOM     27  C   UNL     1     -11.827  -4.701   9.924  0.00  0.00    +0.002 A 
ATOM     29  C   UNL     1     -10.690  -4.163   9.320  0.00  0.00    +0.000 A 
ENDBRANCH   1  19
ENDBRANCH   9   1
TORSDOF 10
ENDMDL
MODEL 5
REMARK VINA RESULT:      -6.3     23.681     28.444
REMARK  Name = 7164894
REMARK  12 active torsions:
REMARK  status: ('A' for Active; 'I' for Inactive)
REMARK    1  A    between atoms: S_1  and  N_9
REMARK    2  A    between atoms: S_1  and  C_19
REMARK    3  A    between atoms: O_6  and  C_24
REMARK    4  A    between atoms: O_6  and  C_39
REMARK    5  A    between atoms: O_8  and  C_36
REMARK    6  A    between atoms: O_8  and  C_41
REMARK    7  A    between atoms: N_11  and  C_20
REMARK    8  A    between atoms: N_12  and  C_28
REMARK    9  A    between atoms: C_13  and  C_17
REMARK   10  A    between atoms: C_20  and  C_21
REMARK   11  A    between atoms: C_20  and  C_24
REMARK   12  A    between atoms: C_21  and  C_25
REMARK                            x       y       z     vdW  Elec       q    Type
REMARK                         _______ _______ _______ _____ _____    ______ ____
ROOT
ATOM      5  O   UNL     1      15.181   6.887   4.291  0.00  0.00    -0.252 OA
ATOM      9  N   UNL     1      11.200   9.645   5.472  0.00  0.00    -0.162 NA
ATOM     10  N   UNL     1      13.390   8.346   4.145  0.00  0.00    -0.282 N 
ATOM     12  N   UNL     1      14.020   7.051   2.278  0.00  0.00    -0.269 N 
ATOM     13  C   UNL     1      12.260   8.978   6.277  0.00  0.00    +0.183 C 
ATOM     14  C   UNL     1      13.577   8.815   5.521  0.00  0.00    +0.139 C 
ATOM     15  C   UNL     1      11.644  10.124   4.138  0.00  0.00    +0.129 C 
ATOM     16  C   UNL     1      12.297   8.970   3.389  0.00  0.00    +0.126 C 
ATOM     18  C   UNL     1      14.278   7.381   3.612  0.00  0.00    +0.307 C 
ATOM     43  H   UNL     1      13.237   7.496   1.814  0.00  0.00    +0.156 HD
ENDROOT
BRANCH  12  28
ATOM     28  C   UNL     1      14.720   6.128   1.461  0.00  0.00    +0.035 A 
ATOM     32  C   UNL     1      14.446   4.764   1.558  0.00  0.00    +0.023 A 
ATOM     33  C   UNL     1      15.684   6.584   0.562  0.00  0.00    +0.023 A 
ATOM     37  C   UNL     1      15.134   3.855   0.753  0.00  0.00    +0.002 A 
ATOM     38  C   UNL     1      16.373   5.676  -0.242  0.00  0.00    +0.002 A 
ATOM     40  C   UNL     1      16.098   4.312  -0.146  0.00  0.00    +0.000 A 
ENDBRANCH  12  28
BRANCH  13  17
ATOM      4  O   UNL     1      12.287   6.832   7.314  0.00  0.00    -0.274 OA
ATOM     11  N   UNL     1      10.410   7.473   6.096  0.00  0.00    -0.301 N 
ATOM     17  C   UNL     1      11.673   7.649   6.634  0.00  0.00    +0.234 C 
ATOM     42  H   UNL     1       9.986   8.226   5.564  0.00  0.00    +0.150 HD
BRANCH  11  20
ATOM     20  C   UNL     1       9.637   6.264   6.275  0.00  0.00    +0.186 C 
BRANCH  20  24
ATOM      7  O   UNL     1       8.851   6.786   8.500  0.00  0.00    -0.249 OA
ATOM     24  C   UNL     1       9.360   5.966   7.744  0.00  0.00    +0.328 C 
BRANCH  24   6
ATOM      6  O   UNL     1       9.760   4.713   8.097  0.00  0.00    -0.467 OA
ATOM     39  C   UNL     1       9.396   4.293   9.415  0.00  0.00    +0.280 C 
ENDBRANCH  24   6
ENDBRANCH  20  24
BRANCH  20  21
ATOM     21  C   UNL     1      10.288   5.073   5.559  0.00  0.00    +0.069 C 
BRANCH  21  25
ATOM     25  C   UNL     1      10.318   5.182   4.050  0.00  0.00    -0.045 A 
ATOM     30  C   UNL     1       9.810   6.318   3.422  0.00  0.00    +0.007 A 
ATOM     31  C   UNL     1      10.854   4.144   3.288  0.00  0.00    +0.007 A 
ATOM     34  C   UNL     1       9.838   6.417   2.031  0.00  0.00    +0.046 A 
ATOM     35  C   UNL     1      10.883   4.243   1.897  0.00  0.00    +0.046 A 
ATOM     36  C   UNL     1      10.375   5.380   1.269  0.00  0.00    +0.120 A 
BRANCH  36   8
ATOM      8  O   UNL     1      10.403   5.477  -0.089  0.00  0.00    -0.495 OA
ATOM     41  C   UNL     1      10.967   4.381  -0.806  0.00  0.00    +0.277 C 
ENDBRANCH  36   8
ENDBRANCH  21  25
ENDBRANCH  20  21
ENDBRANCH  11  20
ENDBRANCH  13  17
BRANCH   9   1
ATOM      1  S   UNL     1      10.119  10.666   6.318  0.00  0.00    +0.062 S 
ATOM      2  O   UNL     1      10.628  12.021   6.291  0.00  0.00    -0.153 OA
ATOM      3  O   UNL     1       9.752  10.033   7.567  0.00  0.00    -0.153 OA
BRANCH   1  19
ATOM     19  C   UNL     1       8.721  10.595   5.242  0.00  0.00    +0.106 A 
ATOM     22  C   UNL     1       8.063  11.769   4.873  0.00  0.00    +0.028 A 
ATOM     23  C   UNL     1       8.274   9.364   4.758  0.00  0.00    +0.028 A 
ATOM     26  C   UNL     1       6.960  11.712   4.022  0.00  0.00    +0.002 A 
ATOM     27  C   UNL     1       7.171   9.308   3.907  0.00  0.00    +0.002 A 
ATOM     29  C   UNL     1       6.514  10.482   3.539  0.00  0.00    +0.000 A 
ENDBRANCH   1  19
ENDBRANCH   9   1
TORSDOF 10
ENDMDL
MODEL 6
REMARK VINA RESULT:      -6.2     25.980     29.569
REMARK  Name = 7164894
REMARK  12 active torsions:
REMARK  status: ('A' for Active; 'I' for Inactive)
REMARK    1  A    between atoms: S_1  and  N_9
REMARK    2  A    between atoms: S_1  and  C_19
REMARK    3  A    between atoms: O_6  and  C_24
REMARK    4  A    between atoms: O_6  and  C_39
REMARK    5  A    between atoms: O_8  and  C_36
REMARK    6  A    between atoms: O_8  and  C_41
REMARK    7  A    between atoms: N_11  and  C_20
REMARK    8  A    between atoms: N_12  and  C_28
REMARK    9  A    between atoms: C_13  and  C_17
REMARK   10  A    between atoms: C_20  and  C_21
REMARK   11  A    between atoms: C_20  and  C_24
REMARK   12  A    between atoms: C_21  and  C_25
REMARK                            x       y       z     vdW  Elec       q    Type
REMARK                         _______ _______ _______ _____ _____    ______ ____
ROOT
ATOM      5  O   UNL     1      15.393   7.727   6.111  0.00  0.00    -0.252 OA
ATOM      9  N   UNL     1      10.422   7.659   5.742  0.00  0.00    -0.162 NA
ATOM     10  N   UNL     1      13.162   8.313   6.300  0.00  0.00    -0.282 N 
ATOM     12  N   UNL     1      14.817   9.983   6.139  0.00  0.00    -0.269 N 
ATOM     13  C   UNL     1      11.475   6.618   5.590  0.00  0.00    +0.183 C 
ATOM     14  C   UNL     1      12.735   6.914   6.400  0.00  0.00    +0.139 C 
ATOM     15  C   UNL     1      10.741   8.724   6.726  0.00  0.00    +0.129 C 
ATOM     16  C   UNL     1      12.100   9.323   6.387  0.00  0.00    +0.126 C 
ATOM     18  C   UNL     1      14.540   8.614   6.180  0.00  0.00    +0.307 C 
ATOM     43  H   UNL     1      14.042  10.635   6.178  0.00  0.00    +0.156 HD
ENDROOT
BRANCH  12  28
ATOM     28  C   UNL     1      16.084  10.609   6.025  0.00  0.00    +0.035 A 
ATOM     32  C   UNL     1      16.823  10.479   4.849  0.00  0.00    +0.023 A 
ATOM     33  C   UNL     1      16.593  11.353   7.089  0.00  0.00    +0.023 A 
ATOM     37  C   UNL     1      18.069  11.095   4.736  0.00  0.00    +0.002 A 
ATOM     38  C   UNL     1      17.839  11.969   6.977  0.00  0.00    +0.002 A 
ATOM     40  C   UNL     1      18.578  11.840   5.801  0.00  0.00    +0.000 A 
ENDBRANCH  12  28
BRANCH  13  17
ATOM      4  O   UNL     1      12.127   7.604   3.520  0.00  0.00    -0.274 OA
ATOM     11  N   UNL     1      11.562   5.347   3.565  0.00  0.00    -0.301 N 
ATOM     17  C   UNL     1      11.767   6.597   4.123  0.00  0.00    +0.234 C 
ATOM     42  H   UNL     1      11.282   4.575   4.163  0.00  0.00    +0.150 HD
BRANCH  11  20
ATOM     20  C   UNL     1      11.753   5.068   2.159  0.00  0.00    +0.186 C 
BRANCH  20  24
ATOM      7  O   UNL     1       9.903   3.789   1.275  0.00  0.00    -0.249 OA
ATOM     24  C   UNL     1      10.432   4.885   1.421  0.00  0.00    +0.328 C 
BRANCH  24   6
ATOM      6  O   UNL     1       9.944   6.064   0.945  0.00  0.00    -0.467 OA
ATOM     39  C   UNL     1      10.539   6.538  -0.267  0.00  0.00    +0.280 C 
ENDBRANCH  24   6
ENDBRANCH  20  24
BRANCH  20  21
ATOM     21  C   UNL     1      12.698   3.877   1.950  0.00  0.00    +0.069 C 
BRANCH  21  25
ATOM     25  C   UNL     1      13.684   4.044   0.815  0.00  0.00    -0.045 A 
ATOM     30  C   UNL     1      13.256   3.921  -0.506  0.00  0.00    +0.007 A 
ATOM     31  C   UNL     1      15.023   4.322   1.092  0.00  0.00    +0.007 A 
ATOM     34  C   UNL     1      14.166   4.075  -1.551  0.00  0.00    +0.046 A 
ATOM     35  C   UNL     1      15.934   4.477   0.046  0.00  0.00    +0.046 A 
ATOM     36  C   UNL     1      15.504   4.353  -1.276  0.00  0.00    +0.120 A 
BRANCH  36   8
ATOM      8  O   UNL     1      16.392   4.505  -2.296  0.00  0.00    -0.495 OA
ATOM     41  C   UNL     1      17.778   4.446  -1.965  0.00  0.00    +0.277 C 
ENDBRANCH  36   8
ENDBRANCH  21  25
ENDBRANCH  20  21
ENDBRANCH  11  20
ENDBRANCH  13  17
BRANCH   9   1
ATOM      1  S   UNL     1       8.798   7.122   5.713  0.00  0.00    +0.062 S 
ATOM      2  O   UNL     1       8.162   7.469   6.966  0.00  0.00    -0.153 OA
ATOM      3  O   UNL     1       8.759   5.765   5.209  0.00  0.00    -0.153 OA
BRANCH   1  19
ATOM     19  C   UNL     1       8.144   8.184   4.463  0.00  0.00    +0.106 A 
ATOM     22  C   UNL     1       8.488   7.983   3.126  0.00  0.00    +0.028 A 
ATOM     23  C   UNL     1       7.280   9.223   4.812  0.00  0.00    +0.028 A 
ATOM     26  C   UNL     1       7.970   8.822   2.139  0.00  0.00    +0.002 A 
ATOM     27  C   UNL     1       6.762  10.060   3.825  0.00  0.00    +0.002 A 
ATOM     29  C   UNL     1       7.107   9.860   2.489  0.00  0.00    +0.000 A 
ENDBRANCH   1  19
ENDBRANCH   9   1
TORSDOF 10
ENDMDL
MODEL 7
REMARK VINA RESULT:      -6.2      2.065      2.656
REMARK  Name = 7164894
REMARK  12 active torsions:
REMARK  status: ('A' for Active; 'I' for Inactive)
REMARK    1  A    between atoms: S_1  and  N_9
REMARK    2  A    between atoms: S_1  and  C_19
REMARK    3  A    between atoms: O_6  and  C_24
REMARK    4  A    between atoms: O_6  and  C_39
REMARK    5  A    between atoms: O_8  and  C_36
REMARK    6  A    between atoms: O_8  and  C_41
REMARK    7  A    between atoms: N_11  and  C_20
REMARK    8  A    between atoms: N_12  and  C_28
REMARK    9  A    between atoms: C_13  and  C_17
REMARK   10  A    between atoms: C_20  and  C_21
REMARK   11  A    between atoms: C_20  and  C_24
REMARK   12  A    between atoms: C_21  and  C_25
REMARK                            x       y       z     vdW  Elec       q    Type
REMARK                         _______ _______ _______ _____ _____    ______ ____
ROOT
ATOM      5  O   UNL     1      -9.048 -11.362  14.045  0.00  0.00    -0.252 OA
ATOM      9  N   UNL     1      -4.938 -10.079  11.532  0.00  0.00    -0.162 NA
ATOM     10  N   UNL     1      -7.486 -10.136  12.857  0.00  0.00    -0.282 N 
ATOM     12  N   UNL     1      -8.847  -9.080  14.466  0.00  0.00    -0.269 N 
ATOM     13  C   UNL     1      -5.559 -11.386  11.883  0.00  0.00    +0.183 C 
ATOM     14  C   UNL     1      -7.072 -11.303  12.071  0.00  0.00    +0.139 C 
ATOM     15  C   UNL     1      -5.905  -8.971  11.324  0.00  0.00    +0.129 C 
ATOM     16  C   UNL     1      -6.815  -8.869  12.541  0.00  0.00    +0.126 C 
ATOM     18  C   UNL     1      -8.516 -10.274  13.817  0.00  0.00    +0.307 C 
ATOM     43  H   UNL     1      -8.333  -8.241  14.224  0.00  0.00    +0.156 HD
ENDROOT
BRANCH  12  28
ATOM     28  C   UNL     1      -9.827  -8.882  15.470  0.00  0.00    +0.035 A 
ATOM     32  C   UNL     1      -9.439  -8.680  16.794  0.00  0.00    +0.023 A 
ATOM     33  C   UNL     1     -11.181  -8.888  15.134  0.00  0.00    +0.023 A 
ATOM     37  C   UNL     1     -10.404  -8.484  17.783  0.00  0.00    +0.002 A 
ATOM     38  C   UNL     1     -12.146  -8.692  16.121  0.00  0.00    +0.002 A 
ATOM     40  C   UNL     1     -11.757  -8.490  17.446  0.00  0.00    +0.000 A 
ENDBRANCH  12  28
BRANCH  13  17
ATOM      4  O   UNL     1      -4.882 -12.955  13.545  0.00  0.00    -0.274 OA
ATOM     11  N   UNL     1      -4.289 -10.718  13.796  0.00  0.00    -0.301 N 
ATOM     17  C   UNL     1      -4.877 -11.792  13.151  0.00  0.00    +0.234 C 
ATOM     42  H   UNL     1      -4.328  -9.798  13.368  0.00  0.00    +0.150 HD
BRANCH  11  20
ATOM     20  C   UNL     1      -3.586 -10.840  15.054  0.00  0.00    +0.186 C 
BRANCH  20  24
ATOM      7  O   UNL     1      -1.394  -9.906  14.649  0.00  0.00    -0.249 OA
ATOM     24  C   UNL     1      -2.075 -10.902  14.869  0.00  0.00    +0.328 C 
BRANCH  24   6
ATOM      6  O   UNL     1      -1.599 -12.175  14.959  0.00  0.00    -0.467 OA
ATOM     39  C   UNL     1      -1.332 -12.828  13.713  0.00  0.00    +0.280 C 
ENDBRANCH  24   6
ENDBRANCH  20  24
BRANCH  20  21
ATOM     21  C   UNL     1      -4.114 -12.025  15.875  0.00  0.00    +0.069 C 
BRANCH  21  25
ATOM     25  C   UNL     1      -5.167 -11.664  16.900  0.00  0.00    -0.045 A 
ATOM     30  C   UNL     1      -6.509 -11.949  16.652  0.00  0.00    +0.007 A 
ATOM     31  C   UNL     1      -4.794 -11.044  18.092  0.00  0.00    +0.007 A 
ATOM     34  C   UNL     1      -7.479 -11.616  17.597  0.00  0.00    +0.046 A 
ATOM     35  C   UNL     1      -5.765 -10.711  19.038  0.00  0.00    +0.046 A 
ATOM     36  C   UNL     1      -7.107 -10.997  18.790  0.00  0.00    +0.120 A 
BRANCH  36   8
ATOM      8  O   UNL     1      -8.054 -10.673  19.712  0.00  0.00    -0.495 OA
ATOM     41  C   UNL     1      -9.257 -11.439  19.704  0.00  0.00    +0.277 C 
ENDBRANCH  36   8
ENDBRANCH  21  25
ENDBRANCH  20  21
ENDBRANCH  11  20
ENDBRANCH  13  17
BRANCH   9   1
ATOM      1  S   UNL     1      -3.600 -10.123  10.467  0.00  0.00    +0.062 S 
ATOM      2  O   UNL     1      -2.524 -10.866  11.089  0.00  0.00    -0.153 OA
ATOM      3  O   UNL     1      -3.378  -8.796   9.934  0.00  0.00    -0.153 OA
BRANCH   1  19
ATOM     19  C   UNL     1      -4.268 -11.123   9.174  0.00  0.00    +0.106 A 
ATOM     22  C   UNL     1      -4.980 -10.530   8.130  0.00  0.00    +0.028 A 
ATOM     23  C   UNL     1      -4.082 -12.506   9.194  0.00  0.00    +0.028 A 
ATOM     26  C   UNL     1      -5.506 -11.320   7.108  0.00  0.00    +0.002 A 
ATOM     27  C   UNL     1      -4.608 -13.295   8.171  0.00  0.00    +0.002 A 
ATOM     29  C   UNL     1      -5.320 -12.702   7.129  0.00  0.00    +0.000 A 
ENDBRANCH   1  19
ENDBRANCH   9   1
TORSDOF 10
ENDMDL
MODEL 8
REMARK VINA RESULT:      -6.2      3.194      5.505
REMARK  Name = 7164894
REMARK  12 active torsions:
REMARK  status: ('A' for Active; 'I' for Inactive)
REMARK    1  A    between atoms: S_1  and  N_9
REMARK    2  A    between atoms: S_1  and  C_19
REMARK    3  A    between atoms: O_6  and  C_24
REMARK    4  A    between atoms: O_6  and  C_39
REMARK    5  A    between atoms: O_8  and  C_36
REMARK    6  A    between atoms: O_8  and  C_41
REMARK    7  A    between atoms: N_11  and  C_20
REMARK    8  A    between atoms: N_12  and  C_28
REMARK    9  A    between atoms: C_13  and  C_17
REMARK   10  A    between atoms: C_20  and  C_21
REMARK   11  A    between atoms: C_20  and  C_24
REMARK   12  A    between atoms: C_21  and  C_25
REMARK                            x       y       z     vdW  Elec       q    Type
REMARK                         _______ _______ _______ _____ _____    ______ ____
ROOT
ATOM      5  O   UNL     1      -8.291 -10.246   9.685  0.00  0.00    -0.252 OA
ATOM      9  N   UNL     1      -3.836 -10.281  11.922  0.00  0.00    -0.162 NA
ATOM     10  N   UNL     1      -6.034  -9.949  10.104  0.00  0.00    -0.282 N 
ATOM     12  N   UNL     1      -7.200  -8.413   8.748  0.00  0.00    -0.269 N 
ATOM     13  C   UNL     1      -5.107 -11.019  12.159  0.00  0.00    +0.183 C 
ATOM     14  C   UNL     1      -5.953 -11.180  10.897  0.00  0.00    +0.139 C 
ATOM     15  C   UNL     1      -3.574  -9.937  10.502  0.00  0.00    +0.129 C 
ATOM     16  C   UNL     1      -4.782  -9.200   9.938  0.00  0.00    +0.126 C 
ATOM     18  C   UNL     1      -7.266  -9.581   9.514  0.00  0.00    +0.307 C 
ATOM     43  H   UNL     1      -6.314  -7.925   8.689  0.00  0.00    +0.156 HD
ENDROOT
BRANCH  12  28
ATOM     28  C   UNL     1      -8.249  -7.784   8.032  0.00  0.00    +0.035 A 
ATOM     32  C   UNL     1      -9.125  -6.923   8.692  0.00  0.00    +0.023 A 
ATOM     33  C   UNL     1      -8.406  -8.027   6.668  0.00  0.00    +0.023 A 
ATOM     37  C   UNL     1     -10.158  -6.303   7.988  0.00  0.00    +0.002 A 
ATOM     38  C   UNL     1      -9.438  -7.408   5.963  0.00  0.00    +0.002 A 
ATOM     40  C   UNL     1     -10.314  -6.546   6.624  0.00  0.00    +0.000 A 
ENDBRANCH  12  28
BRANCH  13  17
ATOM      4  O   UNL     1      -6.394  -9.156  12.905  0.00  0.00    -0.274 OA
ATOM     11  N   UNL     1      -5.734 -10.765  14.453  0.00  0.00    -0.301 N 
ATOM     17  C   UNL     1      -5.823 -10.206  13.190  0.00  0.00    +0.234 C 
ATOM     42  H   UNL     1      -5.253 -11.652  14.571  0.00  0.00    +0.150 HD
BRANCH  11  20
ATOM     20  C   UNL     1      -6.323 -10.162  15.627  0.00  0.00    +0.186 C 
BRANCH  20  24
ATOM      7  O   UNL     1      -4.318 -10.028  16.970  0.00  0.00    -0.249 OA
ATOM     24  C   UNL     1      -5.485 -10.394  16.879  0.00  0.00    +0.328 C 
BRANCH  24   6
ATOM      6  O   UNL     1      -6.179 -11.057  17.845  0.00  0.00    -0.467 OA
ATOM     39  C   UNL     1      -5.959 -10.610  19.186  0.00  0.00    +0.280 C 
ENDBRANCH  24   6
ENDBRANCH  20  24
BRANCH  20  21
ATOM     21  C   UNL     1      -7.778 -10.613  15.817  0.00  0.00    +0.069 C 
BRANCH  21  25
ATOM     25  C   UNL     1      -8.776  -9.485  15.959  0.00  0.00    -0.045 A 
ATOM     30  C   UNL     1      -9.549  -9.095  14.866  0.00  0.00    +0.007 A 
ATOM     31  C   UNL     1      -8.922  -8.834  17.184  0.00  0.00    +0.007 A 
ATOM     34  C   UNL     1     -10.469  -8.055  14.997  0.00  0.00    +0.046 A 
ATOM     35  C   UNL     1      -9.842  -7.794  17.316  0.00  0.00    +0.046 A 
ATOM     36  C   UNL     1     -10.615  -7.404  16.222  0.00  0.00    +0.120 A 
BRANCH  36   8
ATOM      8  O   UNL     1     -11.513  -6.390  16.351  0.00  0.00    -0.495 OA
ATOM     41  C   UNL     1     -12.027  -5.822  15.147  0.00  0.00    +0.277 C 
ENDBRANCH  36   8
ENDBRANCH  21  25
ENDBRANCH  20  21
ENDBRANCH  11  20
ENDBRANCH  13  17
BRANCH   9   1
ATOM      1  S   UNL     1      -2.480 -10.771  12.842  0.00  0.00    +0.062 S 
ATOM      2  O   UNL     1      -2.589 -10.223  14.178  0.00  0.00    -0.153 OA
ATOM      3  O   UNL     1      -1.281 -10.578  12.054  0.00  0.00    -0.153 OA
BRANCH   1  19
ATOM     19  C   UNL     1      -2.787 -12.507  12.945  0.00  0.00    +0.106 A 
ATOM     22  C   UNL     1      -2.818 -13.280  11.784  0.00  0.00    +0.028 A 
ATOM     23  C   UNL     1      -2.997 -13.106  14.187  0.00  0.00    +0.028 A 
ATOM     26  C   UNL     1      -3.060 -14.652  11.866  0.00  0.00    +0.002 A 
ATOM     27  C   UNL     1      -3.238 -14.477  14.269  0.00  0.00    +0.002 A 
ATOM     29  C   UNL     1      -3.270 -15.250  13.108  0.00  0.00    +0.000 A 
ENDBRANCH   1  19
ENDBRANCH   9   1
TORSDOF 10
ENDMDL
MODEL 9
REMARK VINA RESULT:      -6.0     25.840     28.436
REMARK  Name = 7164894
REMARK  12 active torsions:
REMARK  status: ('A' for Active; 'I' for Inactive)
REMARK    1  A    between atoms: S_1  and  N_9
REMARK    2  A    between atoms: S_1  and  C_19
REMARK    3  A    between atoms: O_6  and  C_24
REMARK    4  A    between atoms: O_6  and  C_39
REMARK    5  A    between atoms: O_8  and  C_36
REMARK    6  A    between atoms: O_8  and  C_41
REMARK    7  A    between atoms: N_11  and  C_20
REMARK    8  A    between atoms: N_12  and  C_28
REMARK    9  A    between atoms: C_13  and  C_17
REMARK   10  A    between atoms: C_20  and  C_21
REMARK   11  A    between atoms: C_20  and  C_24
REMARK   12  A    between atoms: C_21  and  C_25
REMARK                            x       y       z     vdW  Elec       q    Type
REMARK                         _______ _______ _______ _____ _____    ______ ____
ROOT
ATOM      5  O   UNL     1      16.244  -6.935  30.508  0.00  0.00    -0.252 OA
ATOM      9  N   UNL     1      17.578  -6.030  25.790  0.00  0.00    -0.162 NA
ATOM     10  N   UNL     1      16.280  -6.916  28.194  0.00  0.00    -0.282 N 
ATOM     12  N   UNL     1      14.227  -7.030  29.347  0.00  0.00    -0.269 N 
ATOM     13  C   UNL     1      18.291  -5.932  27.094  0.00  0.00    +0.183 C 
ATOM     14  C   UNL     1      17.745  -6.889  28.152  0.00  0.00    +0.139 C 
ATOM     15  C   UNL     1      16.553  -7.102  25.724  0.00  0.00    +0.129 C 
ATOM     16  C   UNL     1      15.593  -6.946  26.896  0.00  0.00    +0.126 C 
ATOM     18  C   UNL     1      15.620  -6.963  29.445  0.00  0.00    +0.307 C 
ATOM     43  H   UNL     1      13.807  -7.024  28.425  0.00  0.00    +0.156 HD
ENDROOT
BRANCH  12  28
ATOM     28  C   UNL     1      13.285  -7.089  30.405  0.00  0.00    +0.035 A 
ATOM     32  C   UNL     1      12.859  -5.915  31.025  0.00  0.00    +0.023 A 
ATOM     33  C   UNL     1      12.785  -8.322  30.825  0.00  0.00    +0.023 A 
ATOM     37  C   UNL     1      11.931  -5.973  32.065  0.00  0.00    +0.002 A 
ATOM     38  C   UNL     1      11.857  -8.380  31.865  0.00  0.00    +0.002 A 
ATOM     40  C   UNL     1      11.431  -7.205  32.486  0.00  0.00    +0.000 A 
ENDBRANCH  12  28
BRANCH  13  17
ATOM      4  O   UNL     1      17.060  -4.102  27.996  0.00  0.00    -0.274 OA
ATOM     11  N   UNL     1      19.237  -3.742  27.257  0.00  0.00    -0.301 N 
ATOM     17  C   UNL     1      18.111  -4.507  27.509  0.00  0.00    +0.234 C 
ATOM     42  H   UNL     1      20.064  -4.186  26.869  0.00  0.00    +0.150 HD
BRANCH  11  20
ATOM     20  C   UNL     1      19.312  -2.327  27.547  0.00  0.00    +0.186 C 
BRANCH  20  24
ATOM      7  O   UNL     1      19.252  -1.059  25.490  0.00  0.00    -0.249 OA
ATOM     24  C   UNL     1      19.925  -1.533  26.400  0.00  0.00    +0.328 C 
BRANCH  24   6
ATOM      6  O   UNL     1      21.280  -1.440  26.507  0.00  0.00    -0.467 OA
ATOM     39  C   UNL     1      21.853  -0.201  26.076  0.00  0.00    +0.280 C 
ENDBRANCH  24   6
ENDBRANCH  20  24
BRANCH  20  21
ATOM     21  C   UNL     1      20.034  -2.067  28.877  0.00  0.00    +0.069 C 
BRANCH  21  25
ATOM     25  C   UNL     1      19.179  -1.419  29.943  0.00  0.00    -0.045 A 
ATOM     30  C   UNL     1      19.717  -0.427  30.762  0.00  0.00    +0.007 A 
ATOM     31  C   UNL     1      17.852  -1.815  30.107  0.00  0.00    +0.007 A 
ATOM     34  C   UNL     1      18.929   0.169  31.745  0.00  0.00    +0.046 A 
ATOM     35  C   UNL     1      17.062  -1.218  31.090  0.00  0.00    +0.046 A 
ATOM     36  C   UNL     1      17.601  -0.226  31.909  0.00  0.00    +0.120 A 
BRANCH  36   8
ATOM      8  O   UNL     1      16.831   0.357  32.868  0.00  0.00    -0.495 OA
ATOM     41  C   UNL     1      16.757   1.782  32.863  0.00  0.00    +0.277 C 
ENDBRANCH  36   8
ENDBRANCH  21  25
ENDBRANCH  20  21
ENDBRANCH  11  20
ENDBRANCH  13  17
BRANCH   9   1
ATOM      1  S   UNL     1      18.517  -5.796  24.380  0.00  0.00    +0.062 S 
ATOM      2  O   UNL     1      18.198  -6.832  23.421  0.00  0.00    -0.153 OA
ATOM      3  O   UNL     1      19.888  -5.533  24.764  0.00  0.00    -0.153 OA
BRANCH   1  19
ATOM     19  C   UNL     1      17.819  -4.284  23.792  0.00  0.00    +0.106 A 
ATOM     22  C   UNL     1      16.615  -3.819  24.321  0.00  0.00    +0.028 A 
ATOM     23  C   UNL     1      18.472  -3.553  22.799  0.00  0.00    +0.028 A 
ATOM     26  C   UNL     1      16.064  -2.624  23.857  0.00  0.00    +0.002 A 
ATOM     27  C   UNL     1      17.922  -2.358  22.336  0.00  0.00    +0.002 A 
ATOM     29  C   UNL     1      16.718  -1.894  22.865  0.00  0.00    +0.000 A 
ENDBRANCH   1  19
ENDBRANCH   9   1
TORSDOF 10
ENDMDL
MODEL 10
REMARK VINA RESULT:      -6.0     25.895     28.303
REMARK  Name = 7164894
REMARK  12 active torsions:
REMARK  status: ('A' for Active; 'I' for Inactive)
REMARK    1  A    between atoms: S_1  and  N_9
REMARK    2  A    between atoms: S_1  and  C_19
REMARK    3  A    between atoms: O_6  and  C_24
REMARK    4  A    between atoms: O_6  and  C_39
REMARK    5  A    between atoms: O_8  and  C_36
REMARK    6  A    between atoms: O_8  and  C_41
REMARK    7  A    between atoms: N_11  and  C_20
REMARK    8  A    between atoms: N_12  and  C_28
REMARK    9  A    between atoms: C_13  and  C_17
REMARK   10  A    between atoms: C_20  and  C_21
REMARK   11  A    between atoms: C_20  and  C_24
REMARK   12  A    between atoms: C_21  and  C_25
REMARK                            x       y       z     vdW  Elec       q    Type
REMARK                         _______ _______ _______ _____ _____    ______ ____
ROOT
ATOM      5  O   UNL     1      16.797  -6.720  30.148  0.00  0.00    -0.252 OA
ATOM      9  N   UNL     1      17.854  -5.518  25.426  0.00  0.00    -0.162 NA
ATOM     10  N   UNL     1      16.730  -6.600  27.838  0.00  0.00    -0.282 N 
ATOM     12  N   UNL     1      14.743  -6.915  29.067  0.00  0.00    -0.269 N 
ATOM     13  C   UNL     1      18.614  -5.423  26.703  0.00  0.00    +0.183 C 
ATOM     14  C   UNL     1      18.186  -6.462  27.737  0.00  0.00    +0.139 C 
ATOM     15  C   UNL     1      16.907  -6.659  25.353  0.00  0.00    +0.129 C 
ATOM     16  C   UNL     1      15.991  -6.625  26.569  0.00  0.00    +0.126 C 
ATOM     18  C   UNL     1      16.130  -6.748  29.111  0.00  0.00    +0.307 C 
ATOM     43  H   UNL     1      14.283  -6.900  28.164  0.00  0.00    +0.156 HD
ENDROOT
BRANCH  12  28
ATOM     28  C   UNL     1      13.855  -7.088  30.158  0.00  0.00    +0.035 A 
ATOM     32  C   UNL     1      13.313  -5.975  30.800  0.00  0.00    +0.023 A 
ATOM     33  C   UNL     1      13.524  -8.372  30.590  0.00  0.00    +0.023 A 
ATOM     37  C   UNL     1      12.438  -6.145  31.874  0.00  0.00    +0.002 A 
ATOM     38  C   UNL     1      12.650  -8.544  31.664  0.00  0.00    +0.002 A 
ATOM     40  C   UNL     1      12.107  -7.430  32.306  0.00  0.00    +0.000 A 
ENDBRANCH  12  28
BRANCH  13  17
ATOM      4  O   UNL     1      17.286  -3.462  26.971  0.00  0.00    -0.274 OA
ATOM     11  N   UNL     1      19.433  -3.503  27.870  0.00  0.00    -0.301 N 
ATOM     17  C   UNL     1      18.351  -4.034  27.190  0.00  0.00    +0.234 C 
ATOM     42  H   UNL     1      20.260  -4.074  28.012  0.00  0.00    +0.150 HD
BRANCH  11  20
ATOM     20  C   UNL     1      19.441  -2.166  28.422  0.00  0.00    +0.186 C 
BRANCH  20  24
ATOM      7  O   UNL     1      21.382  -0.729  28.335  0.00  0.00    -0.249 OA
ATOM     24  C   UNL     1      20.455  -1.261  27.733  0.00  0.00    +0.328 C 
BRANCH  24   6
ATOM      6  O   UNL     1      20.191  -1.113  26.405  0.00  0.00    -0.467 OA
ATOM     39  C   UNL     1      21.216  -0.477  25.636  0.00  0.00    +0.280 C 
ENDBRANCH  24   6
ENDBRANCH  20  24
BRANCH  20  21
ATOM     21  C   UNL     1      19.634  -2.192  29.945  0.00  0.00    +0.069 C 
BRANCH  21  25
ATOM     25  C   UNL     1      18.412  -2.618  30.729  0.00  0.00    -0.045 A 
ATOM     30  C   UNL     1      18.510  -3.635  31.677  0.00  0.00    +0.007 A 
ATOM     31  C   UNL     1      17.187  -1.991  30.503  0.00  0.00    +0.007 A 
ATOM     34  C   UNL     1      17.383  -4.026  32.400  0.00  0.00    +0.046 A 
ATOM     35  C   UNL     1      16.059  -2.382  31.226  0.00  0.00    +0.046 A 
ATOM     36  C   UNL     1      16.158  -3.400  32.174  0.00  0.00    +0.120 A 
BRANCH  36   8
ATOM      8  O   UNL     1      15.058  -3.781  32.880  0.00  0.00    -0.495 OA
ATOM     41  C   UNL     1      15.270  -4.652  33.990  0.00  0.00    +0.277 C 
ENDBRANCH  36   8
ENDBRANCH  21  25
ENDBRANCH  20  21
ENDBRANCH  11  20
ENDBRANCH  13  17
BRANCH   9   1
ATOM      1  S   UNL     1      18.710  -5.155  23.991  0.00  0.00    +0.062 S 
ATOM      2  O   UNL     1      18.418  -6.165  22.996  0.00  0.00    -0.153 OA
ATOM      3  O   UNL     1      20.076  -4.817  24.330  0.00  0.00    -0.153 OA
BRANCH   1  19
ATOM     19  C   UNL     1      17.888  -3.668  23.508  0.00  0.00    +0.106 A 
ATOM     22  C   UNL     1      16.540  -3.702  23.150  0.00  0.00    +0.028 A 
ATOM     23  C   UNL     1      18.585  -2.460  23.487  0.00  0.00    +0.028 A 
ATOM     26  C   UNL     1      15.890  -2.528  22.770  0.00  0.00    +0.002 A 
ATOM     27  C   UNL     1      17.935  -1.286  23.108  0.00  0.00    +0.002 A 
ATOM     29  C   UNL     1      16.588  -1.320  22.748  0.00  0.00    +0.000 A 
ENDBRANCH   1  19
ENDBRANCH   9   1
TORSDOF 10
ENDMDL
