MODEL 1
REMARK VINA RESULT:      -6.8      0.000      0.000
REMARK  Name = 75536819
REMARK  7 active torsions:
REMARK  status: ('A' for Active; 'I' for Inactive)
REMARK    1  A    between atoms: O_3  and  C_9
REMARK    2  A    between atoms: N_5  and  C_8
REMARK    3  A    between atoms: N_5  and  C_13
REMARK    4  A    between atoms: N_6  and  C_12
REMARK    5  A    between atoms: C_10  and  C_12
REMARK    6  A    between atoms: C_13  and  C_14
REMARK    7  A    between atoms: C_15  and  C_18
REMARK                            x       y       z     vdW  Elec       q    Type
REMARK                         _______ _______ _______ _____ _____    ______ ____
ROOT
ATOM      2  O   UNL     1      13.139   6.630  20.641  0.00  0.00    -0.371 OA
ATOM      8  C   UNL     1      11.018   7.670  20.894  0.00  0.00    +0.111 C 
ATOM      9  C   UNL     1      11.689   8.212  19.646  0.00  0.00    +0.164 C 
ATOM     10  C   UNL     1      12.706   7.116  19.359  0.00  0.00    +0.165 C 
ATOM     11  C   UNL     1      12.204   7.075  21.638  0.00  0.00    +0.181 C 
ENDROOT
BRANCH   9   3
ATOM      3  O   UNL     1      10.785   8.387  18.573  0.00  0.00    -0.388 OA
ATOM     25  H   UNL     1      11.167   9.031  17.952  0.00  0.00    +0.210 HD
ENDBRANCH   9   3
BRANCH   8   5
ATOM      5  N   UNL     1      10.315   8.681  21.665  0.00  0.00    -0.305 NA
ATOM     24  H   UNL     1       9.450   8.282  22.029  0.00  0.00    +0.123 HD
BRANCH   5  13
ATOM     13  C   UNL     1      11.126   9.148  22.784  0.00  0.00    +0.116 C 
BRANCH  13  14
ATOM      7  N   UNL     1      11.029  13.431  23.160  0.00  0.00    -0.263 NA
ATOM     14  C   UNL     1      11.091  10.646  22.916  0.00  0.00    -0.031 A 
ATOM     16  C   UNL     1      11.264  11.449  21.794  0.00  0.00    +0.024 A 
ATOM     17  C   UNL     1      10.888  11.234  24.160  0.00  0.00    +0.024 A 
ATOM     19  C   UNL     1      11.224  12.824  21.968  0.00  0.00    +0.111 A 
ATOM     20  C   UNL     1      10.865  12.618  24.228  0.00  0.00    +0.111 A 
ENDBRANCH  13  14
ENDBRANCH   5  13
ENDBRANCH   8   5
BRANCH  10  12
ATOM     12  C   UNL     1      13.903   7.602  18.562  0.00  0.00    +0.138 C 
BRANCH  12   6
ATOM      4  O   UNL     1      16.201   5.880  18.604  0.00  0.00    -0.270 OA
ATOM      6  N   UNL     1      15.063   7.740  19.396  0.00  0.00    -0.308 N 
ATOM     15  C   UNL     1      16.135   6.854  19.349  0.00  0.00    +0.251 C 
ATOM     26  H   UNL     1      15.071   8.517  20.048  0.00  0.00    +0.149 HD
BRANCH  15  18
ATOM      1  S   UNL     1      17.255   8.586  21.182  0.00  0.00    -0.092 S 
ATOM     18  C   UNL     1      17.249   7.121  20.296  0.00  0.00    +0.074 A 
ATOM     21  C   UNL     1      18.338   6.332  20.592  0.00  0.00    +0.021 A 
ATOM     22  C   UNL     1      19.191   6.939  21.559  0.00  0.00    +0.008 A 
ATOM     23  C   UNL     1      18.720   8.168  21.966  0.00  0.00    +0.046 A 
ENDBRANCH  15  18
ENDBRANCH  12   6
ENDBRANCH  10  12
TORSDOF 7
ENDMDL
MODEL 2
REMARK VINA RESULT:      -6.5      2.832      8.231
REMARK  Name = 75536819
REMARK  7 active torsions:
REMARK  status: ('A' for Active; 'I' for Inactive)
REMARK    1  A    between atoms: O_3  and  C_9
REMARK    2  A    between atoms: N_5  and  C_8
REMARK    3  A    between atoms: N_5  and  C_13
REMARK    4  A    between atoms: N_6  and  C_12
REMARK    5  A    between atoms: C_10  and  C_12
REMARK    6  A    between atoms: C_13  and  C_14
REMARK    7  A    between atoms: C_15  and  C_18
REMARK                            x       y       z     vdW  Elec       q    Type
REMARK                         _______ _______ _______ _____ _____    ______ ____
ROOT
ATOM      2  O   UNL     1      15.808   6.185  18.966  0.00  0.00    -0.371 OA
ATOM      8  C   UNL     1      16.895   6.415  21.066  0.00  0.00    +0.111 C 
ATOM      9  C   UNL     1      15.625   7.247  21.072  0.00  0.00    +0.164 C 
ATOM     10  C   UNL     1      14.838   6.588  19.947  0.00  0.00    +0.165 C 
ATOM     11  C   UNL     1      17.111   6.208  19.575  0.00  0.00    +0.181 C 
ENDROOT
BRANCH   9   3
ATOM      3  O   UNL     1      14.937   7.182  22.306  0.00  0.00    -0.388 OA
ATOM     25  H   UNL     1      15.065   6.294  22.681  0.00  0.00    +0.210 HD
ENDBRANCH   9   3
BRANCH   8   5
ATOM      5  N   UNL     1      18.020   7.065  21.716  0.00  0.00    -0.305 NA
ATOM     24  H   UNL     1      18.233   6.574  22.585  0.00  0.00    +0.123 HD
BRANCH   5  13
ATOM     13  C   UNL     1      19.203   7.047  20.863  0.00  0.00    +0.116 C 
BRANCH  13  14
ATOM      7  N   UNL     1      22.105   4.172  22.209  0.00  0.00    -0.263 NA
ATOM     14  C   UNL     1      20.219   6.041  21.333  0.00  0.00    -0.031 A 
ATOM     16  C   UNL     1      20.538   4.946  20.538  0.00  0.00    +0.024 A 
ATOM     17  C   UNL     1      20.842   6.203  22.566  0.00  0.00    +0.024 A 
ATOM     19  C   UNL     1      21.479   4.049  21.017  0.00  0.00    +0.111 A 
ATOM     20  C   UNL     1      21.770   5.249  22.954  0.00  0.00    +0.111 A 
ENDBRANCH  13  14
ENDBRANCH   5  13
ENDBRANCH   8   5
BRANCH  10  12
ATOM     12  C   UNL     1      13.816   7.512  19.310  0.00  0.00    +0.138 C 
BRANCH  12   6
ATOM      4  O   UNL     1      11.072   7.907  20.060  0.00  0.00    -0.270 OA
ATOM      6  N   UNL     1      13.315   8.467  20.256  0.00  0.00    -0.308 N 
ATOM     15  C   UNL     1      11.962   8.589  20.560  0.00  0.00    +0.251 C 
ATOM     26  H   UNL     1      13.994   9.075  20.699  0.00  0.00    +0.149 HD
BRANCH  15  18
ATOM      1  S   UNL     1      12.055  11.265  21.227  0.00  0.00    -0.092 S 
ATOM     18  C   UNL     1      11.603   9.644  21.543  0.00  0.00    +0.074 A 
ATOM     21  C   UNL     1      10.924   9.519  22.735  0.00  0.00    +0.021 A 
ATOM     22  C   UNL     1      10.774  10.771  23.398  0.00  0.00    +0.008 A 
ATOM     23  C   UNL     1      11.343  11.805  22.688  0.00  0.00    +0.046 A 
ENDBRANCH  15  18
ENDBRANCH  12   6
ENDBRANCH  10  12
TORSDOF 7
ENDMDL
MODEL 3
REMARK VINA RESULT:      -6.3     27.073     29.690
REMARK  Name = 75536819
REMARK  7 active torsions:
REMARK  status: ('A' for Active; 'I' for Inactive)
REMARK    1  A    between atoms: O_3  and  C_9
REMARK    2  A    between atoms: N_5  and  C_8
REMARK    3  A    between atoms: N_5  and  C_13
REMARK    4  A    between atoms: N_6  and  C_12
REMARK    5  A    between atoms: C_10  and  C_12
REMARK    6  A    between atoms: C_13  and  C_14
REMARK    7  A    between atoms: C_15  and  C_18
REMARK                            x       y       z     vdW  Elec       q    Type
REMARK                         _______ _______ _______ _____ _____    ______ ____
ROOT
ATOM      2  O   UNL     1     -17.343   5.515  24.523  0.00  0.00    -0.371 OA
ATOM      8  C   UNL     1     -15.941   4.234  23.096  0.00  0.00    +0.111 C 
ATOM      9  C   UNL     1     -15.669   3.844  24.536  0.00  0.00    +0.164 C 
ATOM     10  C   UNL     1     -16.946   4.319  25.216  0.00  0.00    +0.165 C 
ATOM     11  C   UNL     1     -16.633   5.576  23.273  0.00  0.00    +0.181 C 
ENDROOT
BRANCH   9   3
ATOM      3  O   UNL     1     -15.474   2.452  24.697  0.00  0.00    -0.388 OA
ATOM     25  H   UNL     1     -15.681   2.015  23.854  0.00  0.00    +0.210 HD
ENDBRANCH   9   3
BRANCH   8   5
ATOM      5  N   UNL     1     -14.742   4.319  22.278  0.00  0.00    -0.305 NA
ATOM     24  H   UNL     1     -15.012   4.429  21.301  0.00  0.00    +0.123 HD
BRANCH   5  13
ATOM     13  C   UNL     1     -13.917   5.456  22.670  0.00  0.00    +0.116 C 
BRANCH  13  14
ATOM      7  N   UNL     1     -12.642   7.758  19.268  0.00  0.00    -0.263 NA
ATOM     14  C   UNL     1     -13.471   6.262  21.480  0.00  0.00    -0.031 A 
ATOM     16  C   UNL     1     -14.408   6.918  20.690  0.00  0.00    +0.024 A 
ATOM     17  C   UNL     1     -12.119   6.352  21.165  0.00  0.00    +0.024 A 
ATOM     19  C   UNL     1     -13.946   7.647  19.605  0.00  0.00    +0.111 A 
ATOM     20  C   UNL     1     -11.760   7.106  20.060  0.00  0.00    +0.111 A 
ENDBRANCH  13  14
ENDBRANCH   5  13
ENDBRANCH   8   5
BRANCH  10  12
ATOM     12  C   UNL     1     -16.765   4.618  26.693  0.00  0.00    +0.138 C 
BRANCH  12   6
ATOM      4  O   UNL     1     -15.888   4.556  29.426  0.00  0.00    -0.270 OA
ATOM      6  N   UNL     1     -16.191   3.499  27.383  0.00  0.00    -0.308 N 
ATOM     15  C   UNL     1     -15.793   3.559  28.715  0.00  0.00    +0.251 C 
ATOM     26  H   UNL     1     -16.069   2.644  26.853  0.00  0.00    +0.149 HD
BRANCH  15  18
ATOM      1  S   UNL     1     -13.876   2.454  30.365  0.00  0.00    -0.092 S 
ATOM     18  C   UNL     1     -15.192   2.321  29.277  0.00  0.00    +0.074 A 
ATOM     21  C   UNL     1     -15.546   1.010  29.050  0.00  0.00    +0.021 A 
ATOM     22  C   UNL     1     -14.725   0.101  29.779  0.00  0.00    +0.008 A 
ATOM     23  C   UNL     1     -13.776   0.753  30.535  0.00  0.00    +0.046 A 
ENDBRANCH  15  18
ENDBRANCH  12   6
ENDBRANCH  10  12
TORSDOF 7
ENDMDL
MODEL 4
REMARK VINA RESULT:      -6.2      2.251      7.016
REMARK  Name = 75536819
REMARK  7 active torsions:
REMARK  status: ('A' for Active; 'I' for Inactive)
REMARK    1  A    between atoms: O_3  and  C_9
REMARK    2  A    between atoms: N_5  and  C_8
REMARK    3  A    between atoms: N_5  and  C_13
REMARK    4  A    between atoms: N_6  and  C_12
REMARK    5  A    between atoms: C_10  and  C_12
REMARK    6  A    between atoms: C_13  and  C_14
REMARK    7  A    between atoms: C_15  and  C_18
REMARK                            x       y       z     vdW  Elec       q    Type
REMARK                         _______ _______ _______ _____ _____    ______ ____
ROOT
ATOM      2  O   UNL     1      13.638   7.700  18.444  0.00  0.00    -0.371 OA
ATOM      8  C   UNL     1      14.566   6.545  20.301  0.00  0.00    +0.111 C 
ATOM      9  C   UNL     1      13.188   7.055  20.675  0.00  0.00    +0.164 C 
ATOM     10  C   UNL     1      12.568   7.264  19.299  0.00  0.00    +0.165 C 
ATOM     11  C   UNL     1      14.889   7.409  19.091  0.00  0.00    +0.181 C 
ENDROOT
BRANCH   9   3
ATOM      3  O   UNL     1      12.453   6.126  21.449  0.00  0.00    -0.388 OA
ATOM     25  H   UNL     1      12.791   6.153  22.360  0.00  0.00    +0.210 HD
ENDBRANCH   9   3
BRANCH   8   5
ATOM      5  N   UNL     1      15.546   6.675  21.366  0.00  0.00    -0.305 NA
ATOM     24  H   UNL     1      16.068   5.802  21.448  0.00  0.00    +0.123 HD
BRANCH   5  13
ATOM     13  C   UNL     1      16.481   7.760  21.092  0.00  0.00    +0.116 C 
BRANCH  13  14
ATOM      7  N   UNL     1      20.568   6.429  21.242  0.00  0.00    -0.263 NA
ATOM     14  C   UNL     1      17.911   7.294  21.144  0.00  0.00    -0.031 A 
ATOM     16  C   UNL     1      18.318   6.203  20.386  0.00  0.00    +0.024 A 
ATOM     17  C   UNL     1      18.831   7.954  21.952  0.00  0.00    +0.024 A 
ATOM     19  C   UNL     1      19.646   5.813  20.469  0.00  0.00    +0.111 A 
ATOM     20  C   UNL     1      20.136   7.487  21.965  0.00  0.00    +0.111 A 
ENDBRANCH  13  14
ENDBRANCH   5  13
ENDBRANCH   8   5
BRANCH  10  12
ATOM     12  C   UNL     1      11.453   8.293  19.293  0.00  0.00    +0.138 C 
BRANCH  12   6
ATOM      4  O   UNL     1      12.602  10.834  19.976  0.00  0.00    -0.270 OA
ATOM      6  N   UNL     1      11.357   8.965  20.558  0.00  0.00    -0.308 N 
ATOM     15  C   UNL     1      11.949  10.201  20.800  0.00  0.00    +0.251 C 
ATOM     26  H   UNL     1      10.843   8.492  21.292  0.00  0.00    +0.149 HD
BRANCH  15  18
ATOM      1  S   UNL     1      12.673  12.139  22.627  0.00  0.00    -0.092 S 
ATOM     18  C   UNL     1      11.779  10.752  22.170  0.00  0.00    +0.074 A 
ATOM     21  C   UNL     1      10.971  10.298  23.189  0.00  0.00    +0.021 A 
ATOM     22  C   UNL     1      11.087  11.101  24.361  0.00  0.00    +0.008 A 
ATOM     23  C   UNL     1      11.979  12.137  24.193  0.00  0.00    +0.046 A 
ENDBRANCH  15  18
ENDBRANCH  12   6
ENDBRANCH  10  12
TORSDOF 7
ENDMDL
MODEL 5
REMARK VINA RESULT:      -6.2      2.290      7.271
REMARK  Name = 75536819
REMARK  7 active torsions:
REMARK  status: ('A' for Active; 'I' for Inactive)
REMARK    1  A    between atoms: O_3  and  C_9
REMARK    2  A    between atoms: N_5  and  C_8
REMARK    3  A    between atoms: N_5  and  C_13
REMARK    4  A    between atoms: N_6  and  C_12
REMARK    5  A    between atoms: C_10  and  C_12
REMARK    6  A    between atoms: C_13  and  C_14
REMARK    7  A    between atoms: C_15  and  C_18
REMARK                            x       y       z     vdW  Elec       q    Type
REMARK                         _______ _______ _______ _____ _____    ______ ____
ROOT
ATOM      2  O   UNL     1      12.974   9.163  19.460  0.00  0.00    -0.371 OA
ATOM      8  C   UNL     1      13.960   7.002  19.438  0.00  0.00    +0.111 C 
ATOM      9  C   UNL     1      12.656   6.943  20.210  0.00  0.00    +0.164 C 
ATOM     10  C   UNL     1      11.946   8.184  19.685  0.00  0.00    +0.165 C 
ATOM     11  C   UNL     1      14.248   8.495  19.447  0.00  0.00    +0.181 C 
ENDROOT
BRANCH   9   3
ATOM      3  O   UNL     1      11.920   5.764  19.949  0.00  0.00    -0.388 OA
ATOM     25  H   UNL     1      11.873   5.640  18.985  0.00  0.00    +0.210 HD
ENDBRANCH   9   3
BRANCH   8   5
ATOM      5  N   UNL     1      15.027   6.216  20.034  0.00  0.00    -0.305 NA
ATOM     24  H   UNL     1      14.723   5.245  20.113  0.00  0.00    +0.123 HD
BRANCH   5  13
ATOM     13  C   UNL     1      16.236   6.265  19.218  0.00  0.00    +0.116 C 
BRANCH  13  14
ATOM      7  N   UNL     1      19.734   7.084  21.582  0.00  0.00    -0.263 NA
ATOM     14  C   UNL     1      17.460   6.551  20.046  0.00  0.00    -0.031 A 
ATOM     16  C   UNL     1      17.456   7.601  20.957  0.00  0.00    +0.024 A 
ATOM     17  C   UNL     1      18.599   5.767  19.901  0.00  0.00    +0.024 A 
ATOM     19  C   UNL     1      18.609   7.824  21.694  0.00  0.00    +0.111 A 
ATOM     20  C   UNL     1      19.700   6.071  20.686  0.00  0.00    +0.111 A 
ENDBRANCH  13  14
ENDBRANCH   5  13
ENDBRANCH   8   5
BRANCH  10  12
ATOM     12  C   UNL     1      10.912   8.737  20.648  0.00  0.00    +0.138 C 
BRANCH  12   6
ATOM      4  O   UNL     1      10.865   9.740  23.338  0.00  0.00    -0.270 OA
ATOM      6  N   UNL     1      11.254  10.064  21.074  0.00  0.00    -0.308 N 
ATOM     15  C   UNL     1      11.202  10.464  22.405  0.00  0.00    +0.251 C 
ATOM     26  H   UNL     1      11.529  10.721  20.353  0.00  0.00    +0.149 HD
BRANCH  15  18
ATOM      1  S   UNL     1      12.953  12.219  23.617  0.00  0.00    -0.092 S 
ATOM     18  C   UNL     1      11.562  11.880  22.679  0.00  0.00    +0.074 A 
ATOM     21  C   UNL     1      10.918  13.028  22.275  0.00  0.00    +0.021 A 
ATOM     22  C   UNL     1      11.575  14.203  22.742  0.00  0.00    +0.008 A 
ATOM     23  C   UNL     1      12.697  13.907  23.485  0.00  0.00    +0.046 A 
ENDBRANCH  15  18
ENDBRANCH  12   6
ENDBRANCH  10  12
TORSDOF 7
ENDMDL
MODEL 6
REMARK VINA RESULT:      -6.2      2.715      4.637
REMARK  Name = 75536819
REMARK  7 active torsions:
REMARK  status: ('A' for Active; 'I' for Inactive)
REMARK    1  A    between atoms: O_3  and  C_9
REMARK    2  A    between atoms: N_5  and  C_8
REMARK    3  A    between atoms: N_5  and  C_13
REMARK    4  A    between atoms: N_6  and  C_12
REMARK    5  A    between atoms: C_10  and  C_12
REMARK    6  A    between atoms: C_13  and  C_14
REMARK    7  A    between atoms: C_15  and  C_18
REMARK                            x       y       z     vdW  Elec       q    Type
REMARK                         _______ _______ _______ _____ _____    ______ ____
ROOT
ATOM      2  O   UNL     1      13.121  12.997  21.981  0.00  0.00    -0.371 OA
ATOM      8  C   UNL     1      12.465  11.341  23.554  0.00  0.00    +0.111 C 
ATOM      9  C   UNL     1      13.769  10.918  22.904  0.00  0.00    +0.164 C 
ATOM     10  C   UNL     1      14.284  12.252  22.381  0.00  0.00    +0.165 C 
ATOM     11  C   UNL     1      11.960  12.380  22.565  0.00  0.00    +0.181 C 
ENDROOT
BRANCH   9   3
ATOM      3  O   UNL     1      14.670  10.329  23.823  0.00  0.00    -0.388 OA
ATOM     25  H   UNL     1      14.926  11.003  24.474  0.00  0.00    +0.210 HD
ENDBRANCH   9   3
BRANCH   8   5
ATOM      5  N   UNL     1      11.530  10.247  23.753  0.00  0.00    -0.305 NA
ATOM     24  H   UNL     1      10.973  10.431  24.587  0.00  0.00    +0.123 HD
BRANCH   5  13
ATOM     13  C   UNL     1      10.634  10.106  22.610  0.00  0.00    +0.116 C 
BRANCH  13  14
ATOM      7  N   UNL     1      11.675   6.726  20.164  0.00  0.00    -0.263 NA
ATOM     14  C   UNL     1      10.998   8.923  21.754  0.00  0.00    -0.031 A 
ATOM     16  C   UNL     1      10.838   7.632  22.243  0.00  0.00    +0.024 A 
ATOM     17  C   UNL     1      11.496   9.118  20.470  0.00  0.00    +0.024 A 
ATOM     19  C   UNL     1      11.188   6.577  21.416  0.00  0.00    +0.111 A 
ATOM     20  C   UNL     1      11.817   7.996  19.722  0.00  0.00    +0.111 A 
ENDBRANCH  13  14
ENDBRANCH   5  13
ENDBRANCH   8   5
BRANCH  10  12
ATOM     12  C   UNL     1      15.232  12.109  21.204  0.00  0.00    +0.138 C 
BRANCH  12   6
ATOM      4  O   UNL     1      14.567  10.293  19.082  0.00  0.00    -0.270 OA
ATOM      6  N   UNL     1      15.685  10.755  21.062  0.00  0.00    -0.308 N 
ATOM     15  C   UNL     1      15.311   9.944  19.995  0.00  0.00    +0.251 C 
ATOM     26  H   UNL     1      16.293  10.395  21.789  0.00  0.00    +0.149 HD
BRANCH  15  18
ATOM      1  S   UNL     1      17.095   8.155  21.106  0.00  0.00    -0.092 S 
ATOM     18  C   UNL     1      15.846   8.557  20.007  0.00  0.00    +0.074 A 
ATOM     21  C   UNL     1      15.474   7.482  19.230  0.00  0.00    +0.021 A 
ATOM     22  C   UNL     1      16.226   6.313  19.541  0.00  0.00    +0.008 A 
ATOM     23  C   UNL     1      17.142   6.538  20.544  0.00  0.00    +0.046 A 
ENDBRANCH  15  18
ENDBRANCH  12   6
ENDBRANCH  10  12
TORSDOF 7
ENDMDL
MODEL 7
REMARK VINA RESULT:      -6.0     25.765     27.546
REMARK  Name = 75536819
REMARK  7 active torsions:
REMARK  status: ('A' for Active; 'I' for Inactive)
REMARK    1  A    between atoms: O_3  and  C_9
REMARK    2  A    between atoms: N_5  and  C_8
REMARK    3  A    between atoms: N_5  and  C_13
REMARK    4  A    between atoms: N_6  and  C_12
REMARK    5  A    between atoms: C_10  and  C_12
REMARK    6  A    between atoms: C_13  and  C_14
REMARK    7  A    between atoms: C_15  and  C_18
REMARK                            x       y       z     vdW  Elec       q    Type
REMARK                         _______ _______ _______ _____ _____    ______ ____
ROOT
ATOM      2  O   UNL     1      -1.132 -11.428  15.128  0.00  0.00    -0.371 OA
ATOM      8  C   UNL     1      -3.209 -11.143  16.246  0.00  0.00    +0.111 C 
ATOM      9  C   UNL     1      -3.464 -11.725  14.869  0.00  0.00    +0.164 C 
ATOM     10  C   UNL     1      -2.099 -12.315  14.541  0.00  0.00    +0.165 C 
ATOM     11  C   UNL     1      -1.804 -10.585  16.081  0.00  0.00    +0.181 C 
ENDROOT
BRANCH   9   3
ATOM      3  O   UNL     1      -4.478 -12.712  14.873  0.00  0.00    -0.388 OA
ATOM     25  H   UNL     1      -4.847 -12.776  13.976  0.00  0.00    +0.210 HD
ENDBRANCH   9   3
BRANCH   8   5
ATOM      5  N   UNL     1      -4.177 -10.133  16.641  0.00  0.00    -0.305 NA
ATOM     24  H   UNL     1      -4.840  -9.990  15.879  0.00  0.00    +0.123 HD
BRANCH   5  13
ATOM     13  C   UNL     1      -4.910 -10.544  17.833  0.00  0.00    +0.116 C 
BRANCH  13  14
ATOM      7  N   UNL     1      -9.123  -9.760  17.470  0.00  0.00    -0.263 NA
ATOM     14  C   UNL     1      -6.385 -10.269  17.706  0.00  0.00    -0.031 A 
ATOM     16  C   UNL     1      -7.278 -10.818  18.619  0.00  0.00    +0.024 A 
ATOM     17  C   UNL     1      -6.859  -9.465  16.675  0.00  0.00    +0.024 A 
ATOM     19  C   UNL     1      -8.625 -10.535  18.459  0.00  0.00    +0.111 A 
ATOM     20  C   UNL     1      -8.225  -9.243  16.602  0.00  0.00    +0.111 A 
ENDBRANCH  13  14
ENDBRANCH   5  13
ENDBRANCH   8   5
BRANCH  10  12
ATOM     12  C   UNL     1      -1.842 -12.441  13.051  0.00  0.00    +0.138 C 
BRANCH  12   6
ATOM      4  O   UNL     1      -1.407  -9.895  11.797  0.00  0.00    -0.270 OA
ATOM      6  N   UNL     1      -2.797 -11.686  12.291  0.00  0.00    -0.308 N 
ATOM     15  C   UNL     1      -2.497 -10.454  11.717  0.00  0.00    +0.251 C 
ATOM     26  H   UNL     1      -3.725 -12.082  12.196  0.00  0.00    +0.149 HD
BRANCH  15  18
ATOM      1  S   UNL     1      -5.166  -9.751  11.684  0.00  0.00    -0.092 S 
ATOM     18  C   UNL     1      -3.604  -9.786  10.983  0.00  0.00    +0.074 A 
ATOM     21  C   UNL     1      -3.571  -9.154   9.760  0.00  0.00    +0.021 A 
ATOM     22  C   UNL     1      -4.846  -8.634   9.393  0.00  0.00    +0.008 A 
ATOM     23  C   UNL     1      -5.804  -8.888  10.349  0.00  0.00    +0.046 A 
ENDBRANCH  15  18
ENDBRANCH  12   6
ENDBRANCH  10  12
TORSDOF 7
ENDMDL
MODEL 8
REMARK VINA RESULT:      -5.9     26.400     27.894
REMARK  Name = 75536819
REMARK  7 active torsions:
REMARK  status: ('A' for Active; 'I' for Inactive)
REMARK    1  A    between atoms: O_3  and  C_9
REMARK    2  A    between atoms: N_5  and  C_8
REMARK    3  A    between atoms: N_5  and  C_13
REMARK    4  A    between atoms: N_6  and  C_12
REMARK    5  A    between atoms: C_10  and  C_12
REMARK    6  A    between atoms: C_13  and  C_14
REMARK    7  A    between atoms: C_15  and  C_18
REMARK                            x       y       z     vdW  Elec       q    Type
REMARK                         _______ _______ _______ _____ _____    ______ ____
ROOT
ATOM      2  O   UNL     1      -3.707 -10.387  13.799  0.00  0.00    -0.371 OA
ATOM      8  C   UNL     1      -3.063 -10.769  16.054  0.00  0.00    +0.111 C 
ATOM      9  C   UNL     1      -1.985 -11.309  15.133  0.00  0.00    +0.164 C 
ATOM     10  C   UNL     1      -2.278 -10.538  13.853  0.00  0.00    +0.165 C 
ATOM     11  C   UNL     1      -4.245 -10.665  15.103  0.00  0.00    +0.181 C 
ENDROOT
BRANCH   9   3
ATOM      3  O   UNL     1      -0.679 -11.055  15.614  0.00  0.00    -0.388 OA
ATOM     25  H   UNL     1      -0.714 -11.011  16.585  0.00  0.00    +0.210 HD
ENDBRANCH   9   3
BRANCH   8   5
ATOM      5  N   UNL     1      -3.332 -11.621  17.200  0.00  0.00    -0.305 NA
ATOM     24  H   UNL     1      -3.375 -11.045  18.041  0.00  0.00    +0.123 HD
BRANCH   5  13
ATOM     13  C   UNL     1      -4.599 -12.326  17.047  0.00  0.00    +0.116 C 
BRANCH  13  14
ATOM      7  N   UNL     1      -7.437 -11.198  20.075  0.00  0.00    -0.263 NA
ATOM     14  C   UNL     1      -5.592 -11.931  18.107  0.00  0.00    -0.031 A 
ATOM     16  C   UNL     1      -6.633 -12.790  18.443  0.00  0.00    +0.024 A 
ATOM     17  C   UNL     1      -5.473 -10.706  18.754  0.00  0.00    +0.024 A 
ATOM     19  C   UNL     1      -7.521 -12.380  19.425  0.00  0.00    +0.111 A 
ATOM     20  C   UNL     1      -6.412 -10.389  19.722  0.00  0.00    +0.111 A 
ENDBRANCH  13  14
ENDBRANCH   5  13
ENDBRANCH   8   5
BRANCH  10  12
ATOM     12  C   UNL     1      -1.789 -11.244  12.602  0.00  0.00    +0.138 C 
BRANCH  12   6
ATOM      4  O   UNL     1      -2.095  -9.164  10.646  0.00  0.00    -0.270 OA
ATOM      6  N   UNL     1      -2.769 -11.190  11.555  0.00  0.00    -0.308 N 
ATOM     15  C   UNL     1      -2.844 -10.138  10.648  0.00  0.00    +0.251 C 
ATOM     26  H   UNL     1      -3.431 -11.955  11.505  0.00  0.00    +0.149 HD
BRANCH  15  18
ATOM      1  S   UNL     1      -4.773 -11.695   9.435  0.00  0.00    -0.092 S 
ATOM     18  C   UNL     1      -3.933 -10.217   9.639  0.00  0.00    +0.074 A 
ATOM     21  C   UNL     1      -4.402  -9.235   8.795  0.00  0.00    +0.021 A 
ATOM     22  C   UNL     1      -5.465  -9.702   7.969  0.00  0.00    +0.008 A 
ATOM     23  C   UNL     1      -5.768 -11.023   8.214  0.00  0.00    +0.046 A 
ENDBRANCH  15  18
ENDBRANCH  12   6
ENDBRANCH  10  12
TORSDOF 7
ENDMDL
MODEL 9
REMARK VINA RESULT:      -5.8     25.937     28.294
REMARK  Name = 75536819
REMARK  7 active torsions:
REMARK  status: ('A' for Active; 'I' for Inactive)
REMARK    1  A    between atoms: O_3  and  C_9
REMARK    2  A    between atoms: N_5  and  C_8
REMARK    3  A    between atoms: N_5  and  C_13
REMARK    4  A    between atoms: N_6  and  C_12
REMARK    5  A    between atoms: C_10  and  C_12
REMARK    6  A    between atoms: C_13  and  C_14
REMARK    7  A    between atoms: C_15  and  C_18
REMARK                            x       y       z     vdW  Elec       q    Type
REMARK                         _______ _______ _______ _____ _____    ______ ____
ROOT
ATOM      2  O   UNL     1      -1.953 -10.820  16.615  0.00  0.00    -0.371 OA
ATOM      8  C   UNL     1      -2.263 -10.558  14.274  0.00  0.00    +0.111 C 
ATOM      9  C   UNL     1      -3.564 -11.028  14.896  0.00  0.00    +0.164 C 
ATOM     10  C   UNL     1      -3.354 -10.634  16.352  0.00  0.00    +0.165 C 
ATOM     11  C   UNL     1      -1.262 -10.926  15.357  0.00  0.00    +0.181 C 
ENDROOT
BRANCH   9   3
ATOM      3  O   UNL     1      -4.698 -10.393  14.337  0.00  0.00    -0.388 OA
ATOM     25  H   UNL     1      -4.392  -9.762  13.662  0.00  0.00    +0.210 HD
ENDBRANCH   9   3
BRANCH   8   5
ATOM      5  N   UNL     1      -1.969 -11.183  12.995  0.00  0.00    -0.305 NA
ATOM     24  H   UNL     1      -2.746 -11.789  12.733  0.00  0.00    +0.123 HD
BRANCH   5  13
ATOM     13  C   UNL     1      -1.780 -10.182  11.951  0.00  0.00    +0.116 C 
BRANCH  13  14
ATOM      7  N   UNL     1      -4.825 -10.428   8.925  0.00  0.00    -0.263 NA
ATOM     14  C   UNL     1      -2.845 -10.268  10.892  0.00  0.00    -0.031 A 
ATOM     16  C   UNL     1      -3.192  -9.140  10.158  0.00  0.00    +0.024 A 
ATOM     17  C   UNL     1      -3.487 -11.477  10.644  0.00  0.00    +0.024 A 
ATOM     19  C   UNL     1      -4.180  -9.271   9.194  0.00  0.00    +0.111 A 
ATOM     20  C   UNL     1      -4.461 -11.504   9.658  0.00  0.00    +0.111 A 
ENDBRANCH  13  14
ENDBRANCH   5  13
ENDBRANCH   8   5
BRANCH  10  12
ATOM     12  C   UNL     1      -4.173 -11.464  17.323  0.00  0.00    +0.138 C 
BRANCH  12   6
ATOM      4  O   UNL     1      -5.766 -10.713  19.592  0.00  0.00    -0.270 OA
ATOM      6  N   UNL     1      -5.553 -11.070  17.309  0.00  0.00    -0.308 N 
ATOM     15  C   UNL     1      -6.248 -10.721  18.463  0.00  0.00    +0.251 C 
ATOM     26  H   UNL     1      -6.021 -11.067  16.410  0.00  0.00    +0.149 HD
BRANCH  15  18
ATOM      1  S   UNL     1      -8.110  -9.242  17.061  0.00  0.00    -0.092 S 
ATOM     18  C   UNL     1      -7.680 -10.362  18.283  0.00  0.00    +0.074 A 
ATOM     21  C   UNL     1      -8.777 -10.813  18.982  0.00  0.00    +0.021 A 
ATOM     22  C   UNL     1      -9.989 -10.231  18.508  0.00  0.00    +0.008 A 
ATOM     23  C   UNL     1      -9.770  -9.358  17.465  0.00  0.00    +0.046 A 
ENDBRANCH  15  18
ENDBRANCH  12   6
ENDBRANCH  10  12
TORSDOF 7
ENDMDL
MODEL 10
REMARK VINA RESULT:      -5.8     27.579     29.813
REMARK  Name = 75536819
REMARK  7 active torsions:
REMARK  status: ('A' for Active; 'I' for Inactive)
REMARK    1  A    between atoms: O_3  and  C_9
REMARK    2  A    between atoms: N_5  and  C_8
REMARK    3  A    between atoms: N_5  and  C_13
REMARK    4  A    between atoms: N_6  and  C_12
REMARK    5  A    between atoms: C_10  and  C_12
REMARK    6  A    between atoms: C_13  and  C_14
REMARK    7  A    between atoms: C_15  and  C_18
REMARK                            x       y       z     vdW  Elec       q    Type
REMARK                         _______ _______ _______ _____ _____    ______ ____
ROOT
ATOM      2  O   UNL     1     -11.244  -8.128  14.773  0.00  0.00    -0.371 OA
ATOM      8  C   UNL     1      -9.321  -8.939  15.909  0.00  0.00    +0.111 C 
ATOM      9  C   UNL     1      -9.727  -7.607  16.511  0.00  0.00    +0.164 C 
ATOM     10  C   UNL     1     -11.183  -7.517  16.073  0.00  0.00    +0.165 C 
ATOM     11  C   UNL     1     -10.045  -8.897  14.572  0.00  0.00    +0.181 C 
ENDROOT
BRANCH   9   3
ATOM      3  O   UNL     1      -9.598  -7.584  17.920  0.00  0.00    -0.388 OA
ATOM     25  H   UNL     1     -10.211  -8.240  18.294  0.00  0.00    +0.210 HD
ENDBRANCH   9   3
BRANCH   8   5
ATOM      5  N   UNL     1      -7.884  -9.103  15.769  0.00  0.00    -0.305 NA
ATOM     24  H   UNL     1      -7.466  -8.201  15.538  0.00  0.00    +0.123 HD
BRANCH   5  13
ATOM     13  C   UNL     1      -7.288  -9.595  17.006  0.00  0.00    +0.116 C 
BRANCH  13  14
ATOM      7  N   UNL     1      -3.380 -11.266  16.348  0.00  0.00    -0.263 NA
ATOM     14  C   UNL     1      -5.920 -10.179  16.776  0.00  0.00    -0.031 A 
ATOM     16  C   UNL     1      -5.352 -10.147  15.508  0.00  0.00    +0.024 A 
ATOM     17  C   UNL     1      -5.220 -10.754  17.831  0.00  0.00    +0.024 A 
ATOM     19  C   UNL     1      -4.090 -10.698  15.348  0.00  0.00    +0.111 A 
ATOM     20  C   UNL     1      -3.965 -11.279  17.568  0.00  0.00    +0.111 A 
ENDBRANCH  13  14
ENDBRANCH   5  13
ENDBRANCH   8   5
BRANCH  10  12
ATOM     12  C   UNL     1     -11.699  -6.092  15.996  0.00  0.00    +0.138 C 
BRANCH  12   6
ATOM      4  O   UNL     1     -13.864  -5.461  14.219  0.00  0.00    -0.270 OA
ATOM      6  N   UNL     1     -11.590  -5.570  14.664  0.00  0.00    -0.308 N 
ATOM     15  C   UNL     1     -12.699  -5.292  13.871  0.00  0.00    +0.251 C 
ATOM     26  H   UNL     1     -10.654  -5.418  14.304  0.00  0.00    +0.149 HD
BRANCH  15  18
ATOM      1  S   UNL     1     -12.386  -5.880  11.192  0.00  0.00    -0.092 S 
ATOM     18  C   UNL     1     -12.416  -4.780  12.504  0.00  0.00    +0.074 A 
ATOM     21  C   UNL     1     -12.161  -3.487  12.102  0.00  0.00    +0.021 A 
ATOM     22  C   UNL     1     -11.938  -3.399  10.698  0.00  0.00    +0.008 A 
ATOM     23  C   UNL     1     -12.031  -4.627  10.080  0.00  0.00    +0.046 A 
ENDBRANCH  15  18
ENDBRANCH  12   6
ENDBRANCH  10  12
TORSDOF 7
ENDMDL
