MODEL 1
REMARK VINA RESULT:      -6.8      0.000      0.000
REMARK  Name = 28960503
REMARK  7 active torsions:
REMARK  status: ('A' for Active; 'I' for Inactive)
REMARK    1  A    between atoms: O_3  and  C_9
REMARK    2  A    between atoms: N_5  and  C_8
REMARK    3  A    between atoms: N_6  and  C_10
REMARK    4  A    between atoms: N_6  and  C_19
REMARK    5  A    between atoms: C_18  and  C_20
REMARK    6  A    between atoms: C_19  and  C_21
REMARK    7  A    between atoms: C_26  and  C_27
REMARK                            x       y       z     vdW  Elec       q    Type
REMARK                         _______ _______ _______ _____ _____    ______ ____
ROOT
ATOM      1  O   UNL     1     -11.412 -12.632  18.302  0.00  0.00    -0.343 OA
ATOM      2  O   UNL     1     -12.609 -11.042  19.494  0.00  0.00    -0.347 OA
ATOM      8  C   UNL     1     -10.547 -10.382  18.420  0.00  0.00    +0.143 C 
ATOM      9  C   UNL     1      -9.744 -10.741  19.692  0.00  0.00    +0.156 C 
ATOM     10  C   UNL     1      -9.821 -12.238  20.080  0.00  0.00    +0.116 C 
ATOM     11  C   UNL     1     -11.811 -11.255  18.318  0.00  0.00    +0.270 C 
ATOM     12  C   UNL     1     -11.172 -12.882  19.691  0.00  0.00    +0.166 C 
ATOM     13  C   UNL     1     -12.383 -12.204  20.306  0.00  0.00    +0.196 C 
ENDROOT
BRANCH   8   5
ATOM      5  N   UNL     1      -9.722 -10.552  17.222  0.00  0.00    -0.293 NA
ATOM     14  C   UNL     1     -10.517 -10.300  16.012  0.00  0.00    +0.085 C 
ATOM     15  C   UNL     1      -8.547  -9.673  17.278  0.00  0.00    +0.085 C 
ATOM     16  C   UNL     1      -9.685 -10.529  14.749  0.00  0.00    +0.028 C 
ATOM     17  C   UNL     1      -7.647  -9.879  16.058  0.00  0.00    +0.028 C 
ATOM     18  C   UNL     1      -8.420  -9.673  14.757  0.00  0.00    +0.077 C 
BRANCH  18  20
ATOM      4  O   UNL     1      -7.316 -11.192  13.281  0.00  0.00    -0.276 OA
ATOM      7  N   UNL     1      -7.030  -8.936  12.937  0.00  0.00    -0.329 N 
ATOM     20  C   UNL     1      -7.548 -10.027  13.592  0.00  0.00    +0.214 C 
ATOM     35  H   UNL     1      -7.227  -7.982  13.223  0.00  0.00    +0.145 HD
ATOM     36  H   UNL     1      -6.419  -9.052  12.134  0.00  0.00    +0.145 HD
ENDBRANCH  18  20
ENDBRANCH   8   5
BRANCH   9   3
ATOM      3  O   UNL     1     -10.276  -9.962  20.773  0.00  0.00    -0.388 OA
ATOM     34  H   UNL     1      -9.610  -9.292  21.007  0.00  0.00    +0.210 HD
ENDBRANCH   9   3
BRANCH  10   6
ATOM      6  N   UNL     1      -8.749 -12.995  19.426  0.00  0.00    -0.305 NA
ATOM     33  H   UNL     1      -8.747 -12.792  18.426  0.00  0.00    +0.123 HD
BRANCH   6  19
ATOM     19  C   UNL     1      -7.461 -12.661  20.008  0.00  0.00    +0.116 C 
BRANCH  19  21
ATOM     21  C   UNL     1      -6.463 -12.242  18.961  0.00  0.00    -0.034 A 
ATOM     22  C   UNL     1      -6.366 -12.954  17.765  0.00  0.00    +0.005 A 
ATOM     23  C   UNL     1      -5.637 -11.140  19.186  0.00  0.00    +0.005 A 
ATOM     24  C   UNL     1      -5.442 -12.566  16.795  0.00  0.00    +0.009 A 
ATOM     25  C   UNL     1      -4.714 -10.752  18.215  0.00  0.00    +0.009 A 
ATOM     26  C   UNL     1      -4.616 -11.465  17.020  0.00  0.00    -0.018 A 
BRANCH  26  27
ATOM     27  C   UNL     1      -3.657 -11.062  16.014  0.00  0.00    -0.018 A 
ATOM     28  C   UNL     1      -2.351 -10.739  16.385  0.00  0.00    +0.008 A 
ATOM     29  C   UNL     1      -4.037 -10.997  14.673  0.00  0.00    +0.008 A 
ATOM     30  C   UNL     1      -1.428 -10.351  15.414  0.00  0.00    +0.001 A 
ATOM     31  C   UNL     1      -3.113 -10.610  13.703  0.00  0.00    +0.001 A 
ATOM     32  C   UNL     1      -1.807 -10.287  14.075  0.00  0.00    +0.000 A 
ENDBRANCH  26  27
ENDBRANCH  19  21
ENDBRANCH   6  19
ENDBRANCH  10   6
TORSDOF 7
ENDMDL
MODEL 2
REMARK VINA RESULT:      -6.6     28.910     33.131
REMARK  Name = 28960503
REMARK  7 active torsions:
REMARK  status: ('A' for Active; 'I' for Inactive)
REMARK    1  A    between atoms: O_3  and  C_9
REMARK    2  A    between atoms: N_5  and  C_8
REMARK    3  A    between atoms: N_6  and  C_10
REMARK    4  A    between atoms: N_6  and  C_19
REMARK    5  A    between atoms: C_18  and  C_20
REMARK    6  A    between atoms: C_19  and  C_21
REMARK    7  A    between atoms: C_26  and  C_27
REMARK                            x       y       z     vdW  Elec       q    Type
REMARK                         _______ _______ _______ _____ _____    ______ ____
ROOT
ATOM      1  O   UNL     1      22.187   8.407  21.204  0.00  0.00    -0.343 OA
ATOM      2  O   UNL     1      21.886   9.132  23.387  0.00  0.00    -0.347 OA
ATOM      8  C   UNL     1      21.893   6.756  22.941  0.00  0.00    +0.143 C 
ATOM      9  C   UNL     1      20.363   6.772  22.717  0.00  0.00    +0.156 C 
ATOM     10  C   UNL     1      19.912   7.653  21.527  0.00  0.00    +0.116 C 
ATOM     11  C   UNL     1      22.504   8.121  22.573  0.00  0.00    +0.270 C 
ATOM     12  C   UNL     1      20.837   8.872  21.308  0.00  0.00    +0.166 C 
ATOM     13  C   UNL     1      20.954   9.787  22.514  0.00  0.00    +0.196 C 
ENDROOT
BRANCH   8   5
ATOM      5  N   UNL     1      22.521   5.697  22.149  0.00  0.00    -0.293 NA
ATOM     14  C   UNL     1      23.930   5.535  22.534  0.00  0.00    +0.085 C 
ATOM     15  C   UNL     1      21.782   4.436  22.299  0.00  0.00    +0.085 C 
ATOM     16  C   UNL     1      24.617   4.471  21.676  0.00  0.00    +0.028 C 
ATOM     17  C   UNL     1      22.394   3.332  21.435  0.00  0.00    +0.028 C 
ATOM     18  C   UNL     1      23.876   3.137  21.752  0.00  0.00    +0.077 C 
BRANCH  18  20
ATOM      4  O   UNL     1      24.969   1.098  21.159  0.00  0.00    -0.276 OA
ATOM      7  N   UNL     1      24.424   2.571  19.478  0.00  0.00    -0.329 N 
ATOM     20  C   UNL     1      24.472   2.158  20.788  0.00  0.00    +0.214 C 
ATOM     35  H   UNL     1      24.018   3.460  19.200  0.00  0.00    +0.145 HD
ATOM     36  H   UNL     1      24.803   1.992  18.736  0.00  0.00    +0.145 HD
ENDBRANCH  18  20
ENDBRANCH   8   5
BRANCH   9   3
ATOM      3  O   UNL     1      19.756   7.278  23.915  0.00  0.00    -0.388 OA
ATOM     34  H   UNL     1      18.975   6.730  24.103  0.00  0.00    +0.210 HD
ENDBRANCH   9   3
BRANCH  10   6
ATOM      6  N   UNL     1      19.889   6.869  20.287  0.00  0.00    -0.305 NA
ATOM     33  H   UNL     1      20.828   6.531  20.078  0.00  0.00    +0.123 HD
BRANCH   6  19
ATOM     19  C   UNL     1      18.968   5.752  20.407  0.00  0.00    +0.116 C 
BRANCH  19  21
ATOM     21  C   UNL     1      17.532   6.202  20.364  0.00  0.00    -0.034 A 
ATOM     22  C   UNL     1      16.864   6.288  19.142  0.00  0.00    +0.005 A 
ATOM     23  C   UNL     1      16.868   6.532  21.546  0.00  0.00    +0.005 A 
ATOM     24  C   UNL     1      15.534   6.706  19.102  0.00  0.00    +0.009 A 
ATOM     25  C   UNL     1      15.538   6.949  21.505  0.00  0.00    +0.009 A 
ATOM     26  C   UNL     1      14.871   7.036  20.283  0.00  0.00    -0.018 A 
BRANCH  26  27
ATOM     27  C   UNL     1      13.490   7.469  20.242  0.00  0.00    -0.018 A 
ATOM     28  C   UNL     1      12.625   7.140  21.285  0.00  0.00    +0.008 A 
ATOM     29  C   UNL     1      13.025   8.218  19.160  0.00  0.00    +0.008 A 
ATOM     30  C   UNL     1      11.295   7.558  21.246  0.00  0.00    +0.001 A 
ATOM     31  C   UNL     1      11.696   8.637  19.121  0.00  0.00    +0.001 A 
ATOM     32  C   UNL     1      10.831   8.307  20.165  0.00  0.00    +0.000 A 
ENDBRANCH  26  27
ENDBRANCH  19  21
ENDBRANCH   6  19
ENDBRANCH  10   6
TORSDOF 7
ENDMDL
MODEL 3
REMARK VINA RESULT:      -6.4      2.284      3.088
REMARK  Name = 28960503
REMARK  7 active torsions:
REMARK  status: ('A' for Active; 'I' for Inactive)
REMARK    1  A    between atoms: O_3  and  C_9
REMARK    2  A    between atoms: N_5  and  C_8
REMARK    3  A    between atoms: N_6  and  C_10
REMARK    4  A    between atoms: N_6  and  C_19
REMARK    5  A    between atoms: C_18  and  C_20
REMARK    6  A    between atoms: C_19  and  C_21
REMARK    7  A    between atoms: C_26  and  C_27
REMARK                            x       y       z     vdW  Elec       q    Type
REMARK                         _______ _______ _______ _____ _____    ______ ____
ROOT
ATOM      1  O   UNL     1      -8.886 -12.420  17.431  0.00  0.00    -0.343 OA
ATOM      2  O   UNL     1     -10.417 -13.694  18.619  0.00  0.00    -0.347 OA
ATOM      8  C   UNL     1     -10.829 -11.327  18.356  0.00  0.00    +0.143 C 
ATOM      9  C   UNL     1     -10.056 -11.026  19.661  0.00  0.00    +0.156 C 
ATOM     10  C   UNL     1      -8.563 -11.432  19.614  0.00  0.00    +0.116 C 
ATOM     11  C   UNL     1     -10.284 -12.605  17.691  0.00  0.00    +0.270 C 
ATOM     12  C   UNL     1      -8.313 -12.668  18.719  0.00  0.00    +0.166 C 
ATOM     13  C   UNL     1      -9.094 -13.903  19.133  0.00  0.00    +0.196 C 
ENDROOT
BRANCH   8   5
ATOM      5  N   UNL     1     -10.735 -10.200  17.427  0.00  0.00    -0.293 NA
ATOM     14  C   UNL     1     -11.776 -10.298  16.394  0.00  0.00    +0.085 C 
ATOM     15  C   UNL     1     -10.826  -8.926  18.152  0.00  0.00    +0.085 C 
ATOM     16  C   UNL     1     -11.656  -9.158  15.381  0.00  0.00    +0.028 C 
ATOM     17  C   UNL     1     -10.675  -7.737  17.201  0.00  0.00    +0.028 C 
ATOM     18  C   UNL     1     -11.702  -7.796  16.073  0.00  0.00    +0.077 C 
BRANCH  18  20
ATOM      4  O   UNL     1     -11.968  -6.671  13.983  0.00  0.00    -0.276 OA
ATOM      7  N   UNL     1     -10.514  -5.777  15.525  0.00  0.00    -0.329 N 
ATOM     20  C   UNL     1     -11.428  -6.704  15.085  0.00  0.00    +0.214 C 
ATOM     35  H   UNL     1     -10.072  -5.835  16.437  0.00  0.00    +0.145 HD
ATOM     36  H   UNL     1     -10.244  -4.993  14.939  0.00  0.00    +0.145 HD
ENDBRANCH  18  20
ENDBRANCH   8   5
BRANCH   9   3
ATOM      3  O   UNL     1     -10.694 -11.755  20.720  0.00  0.00    -0.388 OA
ATOM     34  H   UNL     1     -11.457 -11.231  21.019  0.00  0.00    +0.210 HD
ENDBRANCH   9   3
BRANCH  10   6
ATOM      6  N   UNL     1      -7.745 -10.327  19.104  0.00  0.00    -0.305 NA
ATOM     33  H   UNL     1      -7.949  -9.479  19.632  0.00  0.00    +0.123 HD
BRANCH   6  19
ATOM     19  C   UNL     1      -6.332 -10.651  19.200  0.00  0.00    +0.116 C 
BRANCH  19  21
ATOM     21  C   UNL     1      -5.657 -10.618  17.855  0.00  0.00    -0.034 A 
ATOM     22  C   UNL     1      -6.260  -9.954  16.787  0.00  0.00    +0.005 A 
ATOM     23  C   UNL     1      -4.426 -11.251  17.677  0.00  0.00    +0.005 A 
ATOM     24  C   UNL     1      -5.635  -9.924  15.541  0.00  0.00    +0.009 A 
ATOM     25  C   UNL     1      -3.800 -11.220  16.431  0.00  0.00    +0.009 A 
ATOM     26  C   UNL     1      -4.405 -10.557  15.363  0.00  0.00    -0.018 A 
BRANCH  26  27
ATOM     27  C   UNL     1      -3.755 -10.526  14.070  0.00  0.00    -0.018 A 
ATOM     28  C   UNL     1      -4.521 -10.502  12.904  0.00  0.00    +0.008 A 
ATOM     29  C   UNL     1      -2.362 -10.517  13.989  0.00  0.00    +0.008 A 
ATOM     30  C   UNL     1      -3.894 -10.471  11.659  0.00  0.00    +0.001 A 
ATOM     31  C   UNL     1      -1.735 -10.485  12.744  0.00  0.00    +0.001 A 
ATOM     32  C   UNL     1      -2.503 -10.462  11.578  0.00  0.00    +0.000 A 
ENDBRANCH  26  27
ENDBRANCH  19  21
ENDBRANCH   6  19
ENDBRANCH  10   6
TORSDOF 7
ENDMDL
MODEL 4
REMARK VINA RESULT:      -6.3     18.089     19.265
REMARK  Name = 28960503
REMARK  7 active torsions:
REMARK  status: ('A' for Active; 'I' for Inactive)
REMARK    1  A    between atoms: O_3  and  C_9
REMARK    2  A    between atoms: N_5  and  C_8
REMARK    3  A    between atoms: N_6  and  C_10
REMARK    4  A    between atoms: N_6  and  C_19
REMARK    5  A    between atoms: C_18  and  C_20
REMARK    6  A    between atoms: C_19  and  C_21
REMARK    7  A    between atoms: C_26  and  C_27
REMARK                            x       y       z     vdW  Elec       q    Type
REMARK                         _______ _______ _______ _____ _____    ______ ____
ROOT
ATOM      1  O   UNL     1     -16.447   2.401  23.222  0.00  0.00    -0.343 OA
ATOM      2  O   UNL     1     -18.301   2.217  24.604  0.00  0.00    -0.347 OA
ATOM      8  C   UNL     1     -18.200   4.050  23.032  0.00  0.00    +0.143 C 
ATOM      9  C   UNL     1     -17.496   4.940  24.082  0.00  0.00    +0.156 C 
ATOM     10  C   UNL     1     -16.118   4.402  24.538  0.00  0.00    +0.116 C 
ATOM     11  C   UNL     1     -17.870   2.566  23.278  0.00  0.00    +0.270 C 
ATOM     12  C   UNL     1     -16.049   2.858  24.519  0.00  0.00    +0.166 C 
ATOM     13  C   UNL     1     -17.096   2.178  25.383  0.00  0.00    +0.196 C 
ENDROOT
BRANCH   8   5
ATOM      5  N   UNL     1     -17.800   4.433  21.677  0.00  0.00    -0.293 NA
ATOM     14  C   UNL     1     -18.516   3.621  20.681  0.00  0.00    +0.085 C 
ATOM     15  C   UNL     1     -18.032   5.867  21.458  0.00  0.00    +0.085 C 
ATOM     16  C   UNL     1     -18.068   3.971  19.261  0.00  0.00    +0.028 C 
ATOM     17  C   UNL     1     -17.569   6.294  20.064  0.00  0.00    +0.028 C 
ATOM     18  C   UNL     1     -18.244   5.461  18.976  0.00  0.00    +0.077 C 
BRANCH  18  20
ATOM      4  O   UNL     1     -17.275   6.941  17.371  0.00  0.00    -0.276 OA
ATOM      7  N   UNL     1     -17.610   4.746  16.767  0.00  0.00    -0.329 N 
ATOM     20  C   UNL     1     -17.657   5.806  17.642  0.00  0.00    +0.214 C 
ATOM     35  H   UNL     1     -17.945   3.820  17.012  0.00  0.00    +0.145 HD
ATOM     36  H   UNL     1     -17.237   4.861  15.830  0.00  0.00    +0.145 HD
ENDBRANCH  18  20
ENDBRANCH   8   5
BRANCH   9   3
ATOM      3  O   UNL     1     -18.357   5.020  25.228  0.00  0.00    -0.388 OA
ATOM     34  H   UNL     1     -19.263   4.838  24.927  0.00  0.00    +0.210 HD
ENDBRANCH   9   3
BRANCH  10   6
ATOM      6  N   UNL     1     -15.053   4.918  23.672  0.00  0.00    -0.305 NA
ATOM     33  H   UNL     1     -15.080   4.439  22.773  0.00  0.00    +0.123 HD
BRANCH   6  19
ATOM     19  C   UNL     1     -15.199   6.351  23.482  0.00  0.00    +0.116 C 
BRANCH  19  21
ATOM     21  C   UNL     1     -14.264   6.874  22.424  0.00  0.00    -0.034 A 
ATOM     22  C   UNL     1     -13.329   6.023  21.835  0.00  0.00    +0.005 A 
ATOM     23  C   UNL     1     -14.335   8.211  22.031  0.00  0.00    +0.005 A 
ATOM     24  C   UNL     1     -12.464   6.508  20.855  0.00  0.00    +0.009 A 
ATOM     25  C   UNL     1     -13.470   8.696  21.050  0.00  0.00    +0.009 A 
ATOM     26  C   UNL     1     -12.534   7.844  20.462  0.00  0.00    -0.018 A 
BRANCH  26  27
ATOM     27  C   UNL     1     -11.636   8.348  19.445  0.00  0.00    -0.018 A 
ATOM     28  C   UNL     1     -11.010   9.583  19.617  0.00  0.00    +0.008 A 
ATOM     29  C   UNL     1     -11.395   7.598  18.293  0.00  0.00    +0.008 A 
ATOM     30  C   UNL     1     -10.144  10.067  18.636  0.00  0.00    +0.001 A 
ATOM     31  C   UNL     1     -10.528   8.082  17.314  0.00  0.00    +0.001 A 
ATOM     32  C   UNL     1      -9.903   9.318  17.486  0.00  0.00    +0.000 A 
ENDBRANCH  26  27
ENDBRANCH  19  21
ENDBRANCH   6  19
ENDBRANCH  10   6
TORSDOF 7
ENDMDL
MODEL 5
REMARK VINA RESULT:      -6.2     19.245     20.861
REMARK  Name = 28960503
REMARK  7 active torsions:
REMARK  status: ('A' for Active; 'I' for Inactive)
REMARK    1  A    between atoms: O_3  and  C_9
REMARK    2  A    between atoms: N_5  and  C_8
REMARK    3  A    between atoms: N_6  and  C_10
REMARK    4  A    between atoms: N_6  and  C_19
REMARK    5  A    between atoms: C_18  and  C_20
REMARK    6  A    between atoms: C_19  and  C_21
REMARK    7  A    between atoms: C_26  and  C_27
REMARK                            x       y       z     vdW  Elec       q    Type
REMARK                         _______ _______ _______ _____ _____    ______ ____
ROOT
ATOM      1  O   UNL     1     -17.947   6.438  21.672  0.00  0.00    -0.343 OA
ATOM      2  O   UNL     1     -18.887   6.293  23.787  0.00  0.00    -0.347 OA
ATOM      8  C   UNL     1     -16.716   7.328  23.548  0.00  0.00    +0.143 C 
ATOM      9  C   UNL     1     -16.019   5.964  23.757  0.00  0.00    +0.156 C 
ATOM     10  C   UNL     1     -16.358   4.913  22.671  0.00  0.00    +0.116 C 
ATOM     11  C   UNL     1     -18.107   7.129  22.917  0.00  0.00    +0.270 C 
ATOM     12  C   UNL     1     -17.788   5.083  22.108  0.00  0.00    +0.166 C 
ATOM     13  C   UNL     1     -18.882   5.003  23.157  0.00  0.00    +0.196 C 
ENDROOT
BRANCH   8   5
ATOM      5  N   UNL     1     -15.902   8.201  22.700  0.00  0.00    -0.293 NA
ATOM     14  C   UNL     1     -16.724   9.282  22.137  0.00  0.00    +0.085 C 
ATOM     15  C   UNL     1     -14.765   8.740  23.459  0.00  0.00    +0.085 C 
ATOM     16  C   UNL     1     -15.901  10.171  21.204  0.00  0.00    +0.028 C 
ATOM     17  C   UNL     1     -13.874   9.612  22.572  0.00  0.00    +0.028 C 
ATOM     18  C   UNL     1     -14.675  10.736  21.917  0.00  0.00    +0.077 C 
BRANCH  18  20
ATOM      4  O   UNL     1     -14.058  11.516  19.746  0.00  0.00    -0.276 OA
ATOM      7  N   UNL     1     -12.707  12.065  21.525  0.00  0.00    -0.329 N 
ATOM     20  C   UNL     1     -13.804  11.473  20.946  0.00  0.00    +0.214 C 
ATOM     35  H   UNL     1     -12.513  12.003  22.520  0.00  0.00    +0.145 HD
ATOM     36  H   UNL     1     -12.041  12.588  20.964  0.00  0.00    +0.145 HD
ENDBRANCH  18  20
ENDBRANCH   8   5
BRANCH   9   3
ATOM      3  O   UNL     1     -16.438   5.454  25.031  0.00  0.00    -0.388 OA
ATOM     34  H   UNL     1     -16.122   4.537  25.099  0.00  0.00    +0.210 HD
ENDBRANCH   9   3
BRANCH  10   6
ATOM      6  N   UNL     1     -15.413   5.005  21.553  0.00  0.00    -0.305 NA
ATOM     33  H   UNL     1     -15.727   5.721  20.898  0.00  0.00    +0.123 HD
BRANCH   6  19
ATOM     19  C   UNL     1     -14.079   5.317  22.037  0.00  0.00    +0.116 C 
BRANCH  19  21
ATOM     21  C   UNL     1     -13.354   6.261  21.115  0.00  0.00    -0.034 A 
ATOM     22  C   UNL     1     -14.066   6.987  20.159  0.00  0.00    +0.005 A 
ATOM     23  C   UNL     1     -11.971   6.411  21.217  0.00  0.00    +0.005 A 
ATOM     24  C   UNL     1     -13.395   7.861  19.305  0.00  0.00    +0.009 A 
ATOM     25  C   UNL     1     -11.300   7.286  20.363  0.00  0.00    +0.009 A 
ATOM     26  C   UNL     1     -12.012   8.011  19.406  0.00  0.00    -0.018 A 
BRANCH  26  27
ATOM     27  C   UNL     1     -11.314   8.918  18.519  0.00  0.00    -0.018 A 
ATOM     28  C   UNL     1     -11.133   8.580  17.178  0.00  0.00    +0.008 A 
ATOM     29  C   UNL     1     -10.825  10.130  19.006  0.00  0.00    +0.008 A 
ATOM     30  C   UNL     1     -10.462   9.456  16.324  0.00  0.00    +0.001 A 
ATOM     31  C   UNL     1     -10.155  11.005  18.152  0.00  0.00    +0.001 A 
ATOM     32  C   UNL     1      -9.973  10.667  16.810  0.00  0.00    +0.000 A 
ENDBRANCH  26  27
ENDBRANCH  19  21
ENDBRANCH   6  19
ENDBRANCH  10   6
TORSDOF 7
ENDMDL
MODEL 6
REMARK VINA RESULT:      -6.2     26.864     30.801
REMARK  Name = 28960503
REMARK  7 active torsions:
REMARK  status: ('A' for Active; 'I' for Inactive)
REMARK    1  A    between atoms: O_3  and  C_9
REMARK    2  A    between atoms: N_5  and  C_8
REMARK    3  A    between atoms: N_6  and  C_10
REMARK    4  A    between atoms: N_6  and  C_19
REMARK    5  A    between atoms: C_18  and  C_20
REMARK    6  A    between atoms: C_19  and  C_21
REMARK    7  A    between atoms: C_26  and  C_27
REMARK                            x       y       z     vdW  Elec       q    Type
REMARK                         _______ _______ _______ _____ _____    ______ ____
ROOT
ATOM      1  O   UNL     1      10.456   5.624   6.845  0.00  0.00    -0.343 OA
ATOM      2  O   UNL     1       8.424   6.690   6.506  0.00  0.00    -0.347 OA
ATOM      8  C   UNL     1      10.036   6.659   4.705  0.00  0.00    +0.143 C 
ATOM      9  C   UNL     1      10.655   7.983   5.208  0.00  0.00    +0.156 C 
ATOM     10  C   UNL     1      11.268   7.891   6.626  0.00  0.00    +0.116 C 
ATOM     11  C   UNL     1       9.426   5.871   5.879  0.00  0.00    +0.270 C 
ATOM     12  C   UNL     1      10.524   6.880   7.529  0.00  0.00    +0.166 C 
ATOM     13  C   UNL     1       9.045   7.176   7.705  0.00  0.00    +0.196 C 
ENDROOT
BRANCH   8   5
ATOM      5  N   UNL     1      11.043   5.842   4.024  0.00  0.00    -0.293 NA
ATOM     14  C   UNL     1      10.407   4.706   3.342  0.00  0.00    +0.085 C 
ATOM     15  C   UNL     1      11.817   6.661   3.082  0.00  0.00    +0.085 C 
ATOM     16  C   UNL     1      11.451   3.811   2.672  0.00  0.00    +0.028 C 
ATOM     17  C   UNL     1      12.910   5.834   2.402  0.00  0.00    +0.028 C 
ATOM     18  C   UNL     1      12.323   4.608   1.704  0.00  0.00    +0.077 C 
BRANCH  18  20
ATOM      4  O   UNL     1      13.380   3.217   0.075  0.00  0.00    -0.276 OA
ATOM      7  N   UNL     1      14.482   3.605   2.056  0.00  0.00    -0.329 N 
ATOM     20  C   UNL     1      13.433   3.749   1.180  0.00  0.00    +0.214 C 
ATOM     35  H   UNL     1      14.495   4.045   2.971  0.00  0.00    +0.145 HD
ATOM     36  H   UNL     1      15.290   3.040   1.813  0.00  0.00    +0.145 HD
ENDBRANCH  18  20
ENDBRANCH   8   5
BRANCH   9   3
ATOM      3  O   UNL     1       9.612   8.969   5.225  0.00  0.00    -0.388 OA
ATOM     34  H   UNL     1       9.511   9.273   6.143  0.00  0.00    +0.210 HD
ENDBRANCH   9   3
BRANCH  10   6
ATOM      6  N   UNL     1      12.676   7.487   6.553  0.00  0.00    -0.305 NA
ATOM     33  H   UNL     1      12.854   7.027   5.660  0.00  0.00    +0.123 HD
BRANCH   6  19
ATOM     19  C   UNL     1      13.546   8.641   6.705  0.00  0.00    +0.116 C 
BRANCH  19  21
ATOM     21  C   UNL     1      14.827   8.484   5.930  0.00  0.00    -0.034 A 
ATOM     22  C   UNL     1      15.926   9.290   6.226  0.00  0.00    +0.005 A 
ATOM     23  C   UNL     1      14.915   7.531   4.914  0.00  0.00    +0.005 A 
ATOM     24  C   UNL     1      17.112   9.145   5.508  0.00  0.00    +0.009 A 
ATOM     25  C   UNL     1      16.102   7.385   4.196  0.00  0.00    +0.009 A 
ATOM     26  C   UNL     1      17.200   8.193   4.493  0.00  0.00    -0.018 A 
BRANCH  26  27
ATOM     27  C   UNL     1      18.431   8.042   3.746  0.00  0.00    -0.018 A 
ATOM     28  C   UNL     1      18.460   8.333   2.382  0.00  0.00    +0.008 A 
ATOM     29  C   UNL     1      19.590   7.607   4.391  0.00  0.00    +0.008 A 
ATOM     30  C   UNL     1      19.647   8.188   1.664  0.00  0.00    +0.001 A 
ATOM     31  C   UNL     1      20.776   7.463   3.673  0.00  0.00    +0.001 A 
ATOM     32  C   UNL     1      20.804   7.753   2.308  0.00  0.00    +0.000 A 
ENDBRANCH  26  27
ENDBRANCH  19  21
ENDBRANCH   6  19
ENDBRANCH  10   6
TORSDOF 7
ENDMDL
MODEL 7
REMARK VINA RESULT:      -6.1      4.659      8.575
REMARK  Name = 28960503
REMARK  7 active torsions:
REMARK  status: ('A' for Active; 'I' for Inactive)
REMARK    1  A    between atoms: O_3  and  C_9
REMARK    2  A    between atoms: N_5  and  C_8
REMARK    3  A    between atoms: N_6  and  C_10
REMARK    4  A    between atoms: N_6  and  C_19
REMARK    5  A    between atoms: C_18  and  C_20
REMARK    6  A    between atoms: C_19  and  C_21
REMARK    7  A    between atoms: C_26  and  C_27
REMARK                            x       y       z     vdW  Elec       q    Type
REMARK                         _______ _______ _______ _____ _____    ______ ____
ROOT
ATOM      1  O   UNL     1      -5.607 -12.195   9.086  0.00  0.00    -0.343 OA
ATOM      2  O   UNL     1      -4.798 -11.014   7.261  0.00  0.00    -0.347 OA
ATOM      8  C   UNL     1      -4.138 -10.320   9.480  0.00  0.00    +0.143 C 
ATOM      9  C   UNL     1      -5.352  -9.367   9.567  0.00  0.00    +0.156 C 
ATOM     10  C   UNL     1      -6.720 -10.088   9.494  0.00  0.00    +0.116 C 
ATOM     11  C   UNL     1      -4.457 -11.516   8.564  0.00  0.00    +0.270 C 
ATOM     12  C   UNL     1      -6.674 -11.362   8.620  0.00  0.00    +0.166 C 
ATOM     13  C   UNL     1      -6.227 -11.119   7.190  0.00  0.00    +0.196 C 
ENDROOT
BRANCH   8   5
ATOM      5  N   UNL     1      -3.757 -10.797  10.811  0.00  0.00    -0.293 NA
ATOM     14  C   UNL     1      -3.458 -12.236  10.775  0.00  0.00    +0.085 C 
ATOM     15  C   UNL     1      -2.614 -10.030  11.324  0.00  0.00    +0.085 C 
ATOM     16  C   UNL     1      -3.113 -12.761  12.169  0.00  0.00    +0.028 C 
ATOM     17  C   UNL     1      -2.239 -10.480  12.737  0.00  0.00    +0.028 C 
ATOM     18  C   UNL     1      -1.954 -11.980  12.784  0.00  0.00    +0.077 C 
BRANCH  18  20
ATOM      4  O   UNL     1      -1.226 -11.663  15.037  0.00  0.00    -0.276 OA
ATOM      7  N   UNL     1      -2.142 -13.694  14.463  0.00  0.00    -0.329 N 
ATOM     20  C   UNL     1      -1.737 -12.406  14.204  0.00  0.00    +0.214 C 
ATOM     35  H   UNL     1      -2.549 -14.293  13.751  0.00  0.00    +0.145 HD
ATOM     36  H   UNL     1      -2.039 -14.095  15.390  0.00  0.00    +0.145 HD
ENDBRANCH  18  20
ENDBRANCH   8   5
BRANCH   9   3
ATOM      3  O   UNL     1      -5.261  -8.449   8.467  0.00  0.00    -0.388 OA
ATOM     34  H   UNL     1      -5.950  -8.691   7.825  0.00  0.00    +0.210 HD
ENDBRANCH   9   3
BRANCH  10   6
ATOM      6  N   UNL     1      -7.172 -10.470  10.836  0.00  0.00    -0.305 NA
ATOM     33  H   UNL     1      -6.532 -11.160  11.229  0.00  0.00    +0.123 HD
BRANCH   6  19
ATOM     19  C   UNL     1      -7.247  -9.305  11.700  0.00  0.00    +0.116 C 
BRANCH  19  21
ATOM     21  C   UNL     1      -6.962  -9.653  13.137  0.00  0.00    -0.034 A 
ATOM     22  C   UNL     1      -8.003  -9.693  14.065  0.00  0.00    +0.005 A 
ATOM     23  C   UNL     1      -5.657  -9.937  13.540  0.00  0.00    +0.005 A 
ATOM     24  C   UNL     1      -7.739 -10.016  15.396  0.00  0.00    +0.009 A 
ATOM     25  C   UNL     1      -5.393 -10.260  14.871  0.00  0.00    +0.009 A 
ATOM     26  C   UNL     1      -6.434 -10.298  15.799  0.00  0.00    -0.018 A 
BRANCH  26  27
ATOM     27  C   UNL     1      -6.159 -10.633  17.181  0.00  0.00    -0.018 A 
ATOM     28  C   UNL     1      -7.135 -10.425  18.156  0.00  0.00    +0.008 A 
ATOM     29  C   UNL     1      -4.919 -11.165  17.536  0.00  0.00    +0.008 A 
ATOM     30  C   UNL     1      -6.869 -10.749  19.486  0.00  0.00    +0.001 A 
ATOM     31  C   UNL     1      -4.655 -11.489  18.866  0.00  0.00    +0.001 A 
ATOM     32  C   UNL     1      -5.631 -11.281  19.842  0.00  0.00    +0.000 A 
ENDBRANCH  26  27
ENDBRANCH  19  21
ENDBRANCH   6  19
ENDBRANCH  10   6
TORSDOF 7
ENDMDL
MODEL 8
REMARK VINA RESULT:      -5.9      2.589      4.635
REMARK  Name = 28960503
REMARK  7 active torsions:
REMARK  status: ('A' for Active; 'I' for Inactive)
REMARK    1  A    between atoms: O_3  and  C_9
REMARK    2  A    between atoms: N_5  and  C_8
REMARK    3  A    between atoms: N_6  and  C_10
REMARK    4  A    between atoms: N_6  and  C_19
REMARK    5  A    between atoms: C_18  and  C_20
REMARK    6  A    between atoms: C_19  and  C_21
REMARK    7  A    between atoms: C_26  and  C_27
REMARK                            x       y       z     vdW  Elec       q    Type
REMARK                         _______ _______ _______ _____ _____    ______ ____
ROOT
ATOM      1  O   UNL     1      -8.565 -10.453  17.811  0.00  0.00    -0.343 OA
ATOM      2  O   UNL     1      -8.671 -10.936  20.077  0.00  0.00    -0.347 OA
ATOM      8  C   UNL     1      -6.942 -11.977  18.746  0.00  0.00    +0.143 C 
ATOM      9  C   UNL     1      -7.870 -13.175  18.440  0.00  0.00    +0.156 C 
ATOM     10  C   UNL     1      -9.149 -12.794  17.656  0.00  0.00    +0.116 C 
ATOM     11  C   UNL     1      -7.773 -10.701  18.980  0.00  0.00    +0.270 C 
ATOM     12  C   UNL     1      -9.649 -11.370  17.993  0.00  0.00    +0.166 C 
ATOM     13  C   UNL     1      -9.951 -11.150  19.464  0.00  0.00    +0.196 C 
ENDROOT
BRANCH   8   5
ATOM      5  N   UNL     1      -5.994 -11.763  17.651  0.00  0.00    -0.293 NA
ATOM     14  C   UNL     1      -5.187 -10.559  17.898  0.00  0.00    +0.085 C 
ATOM     15  C   UNL     1      -5.142 -12.945  17.471  0.00  0.00    +0.085 C 
ATOM     16  C   UNL     1      -4.230 -10.290  16.736  0.00  0.00    +0.028 C 
ATOM     17  C   UNL     1      -4.181 -12.759  16.295  0.00  0.00    +0.028 C 
ATOM     18  C   UNL     1      -3.336 -11.498  16.465  0.00  0.00    +0.077 C 
BRANCH  18  20
ATOM      4  O   UNL     1      -2.253 -12.178  14.447  0.00  0.00    -0.276 OA
ATOM      7  N   UNL     1      -2.092  -9.972  15.080  0.00  0.00    -0.329 N 
ATOM     20  C   UNL     1      -2.519 -11.270  15.230  0.00  0.00    +0.214 C 
ATOM     35  H   UNL     1      -2.315  -9.242  15.749  0.00  0.00    +0.145 HD
ATOM     36  H   UNL     1      -1.526  -9.699  14.283  0.00  0.00    +0.145 HD
ENDBRANCH  18  20
ENDBRANCH   8   5
BRANCH   9   3
ATOM      3  O   UNL     1      -8.259 -13.753  19.695  0.00  0.00    -0.388 OA
ATOM     34  H   UNL     1      -9.197 -13.540  19.837  0.00  0.00    +0.210 HD
ENDBRANCH   9   3
BRANCH  10   6
ATOM      6  N   UNL     1      -8.907 -12.863  16.211  0.00  0.00    -0.305 NA
ATOM     33  H   UNL     1      -9.453 -13.624  15.809  0.00  0.00    +0.123 HD
BRANCH   6  19
ATOM     19  C   UNL     1      -9.254 -11.604  15.575  0.00  0.00    +0.116 C 
BRANCH  19  21
ATOM     21  C   UNL     1      -8.199 -11.160  14.598  0.00  0.00    -0.034 A 
ATOM     22  C   UNL     1      -8.278  -9.896  14.011  0.00  0.00    +0.005 A 
ATOM     23  C   UNL     1      -7.140 -12.011  14.279  0.00  0.00    +0.005 A 
ATOM     24  C   UNL     1      -7.300  -9.485  13.106  0.00  0.00    +0.009 A 
ATOM     25  C   UNL     1      -6.162 -11.599  13.374  0.00  0.00    +0.009 A 
ATOM     26  C   UNL     1      -6.243 -10.336  12.787  0.00  0.00    -0.018 A 
BRANCH  26  27
ATOM     27  C   UNL     1      -5.228  -9.909  11.847  0.00  0.00    -0.018 A 
ATOM     28  C   UNL     1      -5.548  -8.999  10.840  0.00  0.00    +0.008 A 
ATOM     29  C   UNL     1      -3.928 -10.407  11.950  0.00  0.00    +0.008 A 
ATOM     30  C   UNL     1      -4.569  -8.588   9.935  0.00  0.00    +0.001 A 
ATOM     31  C   UNL     1      -2.950  -9.995  11.046  0.00  0.00    +0.001 A 
ATOM     32  C   UNL     1      -3.271  -9.085  10.038  0.00  0.00    +0.000 A 
ENDBRANCH  26  27
ENDBRANCH  19  21
ENDBRANCH   6  19
ENDBRANCH  10   6
TORSDOF 7
ENDMDL
MODEL 9
REMARK VINA RESULT:      -5.9     19.861     22.032
REMARK  Name = 28960503
REMARK  7 active torsions:
REMARK  status: ('A' for Active; 'I' for Inactive)
REMARK    1  A    between atoms: O_3  and  C_9
REMARK    2  A    between atoms: N_5  and  C_8
REMARK    3  A    between atoms: N_6  and  C_10
REMARK    4  A    between atoms: N_6  and  C_19
REMARK    5  A    between atoms: C_18  and  C_20
REMARK    6  A    between atoms: C_19  and  C_21
REMARK    7  A    between atoms: C_26  and  C_27
REMARK                            x       y       z     vdW  Elec       q    Type
REMARK                         _______ _______ _______ _____ _____    ______ ____
ROOT
ATOM      1  O   UNL     1     -12.261  13.101  16.920  0.00  0.00    -0.343 OA
ATOM      2  O   UNL     1     -10.411  14.252  16.124  0.00  0.00    -0.347 OA
ATOM      8  C   UNL     1     -10.584  11.881  15.685  0.00  0.00    +0.143 C 
ATOM      9  C   UNL     1      -9.830  11.562  16.996  0.00  0.00    +0.156 C 
ATOM     10  C   UNL     1     -10.563  12.039  18.273  0.00  0.00    +0.116 C 
ATOM     11  C   UNL     1     -11.352  13.210  15.817  0.00  0.00    +0.270 C 
ATOM     12  C   UNL     1     -11.393  13.321  18.037  0.00  0.00    +0.166 C 
ATOM     13  C   UNL     1     -10.583  14.500  17.527  0.00  0.00    +0.196 C 
ENDROOT
BRANCH   8   5
ATOM      5  N   UNL     1     -11.510  10.800  15.343  0.00  0.00    -0.293 NA
ATOM     14  C   UNL     1     -11.924  10.903  13.937  0.00  0.00    +0.085 C 
ATOM     15  C   UNL     1     -10.899   9.493  15.621  0.00  0.00    +0.085 C 
ATOM     16  C   UNL     1     -12.935   9.813  13.578  0.00  0.00    +0.028 C 
ATOM     17  C   UNL     1     -11.874   8.354  15.321  0.00  0.00    +0.028 C 
ATOM     18  C   UNL     1     -12.380   8.423  13.881  0.00  0.00    +0.077 C 
BRANCH  18  20
ATOM      4  O   UNL     1     -13.215   6.334  13.077  0.00  0.00    -0.276 OA
ATOM      7  N   UNL     1     -14.667   7.736  14.181  0.00  0.00    -0.329 N 
ATOM     20  C   UNL     1     -13.440   7.386  13.670  0.00  0.00    +0.214 C 
ATOM     35  H   UNL     1     -14.830   8.618  14.657  0.00  0.00    +0.145 HD
ATOM     36  H   UNL     1     -15.464   7.114  14.094  0.00  0.00    +0.145 HD
ENDBRANCH  18  20
ENDBRANCH   8   5
BRANCH   9   3
ATOM      3  O   UNL     1      -8.554  12.216  16.932  0.00  0.00    -0.388 OA
ATOM     34  H   UNL     1      -8.324  12.500  17.833  0.00  0.00    +0.210 HD
ENDBRANCH   9   3
BRANCH  10   6
ATOM      6  N   UNL     1     -11.466  10.994  18.768  0.00  0.00    -0.305 NA
ATOM     33  H   UNL     1     -11.947  10.558  17.982  0.00  0.00    +0.123 HD
BRANCH   6  19
ATOM     19  C   UNL     1     -10.728   9.996  19.523  0.00  0.00    +0.116 C 
BRANCH  19  21
ATOM     21  C   UNL     1     -11.644   8.983  20.157  0.00  0.00    -0.034 A 
ATOM     22  C   UNL     1     -11.254   7.646  20.239  0.00  0.00    +0.005 A 
ATOM     23  C   UNL     1     -12.882   9.380  20.662  0.00  0.00    +0.005 A 
ATOM     24  C   UNL     1     -12.101   6.707  20.826  0.00  0.00    +0.009 A 
ATOM     25  C   UNL     1     -13.729   8.441  21.250  0.00  0.00    +0.009 A 
ATOM     26  C   UNL     1     -13.339   7.104  21.331  0.00  0.00    -0.018 A 
BRANCH  26  27
ATOM     27  C   UNL     1     -14.219   6.130  21.941  0.00  0.00    -0.018 A 
ATOM     28  C   UNL     1     -15.526   5.983  21.475  0.00  0.00    +0.008 A 
ATOM     29  C   UNL     1     -13.760   5.336  22.993  0.00  0.00    +0.008 A 
ATOM     30  C   UNL     1     -16.373   5.044  22.062  0.00  0.00    +0.001 A 
ATOM     31  C   UNL     1     -14.608   4.397  23.579  0.00  0.00    +0.001 A 
ATOM     32  C   UNL     1     -15.915   4.251  23.112  0.00  0.00    +0.000 A 
ENDBRANCH  26  27
ENDBRANCH  19  21
ENDBRANCH   6  19
ENDBRANCH  10   6
TORSDOF 7
ENDMDL
MODEL 10
REMARK VINA RESULT:      -5.8      3.879      7.253
REMARK  Name = 28960503
REMARK  7 active torsions:
REMARK  status: ('A' for Active; 'I' for Inactive)
REMARK    1  A    between atoms: O_3  and  C_9
REMARK    2  A    between atoms: N_5  and  C_8
REMARK    3  A    between atoms: N_6  and  C_10
REMARK    4  A    between atoms: N_6  and  C_19
REMARK    5  A    between atoms: C_18  and  C_20
REMARK    6  A    between atoms: C_19  and  C_21
REMARK    7  A    between atoms: C_26  and  C_27
REMARK                            x       y       z     vdW  Elec       q    Type
REMARK                         _______ _______ _______ _____ _____    ______ ____
ROOT
ATOM      1  O   UNL     1      -8.614 -11.029  20.041  0.00  0.00    -0.343 OA
ATOM      2  O   UNL     1      -9.921 -12.945  20.006  0.00  0.00    -0.347 OA
ATOM      8  C   UNL     1      -8.549 -12.438  18.082  0.00  0.00    +0.143 C 
ATOM      9  C   UNL     1      -9.703 -11.631  17.445  0.00  0.00    +0.156 C 
ATOM     10  C   UNL     1     -10.137 -10.398  18.273  0.00  0.00    +0.116 C 
ATOM     11  C   UNL     1      -8.649 -12.399  19.618  0.00  0.00    +0.270 C 
ATOM     12  C   UNL     1      -9.961 -10.612  19.794  0.00  0.00    +0.166 C 
ATOM     13  C   UNL     1     -10.723 -11.804  20.345  0.00  0.00    +0.196 C 
ENDROOT
BRANCH   8   5
ATOM      5  N   UNL     1      -7.251 -11.915  17.652  0.00  0.00    -0.293 NA
ATOM     14  C   UNL     1      -6.162 -12.566  18.394  0.00  0.00    +0.085 C 
ATOM     15  C   UNL     1      -7.082 -12.086  16.203  0.00  0.00    +0.085 C 
ATOM     16  C   UNL     1      -4.803 -11.990  17.996  0.00  0.00    +0.028 C 
ATOM     17  C   UNL     1      -5.754 -11.494  15.729  0.00  0.00    +0.028 C 
ATOM     18  C   UNL     1      -4.575 -12.098  16.490  0.00  0.00    +0.077 C 
BRANCH  18  20
ATOM      4  O   UNL     1      -3.075 -10.240  16.462  0.00  0.00    -0.276 OA
ATOM      7  N   UNL     1      -2.477 -12.140  15.311  0.00  0.00    -0.329 N 
ATOM     20  C   UNL     1      -3.312 -11.390  16.105  0.00  0.00    +0.214 C 
ATOM     35  H   UNL     1      -2.704 -13.085  15.019  0.00  0.00    +0.145 HD
ATOM     36  H   UNL     1      -1.594 -11.762  14.983  0.00  0.00    +0.145 HD
ENDBRANCH  18  20
ENDBRANCH   8   5
BRANCH   9   3
ATOM      3  O   UNL     1     -10.828 -12.513  17.316  0.00  0.00    -0.388 OA
ATOM     34  H   UNL     1     -11.382 -12.178  16.590  0.00  0.00    +0.210 HD
ENDBRANCH   9   3
BRANCH  10   6
ATOM      6  N   UNL     1      -9.358  -9.217  17.885  0.00  0.00    -0.305 NA
ATOM     33  H   UNL     1      -8.455  -9.232  18.359  0.00  0.00    +0.123 HD
BRANCH   6  19
ATOM     19  C   UNL     1      -9.168  -9.182  16.445  0.00  0.00    +0.116 C 
BRANCH  19  21
ATOM     21  C   UNL     1     -10.133  -8.239  15.776  0.00  0.00    -0.034 A 
ATOM     22  C   UNL     1     -10.744  -8.602  14.575  0.00  0.00    +0.005 A 
ATOM     23  C   UNL     1     -10.416  -7.003  16.356  0.00  0.00    +0.005 A 
ATOM     24  C   UNL     1     -11.637  -7.729  13.955  0.00  0.00    +0.009 A 
ATOM     25  C   UNL     1     -11.310  -6.130  15.736  0.00  0.00    +0.009 A 
ATOM     26  C   UNL     1     -11.920  -6.493  14.535  0.00  0.00    -0.018 A 
BRANCH  26  27
ATOM     27  C   UNL     1     -12.846  -5.586  13.891  0.00  0.00    -0.018 A 
ATOM     28  C   UNL     1     -14.221  -5.787  14.019  0.00  0.00    +0.008 A 
ATOM     29  C   UNL     1     -12.365  -4.510  13.145  0.00  0.00    +0.008 A 
ATOM     30  C   UNL     1     -15.113  -4.912  13.400  0.00  0.00    +0.001 A 
ATOM     31  C   UNL     1     -13.258  -3.635  12.527  0.00  0.00    +0.001 A 
ATOM     32  C   UNL     1     -14.633  -3.837  12.655  0.00  0.00    +0.000 A 
ENDBRANCH  26  27
ENDBRANCH  19  21
ENDBRANCH   6  19
ENDBRANCH  10   6
TORSDOF 7
ENDMDL
