MODEL 1
REMARK VINA RESULT:      -6.5      0.000      0.000
REMARK  Name = 56775704
REMARK  6 active torsions:
REMARK  status: ('A' for Active; 'I' for Inactive)
REMARK    1  A    between atoms: N_4  and  C_7
REMARK    2  A    between atoms: N_4  and  C_12
REMARK    3  A    between atoms: C_7  and  C_10
REMARK    4  A    between atoms: C_10  and  C_11
REMARK    5  A    between atoms: C_12  and  C_14
REMARK    6  A    between atoms: C_15  and  C_17
REMARK                            x       y       z     vdW  Elec       q    Type
REMARK                         _______ _______ _______ _____ _____    ______ ____
ROOT
ATOM      1  O   UNL     1      15.433   9.854  21.050  0.00  0.00    -0.376 OA
ATOM      7  C   UNL     1      14.264   8.207  20.361  0.00  0.00    +0.072 C 
ATOM      8  C   UNL     1      14.527   8.922  21.681  0.00  0.00    +0.184 C 
ATOM      9  C   UNL     1      15.301   9.164  19.786  0.00  0.00    +0.184 C 
ENDROOT
BRANCH   7   4
ATOM      4  N   UNL     1      12.947   8.593  19.872  0.00  0.00    -0.300 NA
ATOM     24  H   UNL     1      12.894   9.532  19.479  0.00  0.00    +0.123 HD
BRANCH   4  12
ATOM     12  C   UNL     1      12.481   7.620  18.887  0.00  0.00    +0.156 C 
BRANCH  12  14
ATOM      3  O   UNL     1      10.838   8.004  17.132  0.00  0.00    -0.467 OA
ATOM     14  C   UNL     1      12.087   8.279  17.592  0.00  0.00    +0.119 A 
ATOM     16  C   UNL     1      12.739   9.136  16.736  0.00  0.00    +0.046 A 
ATOM     18  C   UNL     1      11.834   9.404  15.682  0.00  0.00    +0.041 A 
ATOM     19  C   UNL     1      10.693   8.692  15.969  0.00  0.00    +0.195 A 
ENDBRANCH  12  14
ENDBRANCH   4  12
ENDBRANCH   7   4
BRANCH   7  10
ATOM     10  C   UNL     1      14.515   6.696  20.271  0.00  0.00    +0.085 C 
BRANCH  10  11
ATOM      2  O   UNL     1      17.708   5.806  18.941  0.00  0.00    -0.353 OA
ATOM      5  N   UNL     1      16.334   5.977  18.826  0.00  0.00    -0.083 NA
ATOM     11  C   UNL     1      15.936   6.407  20.026  0.00  0.00    +0.086 A 
ATOM     13  C   UNL     1      17.006   6.525  20.931  0.00  0.00    +0.077 A 
ATOM     15  C   UNL     1      18.096   6.135  20.198  0.00  0.00    +0.186 A 
BRANCH  15  17
ATOM      6  N   UNL     1      20.107   7.157  20.856  0.00  0.00    -0.252 NA
ATOM     17  C   UNL     1      19.504   6.010  20.470  0.00  0.00    +0.109 A 
ATOM     20  C   UNL     1      20.158   4.796  20.336  0.00  0.00    +0.031 A 
ATOM     21  C   UNL     1      21.519   4.756  20.618  0.00  0.00    +0.004 A 
ATOM     22  C   UNL     1      21.431   7.079  21.122  0.00  0.00    +0.111 A 
ATOM     23  C   UNL     1      22.176   5.915  21.019  0.00  0.00    +0.020 A 
ENDBRANCH  15  17
ENDBRANCH  10  11
ENDBRANCH   7  10
TORSDOF 6
ENDMDL
MODEL 2
REMARK VINA RESULT:      -6.4      2.249      4.138
REMARK  Name = 56775704
REMARK  6 active torsions:
REMARK  status: ('A' for Active; 'I' for Inactive)
REMARK    1  A    between atoms: N_4  and  C_7
REMARK    2  A    between atoms: N_4  and  C_12
REMARK    3  A    between atoms: C_7  and  C_10
REMARK    4  A    between atoms: C_10  and  C_11
REMARK    5  A    between atoms: C_12  and  C_14
REMARK    6  A    between atoms: C_15  and  C_17
REMARK                            x       y       z     vdW  Elec       q    Type
REMARK                         _______ _______ _______ _____ _____    ______ ____
ROOT
ATOM      1  O   UNL     1      12.076   9.057  16.093  0.00  0.00    -0.376 OA
ATOM      7  C   UNL     1      12.431   8.334  18.069  0.00  0.00    +0.072 C 
ATOM      8  C   UNL     1      13.260   8.838  16.893  0.00  0.00    +0.184 C 
ATOM      9  C   UNL     1      11.240   8.502  17.133  0.00  0.00    +0.184 C 
ENDROOT
BRANCH   7   4
ATOM      4  N   UNL     1      12.378   9.375  19.087  0.00  0.00    -0.300 NA
ATOM     24  H   UNL     1      12.218  10.316  18.730  0.00  0.00    +0.123 HD
BRANCH   4  12
ATOM     12  C   UNL     1      11.358   9.044  20.079  0.00  0.00    +0.156 C 
BRANCH  12  14
ATOM      3  O   UNL     1      10.547   9.745  22.265  0.00  0.00    -0.467 OA
ATOM     14  C   UNL     1      11.567   9.794  21.368  0.00  0.00    +0.119 A 
ATOM     16  C   UNL     1      12.607  10.549  21.859  0.00  0.00    +0.046 A 
ATOM     18  C   UNL     1      12.201  10.992  23.140  0.00  0.00    +0.041 A 
ATOM     19  C   UNL     1      10.941  10.476  23.340  0.00  0.00    +0.195 A 
ENDBRANCH  12  14
ENDBRANCH   4  12
ENDBRANCH   7   4
BRANCH   7  10
ATOM     10  C   UNL     1      12.732   6.946  18.650  0.00  0.00    +0.085 C 
BRANCH  10  11
ATOM      2  O   UNL     1      15.155   6.955  21.274  0.00  0.00    -0.353 OA
ATOM      5  N   UNL     1      13.845   6.914  20.811  0.00  0.00    -0.083 NA
ATOM     11  C   UNL     1      13.946   6.969  19.480  0.00  0.00    +0.086 A 
ATOM     13  C   UNL     1      15.282   7.046  19.050  0.00  0.00    +0.077 A 
ATOM     15  C   UNL     1      16.001   7.033  20.216  0.00  0.00    +0.186 A 
BRANCH  15  17
ATOM      6  N   UNL     1      18.110   6.000  20.144  0.00  0.00    -0.252 NA
ATOM     17  C   UNL     1      17.402   7.082  20.539  0.00  0.00    +0.109 A 
ATOM     20  C   UNL     1      17.951   8.167  21.204  0.00  0.00    +0.031 A 
ATOM     21  C   UNL     1      19.313   8.139  21.480  0.00  0.00    +0.004 A 
ATOM     22  C   UNL     1      19.431   6.009  20.430  0.00  0.00    +0.111 A 
ATOM     23  C   UNL     1      20.075   7.044  21.089  0.00  0.00    +0.020 A 
ENDBRANCH  15  17
ENDBRANCH  10  11
ENDBRANCH   7  10
TORSDOF 6
ENDMDL
MODEL 3
REMARK VINA RESULT:      -6.2     26.940     30.746
REMARK  Name = 56775704
REMARK  6 active torsions:
REMARK  status: ('A' for Active; 'I' for Inactive)
REMARK    1  A    between atoms: N_4  and  C_7
REMARK    2  A    between atoms: N_4  and  C_12
REMARK    3  A    between atoms: C_7  and  C_10
REMARK    4  A    between atoms: C_10  and  C_11
REMARK    5  A    between atoms: C_12  and  C_14
REMARK    6  A    between atoms: C_15  and  C_17
REMARK                            x       y       z     vdW  Elec       q    Type
REMARK                         _______ _______ _______ _____ _____    ______ ____
ROOT
ATOM      1  O   UNL     1     -17.615   5.250  21.070  0.00  0.00    -0.376 OA
ATOM      7  C   UNL     1     -15.855   5.312  22.276  0.00  0.00    +0.072 C 
ATOM      8  C   UNL     1     -17.362   5.411  22.484  0.00  0.00    +0.184 C 
ATOM      9  C   UNL     1     -16.197   5.243  20.792  0.00  0.00    +0.184 C 
ENDROOT
BRANCH   7   4
ATOM      4  N   UNL     1     -15.406   3.998  22.715  0.00  0.00    -0.300 NA
ATOM     24  H   UNL     1     -14.680   3.577  22.136  0.00  0.00    +0.123 HD
BRANCH   4  12
ATOM     12  C   UNL     1     -14.949   4.070  24.101  0.00  0.00    +0.156 C 
BRANCH  12  14
ATOM      3  O   UNL     1     -16.317   2.083  24.431  0.00  0.00    -0.467 OA
ATOM     14  C   UNL     1     -15.763   3.183  25.005  0.00  0.00    +0.119 A 
ATOM     16  C   UNL     1     -16.082   3.243  26.343  0.00  0.00    +0.046 A 
ATOM     18  C   UNL     1     -16.884   2.107  26.606  0.00  0.00    +0.041 A 
ATOM     19  C   UNL     1     -16.997   1.434  25.412  0.00  0.00    +0.195 A 
ENDBRANCH  12  14
ENDBRANCH   4  12
ENDBRANCH   7   4
BRANCH   7  10
ATOM     10  C   UNL     1     -14.958   6.450  22.780  0.00  0.00    +0.085 C 
BRANCH  10  11
ATOM      2  O   UNL     1     -11.959   6.290  20.848  0.00  0.00    -0.353 OA
ATOM      5  N   UNL     1     -12.850   5.769  21.778  0.00  0.00    -0.083 NA
ATOM     11  C   UNL     1     -13.825   6.677  21.870  0.00  0.00    +0.086 A 
ATOM     13  C   UNL     1     -13.605   7.783  21.029  0.00  0.00    +0.077 A 
ATOM     15  C   UNL     1     -12.419   7.488  20.409  0.00  0.00    +0.186 A 
BRANCH  15  17
ATOM      6  N   UNL     1     -11.488   7.504  18.252  0.00  0.00    -0.252 NA
ATOM     17  C   UNL     1     -11.597   8.154  19.433  0.00  0.00    +0.109 A 
ATOM     20  C   UNL     1     -10.982   9.363  19.713  0.00  0.00    +0.031 A 
ATOM     21  C   UNL     1     -10.204   9.943  18.717  0.00  0.00    +0.004 A 
ATOM     22  C   UNL     1     -10.724   8.099  17.308  0.00  0.00    +0.111 A 
ATOM     23  C   UNL     1     -10.068   9.306  17.488  0.00  0.00    +0.020 A 
ENDBRANCH  15  17
ENDBRANCH  10  11
ENDBRANCH   7  10
TORSDOF 6
ENDMDL
MODEL 4
REMARK VINA RESULT:      -6.2     14.530     18.364
REMARK  Name = 56775704
REMARK  6 active torsions:
REMARK  status: ('A' for Active; 'I' for Inactive)
REMARK    1  A    between atoms: N_4  and  C_7
REMARK    2  A    between atoms: N_4  and  C_12
REMARK    3  A    between atoms: C_7  and  C_10
REMARK    4  A    between atoms: C_10  and  C_11
REMARK    5  A    between atoms: C_12  and  C_14
REMARK    6  A    between atoms: C_15  and  C_17
REMARK                            x       y       z     vdW  Elec       q    Type
REMARK                         _______ _______ _______ _____ _____    ______ ____
ROOT
ATOM      1  O   UNL     1      12.176   8.444   4.486  0.00  0.00    -0.376 OA
ATOM      7  C   UNL     1      11.019   6.650   4.475  0.00  0.00    +0.072 C 
ATOM      8  C   UNL     1      12.319   7.151   3.855  0.00  0.00    +0.184 C 
ATOM      9  C   UNL     1      10.891   8.065   5.027  0.00  0.00    +0.184 C 
ENDROOT
BRANCH   7   4
ATOM      4  N   UNL     1      11.340   5.746   5.570  0.00  0.00    -0.300 NA
ATOM     24  H   UNL     1      11.694   6.199   6.411  0.00  0.00    +0.123 HD
BRANCH   4  12
ATOM     12  C   UNL     1      10.168   4.939   5.903  0.00  0.00    +0.156 C 
BRANCH  12  14
ATOM      3  O   UNL     1       9.796   3.953   8.098  0.00  0.00    -0.467 OA
ATOM     14  C   UNL     1       9.778   5.087   7.349  0.00  0.00    +0.119 A 
ATOM     16  C   UNL     1       9.392   6.165   8.114  0.00  0.00    +0.046 A 
ATOM     18  C   UNL     1       9.158   5.660   9.415  0.00  0.00    +0.041 A 
ATOM     19  C   UNL     1       9.417   4.310   9.353  0.00  0.00    +0.195 A 
ENDBRANCH  12  14
ENDBRANCH   4  12
ENDBRANCH   7   4
BRANCH   7  10
ATOM     10  C   UNL     1       9.918   6.108   3.554  0.00  0.00    +0.085 C 
BRANCH  10  11
ATOM      2  O   UNL     1      11.575   3.598   1.628  0.00  0.00    -0.353 OA
ATOM      5  N   UNL     1      11.209   4.176   2.837  0.00  0.00    -0.083 NA
ATOM     11  C   UNL     1      10.480   5.245   2.504  0.00  0.00    +0.086 A 
ATOM     13  C   UNL     1      10.353   5.390   1.111  0.00  0.00    +0.077 A 
ATOM     15  C   UNL     1      11.060   4.329   0.608  0.00  0.00    +0.186 A 
BRANCH  15  17
ATOM      6  N   UNL     1      10.347   3.998  -1.606  0.00  0.00    -0.252 NA
ATOM     17  C   UNL     1      11.354   3.849  -0.716  0.00  0.00    +0.109 A 
ATOM     20  C   UNL     1      12.582   3.284  -1.021  0.00  0.00    +0.031 A 
ATOM     21  C   UNL     1      12.790   2.844  -2.323  0.00  0.00    +0.004 A 
ATOM     22  C   UNL     1      10.587   3.559  -2.862  0.00  0.00    +0.111 A 
ATOM     23  C   UNL     1      11.779   2.981  -3.268  0.00  0.00    +0.020 A 
ENDBRANCH  15  17
ENDBRANCH  10  11
ENDBRANCH   7  10
TORSDOF 6
ENDMDL
MODEL 5
REMARK VINA RESULT:      -6.1      3.600      7.909
REMARK  Name = 56775704
REMARK  6 active torsions:
REMARK  status: ('A' for Active; 'I' for Inactive)
REMARK    1  A    between atoms: N_4  and  C_7
REMARK    2  A    between atoms: N_4  and  C_12
REMARK    3  A    between atoms: C_7  and  C_10
REMARK    4  A    between atoms: C_10  and  C_11
REMARK    5  A    between atoms: C_12  and  C_14
REMARK    6  A    between atoms: C_15  and  C_17
REMARK                            x       y       z     vdW  Elec       q    Type
REMARK                         _______ _______ _______ _____ _____    ______ ____
ROOT
ATOM      1  O   UNL     1      10.392   8.400  18.389  0.00  0.00    -0.376 OA
ATOM      7  C   UNL     1      12.397   8.773  19.018  0.00  0.00    +0.072 C 
ATOM      8  C   UNL     1      11.029   8.608  19.670  0.00  0.00    +0.184 C 
ATOM      9  C   UNL     1      11.640   8.639  17.702  0.00  0.00    +0.184 C 
ENDROOT
BRANCH   7   4
ATOM      4  N   UNL     1      13.171   7.559  19.239  0.00  0.00    -0.300 NA
ATOM     24  H   UNL     1      12.650   6.691  19.127  0.00  0.00    +0.123 HD
BRANCH   4  12
ATOM     12  C   UNL     1      14.337   7.549  18.359  0.00  0.00    +0.156 C 
BRANCH  12  14
ATOM      3  O   UNL     1      16.231   6.039  18.599  0.00  0.00    -0.467 OA
ATOM     14  C   UNL     1      15.586   7.130  19.088  0.00  0.00    +0.119 A 
ATOM     16  C   UNL     1      16.247   7.630  20.187  0.00  0.00    +0.046 A 
ATOM     18  C   UNL     1      17.369   6.793  20.386  0.00  0.00    +0.041 A 
ATOM     19  C   UNL     1      17.315   5.840  19.395  0.00  0.00    +0.195 A 
ENDBRANCH  12  14
ENDBRANCH   4  12
ENDBRANCH   7   4
BRANCH   7  10
ATOM     10  C   UNL     1      13.201  10.052  19.288  0.00  0.00    +0.085 C 
BRANCH  10  11
ATOM      2  O   UNL     1      13.340  10.491  22.830  0.00  0.00    -0.353 OA
ATOM      5  N   UNL     1      13.692   9.831  21.659  0.00  0.00    -0.083 NA
ATOM     11  C   UNL     1      13.054  10.486  20.686  0.00  0.00    +0.086 A 
ATOM     13  C   UNL     1      12.291  11.560  21.178  0.00  0.00    +0.077 A 
ATOM     15  C   UNL     1      12.506  11.518  22.530  0.00  0.00    +0.186 A 
BRANCH  15  17
ATOM      6  N   UNL     1      13.015  12.597  24.555  0.00  0.00    -0.252 NA
ATOM     17  C   UNL     1      12.055  12.303  23.649  0.00  0.00    +0.109 A 
ATOM     20  C   UNL     1      10.734  12.707  23.759  0.00  0.00    +0.031 A 
ATOM     21  C   UNL     1      10.376  13.463  24.870  0.00  0.00    +0.004 A 
ATOM     22  C   UNL     1      12.628  13.333  25.621  0.00  0.00    +0.111 A 
ATOM     23  C   UNL     1      11.335  13.787  25.823  0.00  0.00    +0.020 A 
ENDBRANCH  15  17
ENDBRANCH  10  11
ENDBRANCH   7  10
TORSDOF 6
ENDMDL
MODEL 6
REMARK VINA RESULT:      -6.0      5.072      7.450
REMARK  Name = 56775704
REMARK  6 active torsions:
REMARK  status: ('A' for Active; 'I' for Inactive)
REMARK    1  A    between atoms: N_4  and  C_7
REMARK    2  A    between atoms: N_4  and  C_12
REMARK    3  A    between atoms: C_7  and  C_10
REMARK    4  A    between atoms: C_10  and  C_11
REMARK    5  A    between atoms: C_12  and  C_14
REMARK    6  A    between atoms: C_15  and  C_17
REMARK                            x       y       z     vdW  Elec       q    Type
REMARK                         _______ _______ _______ _____ _____    ______ ____
ROOT
ATOM      1  O   UNL     1      13.811   8.734  15.189  0.00  0.00    -0.376 OA
ATOM      7  C   UNL     1      13.609   9.163  17.270  0.00  0.00    +0.072 C 
ATOM      8  C   UNL     1      13.327   9.866  15.947  0.00  0.00    +0.184 C 
ATOM      9  C   UNL     1      14.190   8.050  16.405  0.00  0.00    +0.184 C 
ENDROOT
BRANCH   7   4
ATOM      4  N   UNL     1      12.348   8.707  17.837  0.00  0.00    -0.300 NA
ATOM     24  H   UNL     1      11.570   8.667  17.179  0.00  0.00    +0.123 HD
BRANCH   4  12
ATOM     12  C   UNL     1      12.531   7.399  18.462  0.00  0.00    +0.156 C 
BRANCH  12  14
ATOM      3  O   UNL     1      10.819   8.038  20.070  0.00  0.00    -0.467 OA
ATOM     14  C   UNL     1      11.981   7.365  19.863  0.00  0.00    +0.119 A 
ATOM     16  C   UNL     1      12.413   6.777  21.029  0.00  0.00    +0.046 A 
ATOM     18  C   UNL     1      11.456   7.110  22.016  0.00  0.00    +0.041 A 
ATOM     19  C   UNL     1      10.507   7.878  21.383  0.00  0.00    +0.195 A 
ENDBRANCH  12  14
ENDBRANCH   4  12
ENDBRANCH   7   4
BRANCH   7  10
ATOM     10  C   UNL     1      14.513   9.853  18.301  0.00  0.00    +0.085 C 
BRANCH  10  11
ATOM      2  O   UNL     1      12.516  12.323  19.935  0.00  0.00    -0.353 OA
ATOM      5  N   UNL     1      13.176  11.817  18.822  0.00  0.00    -0.083 NA
ATOM     11  C   UNL     1      13.724  10.671  19.235  0.00  0.00    +0.086 A 
ATOM     13  C   UNL     1      13.447  10.405  20.588  0.00  0.00    +0.077 A 
ATOM     15  C   UNL     1      12.684  11.474  20.979  0.00  0.00    +0.186 A 
BRANCH  15  17
ATOM      6  N   UNL     1      12.057  13.197  22.449  0.00  0.00    -0.252 NA
ATOM     17  C   UNL     1      12.051  11.866  22.211  0.00  0.00    +0.109 A 
ATOM     20  C   UNL     1      11.489  10.928  23.062  0.00  0.00    +0.031 A 
ATOM     21  C   UNL     1      10.895  11.385  24.233  0.00  0.00    +0.004 A 
ATOM     22  C   UNL     1      11.470  13.604  23.597  0.00  0.00    +0.111 A 
ATOM     23  C   UNL     1      10.880  12.748  24.513  0.00  0.00    +0.020 A 
ENDBRANCH  15  17
ENDBRANCH  10  11
ENDBRANCH   7  10
TORSDOF 6
ENDMDL
MODEL 7
REMARK VINA RESULT:      -6.0      1.812      2.710
REMARK  Name = 56775704
REMARK  6 active torsions:
REMARK  status: ('A' for Active; 'I' for Inactive)
REMARK    1  A    between atoms: N_4  and  C_7
REMARK    2  A    between atoms: N_4  and  C_12
REMARK    3  A    between atoms: C_7  and  C_10
REMARK    4  A    between atoms: C_10  and  C_11
REMARK    5  A    between atoms: C_12  and  C_14
REMARK    6  A    between atoms: C_15  and  C_17
REMARK                            x       y       z     vdW  Elec       q    Type
REMARK                         _______ _______ _______ _____ _____    ______ ____
ROOT
ATOM      1  O   UNL     1      11.078   7.185  21.882  0.00  0.00    -0.376 OA
ATOM      7  C   UNL     1      12.350   7.860  20.306  0.00  0.00    +0.072 C 
ATOM      8  C   UNL     1      12.474   6.995  21.556  0.00  0.00    +0.184 C 
ATOM      9  C   UNL     1      10.915   8.089  20.767  0.00  0.00    +0.184 C 
ENDROOT
BRANCH   7   4
ATOM      4  N   UNL     1      12.334   6.993  19.136  0.00  0.00    -0.300 NA
ATOM     24  H   UNL     1      11.405   6.730  18.809  0.00  0.00    +0.123 HD
BRANCH   4  12
ATOM     12  C   UNL     1      13.079   7.620  18.047  0.00  0.00    +0.156 C 
BRANCH  12  14
ATOM      3  O   UNL     1      12.767   8.932  16.020  0.00  0.00    -0.467 OA
ATOM     14  C   UNL     1      12.166   8.306  17.066  0.00  0.00    +0.119 A 
ATOM     16  C   UNL     1      10.799   8.444  16.991  0.00  0.00    +0.046 A 
ATOM     18  C   UNL     1      10.543   9.203  15.825  0.00  0.00    +0.041 A 
ATOM     19  C   UNL     1      11.773   9.475  15.270  0.00  0.00    +0.195 A 
ENDBRANCH  12  14
ENDBRANCH   4  12
ENDBRANCH   7   4
BRANCH   7  10
ATOM     10  C   UNL     1      13.281   9.068  20.142  0.00  0.00    +0.085 C 
BRANCH  10  11
ATOM      2  O   UNL     1      16.341   8.789  21.963  0.00  0.00    -0.353 OA
ATOM      5  N   UNL     1      15.042   9.258  21.808  0.00  0.00    -0.083 NA
ATOM     11  C   UNL     1      14.634   8.767  20.635  0.00  0.00    +0.086 A 
ATOM     13  C   UNL     1      15.623   7.987  20.011  0.00  0.00    +0.077 A 
ATOM     15  C   UNL     1      16.675   8.033  20.888  0.00  0.00    +0.186 A 
BRANCH  15  17
ATOM      6  N   UNL     1      18.946   8.277  21.439  0.00  0.00    -0.252 NA
ATOM     17  C   UNL     1      18.000   7.471  20.906  0.00  0.00    +0.109 A 
ATOM     20  C   UNL     1      18.251   6.202  20.409  0.00  0.00    +0.031 A 
ATOM     21  C   UNL     1      19.558   5.730  20.463  0.00  0.00    +0.004 A 
ATOM     22  C   UNL     1      20.204   7.783  21.475  0.00  0.00    +0.111 A 
ATOM     23  C   UNL     1      20.559   6.529  21.005  0.00  0.00    +0.020 A 
ENDBRANCH  15  17
ENDBRANCH  10  11
ENDBRANCH   7  10
TORSDOF 6
ENDMDL
MODEL 8
REMARK VINA RESULT:      -6.0      4.748      7.689
REMARK  Name = 56775704
REMARK  6 active torsions:
REMARK  status: ('A' for Active; 'I' for Inactive)
REMARK    1  A    between atoms: N_4  and  C_7
REMARK    2  A    between atoms: N_4  and  C_12
REMARK    3  A    between atoms: C_7  and  C_10
REMARK    4  A    between atoms: C_10  and  C_11
REMARK    5  A    between atoms: C_12  and  C_14
REMARK    6  A    between atoms: C_15  and  C_17
REMARK                            x       y       z     vdW  Elec       q    Type
REMARK                         _______ _______ _______ _____ _____    ______ ____
ROOT
ATOM      1  O   UNL     1      10.428   7.004  21.378  0.00  0.00    -0.376 OA
ATOM      7  C   UNL     1      12.251   7.606  20.444  0.00  0.00    +0.072 C 
ATOM      8  C   UNL     1      11.789   6.519  21.408  0.00  0.00    +0.184 C 
ATOM      9  C   UNL     1      10.817   8.114  20.538  0.00  0.00    +0.184 C 
ENDROOT
BRANCH   7   4
ATOM      4  N   UNL     1      12.453   7.012  19.130  0.00  0.00    -0.300 NA
ATOM     24  H   UNL     1      11.691   7.159  18.470  0.00  0.00    +0.123 HD
BRANCH   4  12
ATOM     12  C   UNL     1      13.703   7.502  18.554  0.00  0.00    +0.156 C 
BRANCH  12  14
ATOM      3  O   UNL     1      12.343   8.290  16.694  0.00  0.00    -0.467 OA
ATOM     14  C   UNL     1      13.459   8.490  17.444  0.00  0.00    +0.119 A 
ATOM     16  C   UNL     1      14.145   9.598  17.003  0.00  0.00    +0.046 A 
ATOM     18  C   UNL     1      13.404  10.111  15.913  0.00  0.00    +0.041 A 
ATOM     19  C   UNL     1      12.317   9.280  15.765  0.00  0.00    +0.195 A 
ENDBRANCH  12  14
ENDBRANCH   4  12
ENDBRANCH   7   4
BRANCH   7  10
ATOM     10  C   UNL     1      13.398   8.534  20.864  0.00  0.00    +0.085 C 
BRANCH  10  11
ATOM      2  O   UNL     1      12.417  11.953  21.188  0.00  0.00    -0.353 OA
ATOM      5  N   UNL     1      12.981  10.898  20.480  0.00  0.00    -0.083 NA
ATOM     11  C   UNL     1      12.890   9.845  21.296  0.00  0.00    +0.086 A 
ATOM     13  C   UNL     1      12.284  10.172  22.523  0.00  0.00    +0.077 A 
ATOM     15  C   UNL     1      12.007  11.508  22.402  0.00  0.00    +0.186 A 
BRANCH  15  17
ATOM      6  N   UNL     1      10.881  13.561  22.604  0.00  0.00    -0.252 NA
ATOM     17  C   UNL     1      11.396  12.493  23.255  0.00  0.00    +0.109 A 
ATOM     20  C   UNL     1      11.355  12.330  24.630  0.00  0.00    +0.031 A 
ATOM     21  C   UNL     1      10.748  13.327  25.386  0.00  0.00    +0.004 A 
ATOM     22  C   UNL     1      10.298  14.508  23.372  0.00  0.00    +0.111 A 
ATOM     23  C   UNL     1      10.205  14.440  24.752  0.00  0.00    +0.020 A 
ENDBRANCH  15  17
ENDBRANCH  10  11
ENDBRANCH   7  10
TORSDOF 6
ENDMDL
MODEL 9
REMARK VINA RESULT:      -5.9     13.141     16.955
REMARK  Name = 56775704
REMARK  6 active torsions:
REMARK  status: ('A' for Active; 'I' for Inactive)
REMARK    1  A    between atoms: N_4  and  C_7
REMARK    2  A    between atoms: N_4  and  C_12
REMARK    3  A    between atoms: C_7  and  C_10
REMARK    4  A    between atoms: C_10  and  C_11
REMARK    5  A    between atoms: C_12  and  C_14
REMARK    6  A    between atoms: C_15  and  C_17
REMARK                            x       y       z     vdW  Elec       q    Type
REMARK                         _______ _______ _______ _____ _____    ______ ____
ROOT
ATOM      1  O   UNL     1       9.849  10.440   5.211  0.00  0.00    -0.376 OA
ATOM      7  C   UNL     1       9.394   8.360   5.360  0.00  0.00    +0.072 C 
ATOM      8  C   UNL     1      10.440   9.234   4.677  0.00  0.00    +0.184 C 
ATOM      9  C   UNL     1       8.774   9.679   5.806  0.00  0.00    +0.184 C 
ENDROOT
BRANCH   7   4
ATOM      4  N   UNL     1      10.003   7.714   6.514  0.00  0.00    -0.300 NA
ATOM     24  H   UNL     1      10.750   8.245   6.959  0.00  0.00    +0.123 HD
BRANCH   4  12
ATOM     12  C   UNL     1       8.974   7.392   7.500  0.00  0.00    +0.156 C 
BRANCH  12  14
ATOM      3  O   UNL     1       8.809   5.944   9.451  0.00  0.00    -0.467 OA
ATOM     14  C   UNL     1       9.231   6.066   8.165  0.00  0.00    +0.119 A 
ATOM     16  C   UNL     1       9.825   4.899   7.739  0.00  0.00    +0.046 A 
ATOM     18  C   UNL     1       9.762   4.004   8.833  0.00  0.00    +0.041 A 
ATOM     19  C   UNL     1       9.136   4.687   9.850  0.00  0.00    +0.195 A 
ENDBRANCH  12  14
ENDBRANCH   4  12
ENDBRANCH   7   4
BRANCH   7  10
ATOM     10  C   UNL     1       8.558   7.397   4.507  0.00  0.00    +0.085 C 
BRANCH  10  11
ATOM      2  O   UNL     1      10.546   4.533   3.730  0.00  0.00    -0.353 OA
ATOM      5  N   UNL     1       9.768   5.289   4.598  0.00  0.00    -0.083 NA
ATOM     11  C   UNL     1       9.403   6.362   3.891  0.00  0.00    +0.086 A 
ATOM     13  C   UNL     1       9.918   6.338   2.583  0.00  0.00    +0.077 A 
ATOM     15  C   UNL     1      10.627   5.167   2.534  0.00  0.00    +0.186 A 
BRANCH  15  17
ATOM      6  N   UNL     1      12.557   3.949   1.972  0.00  0.00    -0.252 NA
ATOM     17  C   UNL     1      11.405   4.498   1.524  0.00  0.00    +0.109 A 
ATOM     20  C   UNL     1      10.978   4.440   0.207  0.00  0.00    +0.031 A 
ATOM     21  C   UNL     1      11.785   3.776  -0.709  0.00  0.00    +0.004 A 
ATOM     22  C   UNL     1      13.314   3.311   1.052  0.00  0.00    +0.111 A 
ATOM     23  C   UNL     1      12.977   3.197  -0.288  0.00  0.00    +0.020 A 
ENDBRANCH  15  17
ENDBRANCH  10  11
ENDBRANCH   7  10
TORSDOF 6
ENDMDL
MODEL 10
REMARK VINA RESULT:      -5.9      2.113      3.463
REMARK  Name = 56775704
REMARK  6 active torsions:
REMARK  status: ('A' for Active; 'I' for Inactive)
REMARK    1  A    between atoms: N_4  and  C_7
REMARK    2  A    between atoms: N_4  and  C_12
REMARK    3  A    between atoms: C_7  and  C_10
REMARK    4  A    between atoms: C_10  and  C_11
REMARK    5  A    between atoms: C_12  and  C_14
REMARK    6  A    between atoms: C_15  and  C_17
REMARK                            x       y       z     vdW  Elec       q    Type
REMARK                         _______ _______ _______ _____ _____    ______ ____
ROOT
ATOM      1  O   UNL     1      13.138   7.833  16.997  0.00  0.00    -0.376 OA
ATOM      7  C   UNL     1      13.555   7.779  19.090  0.00  0.00    +0.072 C 
ATOM      8  C   UNL     1      14.325   8.031  17.799  0.00  0.00    +0.184 C 
ATOM      9  C   UNL     1      12.371   7.491  18.174  0.00  0.00    +0.184 C 
ENDROOT
BRANCH   7   4
ATOM      4  N   UNL     1      13.332   9.052  19.760  0.00  0.00    -0.300 NA
ATOM     24  H   UNL     1      12.713   9.695  19.266  0.00  0.00    +0.123 HD
BRANCH   4  12
ATOM     12  C   UNL     1      12.822   8.818  21.109  0.00  0.00    +0.156 C 
BRANCH  12  14
ATOM      3  O   UNL     1      12.183  11.159  20.903  0.00  0.00    -0.467 OA
ATOM     14  C   UNL     1      12.128  10.034  21.664  0.00  0.00    +0.119 A 
ATOM     16  C   UNL     1      11.420  10.267  22.820  0.00  0.00    +0.046 A 
ATOM     18  C   UNL     1      11.014  11.621  22.767  0.00  0.00    +0.041 A 
ATOM     19  C   UNL     1      11.504  12.120  21.581  0.00  0.00    +0.195 A 
ENDBRANCH  12  14
ENDBRANCH   4  12
ENDBRANCH   7   4
BRANCH   7  10
ATOM     10  C   UNL     1      14.042   6.679  20.043  0.00  0.00    +0.085 C 
BRANCH  10  11
ATOM      2  O   UNL     1      17.532   6.129  19.514  0.00  0.00    -0.353 OA
ATOM      5  N   UNL     1      16.196   5.966  19.168  0.00  0.00    -0.083 NA
ATOM     11  C   UNL     1      15.512   6.637  20.099  0.00  0.00    +0.086 A 
ATOM     13  C   UNL     1      16.355   7.237  21.050  0.00  0.00    +0.077 A 
ATOM     15  C   UNL     1      17.613   6.888  20.636  0.00  0.00    +0.186 A 
BRANCH  15  17
ATOM      6  N   UNL     1      19.035   8.167  22.001  0.00  0.00    -0.252 NA
ATOM     17  C   UNL     1      18.944   7.146  21.119  0.00  0.00    +0.109 A 
ATOM     20  C   UNL     1      20.025   6.390  20.694  0.00  0.00    +0.031 A 
ATOM     21  C   UNL     1      21.279   6.702  21.207  0.00  0.00    +0.004 A 
ATOM     22  C   UNL     1      20.270   8.440  22.478  0.00  0.00    +0.111 A 
ATOM     23  C   UNL     1      21.413   7.745  22.118  0.00  0.00    +0.020 A 
ENDBRANCH  15  17
ENDBRANCH  10  11
ENDBRANCH   7  10
TORSDOF 6
ENDMDL
