MODEL 1
REMARK VINA RESULT:      -7.8      0.000      0.000
REMARK  Name = 71693258
REMARK  7 active torsions:
REMARK  status: ('A' for Active; 'I' for Inactive)
REMARK    1  A    between atoms: O_2  and  C_12
REMARK    2  A    between atoms: N_6  and  C_19
REMARK    3  A    between atoms: N_7  and  C_25
REMARK    4  A    between atoms: CA_9  and  C_12
REMARK    5  A    between atoms: C_10  and  C_11
REMARK    6  A    between atoms: C_20  and  C_21
REMARK    7  A    between atoms: C_22  and  C_24
REMARK                            x       y       z     vdW  Elec       q    Type
REMARK                         _______ _______ _______ _____ _____    ______ ____
ROOT
ATOM     11  C   UNL     1      15.648   7.136  19.297  0.00  0.00    -0.017 A 
ATOM     15  C   UNL     1      16.193   6.204  18.416  0.00  0.00    +0.008 A 
ATOM     16  C   UNL     1      16.342   7.491  20.455  0.00  0.00    +0.008 A 
ATOM     17  C   UNL     1      17.432   5.625  18.690  0.00  0.00    +0.023 A 
ATOM     18  C   UNL     1      17.581   6.913  20.729  0.00  0.00    +0.023 A 
ATOM     19  C   UNL     1      18.127   5.980  19.847  0.00  0.00    +0.034 A 
ENDROOT
BRANCH  11  10
ATOM      1  O   UNL     1      14.166   7.842  17.577  0.00  0.00    -0.361 OA
ATOM      3  O   UNL     1      10.650   8.527  17.375  0.00  0.00    -0.273 OA
ATOM      5  N   UNL     1      11.856   7.514  19.045  0.00  0.00    -0.306 N 
ATOM      9  CA  UNL     1      13.112   6.958  19.541  0.00  0.00    +0.131 C 
ATOM     10  C   UNL     1      14.303   7.765  19.001  0.00  0.00    +0.171 C 
ATOM     13  C   UNL     1      13.042   8.612  17.206  0.00  0.00    +0.256 C 
ATOM     14  C   UNL     1      11.735   8.201  17.857  0.00  0.00    +0.239 C 
ATOM     26  H   UNL     1      10.997   7.227  19.505  0.00  0.00    +0.149 HD
BRANCH   9  12
ATOM     12  C   UNL     1      13.085   6.903  21.066  0.00  0.00    +0.181 C 
BRANCH  12   2
ATOM      2  O   UNL     1      12.285   5.804  21.461  0.00  0.00    -0.393 OA
ATOM     27  H   UNL     1      12.843   5.009  21.408  0.00  0.00    +0.209 HD
ENDBRANCH  12   2
ENDBRANCH   9  12
ENDBRANCH  11  10
BRANCH  19   6
ATOM      4  O   UNL     1      20.728   7.251  20.626  0.00  0.00    -0.268 OA
ATOM      6  N   UNL     1      19.366   5.402  20.121  0.00  0.00    -0.280 N 
ATOM     20  C   UNL     1      20.558   6.045  20.482  0.00  0.00    +0.268 C 
ATOM     28  H   UNL     1      19.400   4.386  20.051  0.00  0.00    +0.155 HD
BRANCH  20  21
ATOM      7  N   UNL     1      23.715   4.524  20.844  0.00  0.00    -0.271 N 
ATOM      8  N   UNL     1      22.955   5.579  20.503  0.00  0.00    -0.167 NA
ATOM     21  C   UNL     1      21.714   5.148  20.739  0.00  0.00    +0.148 A 
ATOM     22  C   UNL     1      23.000   3.449  21.284  0.00  0.00    +0.037 A 
ATOM     23  C   UNL     1      21.681   3.828  21.227  0.00  0.00    +0.057 A 
ATOM     24  C   UNL     1      23.629   2.185  21.710  0.00  0.00    +0.065 C 
ATOM     25  C   UNL     1      25.151   4.619  20.719  0.00  0.00    +0.172 C 
ENDBRANCH  20  21
ENDBRANCH  19   6
TORSDOF 5
ENDMDL
MODEL 2
REMARK VINA RESULT:      -7.3      1.504      2.415
REMARK  Name = 71693258
REMARK  7 active torsions:
REMARK  status: ('A' for Active; 'I' for Inactive)
REMARK    1  A    between atoms: O_2  and  C_12
REMARK    2  A    between atoms: N_6  and  C_19
REMARK    3  A    between atoms: N_7  and  C_25
REMARK    4  A    between atoms: CA_9  and  C_12
REMARK    5  A    between atoms: C_10  and  C_11
REMARK    6  A    between atoms: C_20  and  C_21
REMARK    7  A    between atoms: C_22  and  C_24
REMARK                            x       y       z     vdW  Elec       q    Type
REMARK                         _______ _______ _______ _____ _____    ______ ____
ROOT
ATOM     11  C   UNL     1      15.803   6.810  19.842  0.00  0.00    -0.017 A 
ATOM     15  C   UNL     1      16.494   5.928  19.013  0.00  0.00    +0.008 A 
ATOM     16  C   UNL     1      16.487   7.524  20.827  0.00  0.00    +0.008 A 
ATOM     17  C   UNL     1      17.870   5.758  19.168  0.00  0.00    +0.023 A 
ATOM     18  C   UNL     1      17.863   7.355  20.982  0.00  0.00    +0.023 A 
ATOM     19  C   UNL     1      18.555   6.472  20.153  0.00  0.00    +0.034 A 
ENDROOT
BRANCH  11  10
ATOM      1  O   UNL     1      13.717   6.931  20.978  0.00  0.00    -0.361 OA
ATOM      3  O   UNL     1      10.473   8.250  20.197  0.00  0.00    -0.273 OA
ATOM      5  N   UNL     1      12.474   8.532  19.109  0.00  0.00    -0.306 N 
ATOM      9  CA  UNL     1      13.921   8.345  19.052  0.00  0.00    +0.131 C 
ATOM     10  C   UNL     1      14.310   6.995  19.675  0.00  0.00    +0.171 C 
ATOM     13  C   UNL     1      12.308   6.875  20.903  0.00  0.00    +0.256 C 
ATOM     14  C   UNL     1      11.662   7.961  20.064  0.00  0.00    +0.239 C 
ATOM     26  H   UNL     1      12.068   9.262  18.530  0.00  0.00    +0.149 HD
BRANCH   9  12
ATOM     12  C   UNL     1      14.401   8.484  17.609  0.00  0.00    +0.181 C 
BRANCH  12   2
ATOM      2  O   UNL     1      13.747   7.508  16.821  0.00  0.00    -0.393 OA
ATOM     27  H   UNL     1      13.550   7.917  15.962  0.00  0.00    +0.209 HD
ENDBRANCH  12   2
ENDBRANCH   9  12
ENDBRANCH  11  10
BRANCH  19   6
ATOM      4  O   UNL     1      20.168   5.857  22.604  0.00  0.00    -0.268 OA
ATOM      6  N   UNL     1      19.930   6.302  20.307  0.00  0.00    -0.280 N 
ATOM     20  C   UNL     1      20.638   6.014  21.482  0.00  0.00    +0.268 C 
ATOM     28  H   UNL     1      20.481   6.397  19.456  0.00  0.00    +0.155 HD
BRANCH  20  21
ATOM      7  N   UNL     1      23.922   5.088  20.603  0.00  0.00    -0.271 N 
ATOM      8  N   UNL     1      22.592   4.933  20.492  0.00  0.00    -0.167 NA
ATOM     21  C   UNL     1      22.107   5.862  21.320  0.00  0.00    +0.148 A 
ATOM     22  C   UNL     1      24.291   6.078  21.466  0.00  0.00    +0.037 A 
ATOM     23  C   UNL     1      23.121   6.606  21.954  0.00  0.00    +0.057 A 
ATOM     24  C   UNL     1      25.698   6.422  21.742  0.00  0.00    +0.065 C 
ATOM     25  C   UNL     1      24.799   4.235  19.835  0.00  0.00    +0.172 C 
ENDBRANCH  20  21
ENDBRANCH  19   6
TORSDOF 5
ENDMDL
MODEL 3
REMARK VINA RESULT:      -7.3      2.090      2.339
REMARK  Name = 71693258
REMARK  7 active torsions:
REMARK  status: ('A' for Active; 'I' for Inactive)
REMARK    1  A    between atoms: O_2  and  C_12
REMARK    2  A    between atoms: N_6  and  C_19
REMARK    3  A    between atoms: N_7  and  C_25
REMARK    4  A    between atoms: CA_9  and  C_12
REMARK    5  A    between atoms: C_10  and  C_11
REMARK    6  A    between atoms: C_20  and  C_21
REMARK    7  A    between atoms: C_22  and  C_24
REMARK                            x       y       z     vdW  Elec       q    Type
REMARK                         _______ _______ _______ _____ _____    ______ ____
ROOT
ATOM     11  C   UNL     1      15.097   7.907  19.749  0.00  0.00    -0.017 A 
ATOM     15  C   UNL     1      15.639   6.637  19.553  0.00  0.00    +0.008 A 
ATOM     16  C   UNL     1      15.675   8.776  20.676  0.00  0.00    +0.008 A 
ATOM     17  C   UNL     1      16.757   6.235  20.283  0.00  0.00    +0.023 A 
ATOM     18  C   UNL     1      16.792   8.373  21.407  0.00  0.00    +0.023 A 
ATOM     19  C   UNL     1      17.334   7.103  21.210  0.00  0.00    +0.034 A 
ENDROOT
BRANCH  11  10
ATOM      1  O   UNL     1      14.295   8.515  17.595  0.00  0.00    -0.361 OA
ATOM      3  O   UNL     1      11.066   8.669  16.038  0.00  0.00    -0.273 OA
ATOM      5  N   UNL     1      11.691   7.721  18.033  0.00  0.00    -0.306 N 
ATOM      9  CA  UNL     1      12.735   7.325  18.974  0.00  0.00    +0.131 C 
ATOM     10  C   UNL     1      13.884   8.345  18.957  0.00  0.00    +0.171 C 
ATOM     13  C   UNL     1      13.286   9.131  16.823  0.00  0.00    +0.256 C 
ATOM     14  C   UNL     1      11.920   8.475  16.902  0.00  0.00    +0.239 C 
ATOM     26  H   UNL     1      10.784   7.270  18.114  0.00  0.00    +0.149 HD
BRANCH   9  12
ATOM     12  C   UNL     1      12.133   7.144  20.365  0.00  0.00    +0.181 C 
BRANCH  12   2
ATOM      2  O   UNL     1      11.620   5.828  20.465  0.00  0.00    -0.393 OA
ATOM     27  H   UNL     1      10.718   5.897  20.821  0.00  0.00    +0.209 HD
ENDBRANCH  12   2
ENDBRANCH   9  12
ENDBRANCH  11  10
BRANCH  19   6
ATOM      4  O   UNL     1      20.197   6.820  20.368  0.00  0.00    -0.268 OA
ATOM      6  N   UNL     1      18.452   6.701  21.940  0.00  0.00    -0.280 N 
ATOM     20  C   UNL     1      19.777   6.584  21.496  0.00  0.00    +0.268 C 
ATOM     28  H   UNL     1      18.277   6.468  22.916  0.00  0.00    +0.155 HD
BRANCH  20  21
ATOM      7  N   UNL     1      21.671   6.003  24.409  0.00  0.00    -0.271 N 
ATOM      8  N   UNL     1      20.632   6.582  23.784  0.00  0.00    -0.167 NA
ATOM     21  C   UNL     1      20.759   6.155  22.525  0.00  0.00    +0.148 A 
ATOM     22  C   UNL     1      22.444   5.229  23.593  0.00  0.00    +0.037 A 
ATOM     23  C   UNL     1      21.870   5.309  22.348  0.00  0.00    +0.057 A 
ATOM     24  C   UNL     1      23.635   4.501  24.067  0.00  0.00    +0.065 C 
ATOM     25  C   UNL     1      21.867   6.241  25.820  0.00  0.00    +0.172 C 
ENDBRANCH  20  21
ENDBRANCH  19   6
TORSDOF 5
ENDMDL
MODEL 4
REMARK VINA RESULT:      -6.9     28.237     31.706
REMARK  Name = 71693258
REMARK  7 active torsions:
REMARK  status: ('A' for Active; 'I' for Inactive)
REMARK    1  A    between atoms: O_2  and  C_12
REMARK    2  A    between atoms: N_6  and  C_19
REMARK    3  A    between atoms: N_7  and  C_25
REMARK    4  A    between atoms: CA_9  and  C_12
REMARK    5  A    between atoms: C_10  and  C_11
REMARK    6  A    between atoms: C_20  and  C_21
REMARK    7  A    between atoms: C_22  and  C_24
REMARK                            x       y       z     vdW  Elec       q    Type
REMARK                         _______ _______ _______ _____ _____    ______ ____
ROOT
ATOM     11  C   UNL     1     -12.430   8.659  19.209  0.00  0.00    -0.017 A 
ATOM     15  C   UNL     1     -13.809   8.483  19.099  0.00  0.00    +0.008 A 
ATOM     16  C   UNL     1     -11.690   7.847  20.071  0.00  0.00    +0.008 A 
ATOM     17  C   UNL     1     -14.449   7.497  19.850  0.00  0.00    +0.023 A 
ATOM     18  C   UNL     1     -12.331   6.861  20.821  0.00  0.00    +0.023 A 
ATOM     19  C   UNL     1     -13.710   6.686  20.711  0.00  0.00    +0.034 A 
ENDROOT
BRANCH  11  10
ATOM      1  O   UNL     1     -11.277  10.736  19.306  0.00  0.00    -0.361 OA
ATOM      3  O   UNL     1      -9.035  12.499  17.129  0.00  0.00    -0.273 OA
ATOM      5  N   UNL     1      -9.783  10.331  17.024  0.00  0.00    -0.306 N 
ATOM      9  CA  UNL     1     -10.514   9.214  17.617  0.00  0.00    +0.131 C 
ATOM     10  C   UNL     1     -11.734   9.728  18.396  0.00  0.00    +0.171 C 
ATOM     13  C   UNL     1     -10.809  11.878  18.620  0.00  0.00    +0.256 C 
ATOM     14  C   UNL     1      -9.776  11.607  17.544  0.00  0.00    +0.239 C 
ATOM     26  H   UNL     1      -9.102  10.121  16.300  0.00  0.00    +0.149 HD
BRANCH   9  12
ATOM     12  C   UNL     1     -10.892   8.212  16.529  0.00  0.00    +0.181 C 
BRANCH  12   2
ATOM      2  O   UNL     1     -10.110   7.045  16.701  0.00  0.00    -0.393 OA
ATOM     27  H   UNL     1      -9.214   7.333  16.946  0.00  0.00    +0.209 HD
ENDBRANCH  12   2
ENDBRANCH   9  12
ENDBRANCH  11  10
BRANCH  19   6
ATOM      4  O   UNL     1     -15.277   6.901  23.258  0.00  0.00    -0.268 OA
ATOM      6  N   UNL     1     -14.350   5.699  21.461  0.00  0.00    -0.280 N 
ATOM     20  C   UNL     1     -15.074   5.854  22.651  0.00  0.00    +0.268 C 
ATOM     28  H   UNL     1     -14.283   4.754  21.089  0.00  0.00    +0.155 HD
BRANCH  20  21
ATOM      7  N   UNL     1     -16.821   2.855  23.257  0.00  0.00    -0.271 N 
ATOM      8  N   UNL     1     -16.491   3.875  22.447  0.00  0.00    -0.167 NA
ATOM     21  C   UNL     1     -15.669   4.609  23.202  0.00  0.00    +0.148 A 
ATOM     22  C   UNL     1     -16.239   2.920  24.489  0.00  0.00    +0.037 A 
ATOM     23  C   UNL     1     -15.476   4.062  24.484  0.00  0.00    +0.057 A 
ATOM     24  C   UNL     1     -16.461   1.907  25.538  0.00  0.00    +0.065 C 
ATOM     25  C   UNL     1     -17.719   1.832  22.774  0.00  0.00    +0.172 C 
ENDBRANCH  20  21
ENDBRANCH  19   6
TORSDOF 5
ENDMDL
MODEL 5
REMARK VINA RESULT:      -6.6     27.492     31.985
REMARK  Name = 71693258
REMARK  7 active torsions:
REMARK  status: ('A' for Active; 'I' for Inactive)
REMARK    1  A    between atoms: O_2  and  C_12
REMARK    2  A    between atoms: N_6  and  C_19
REMARK    3  A    between atoms: N_7  and  C_25
REMARK    4  A    between atoms: CA_9  and  C_12
REMARK    5  A    between atoms: C_10  and  C_11
REMARK    6  A    between atoms: C_20  and  C_21
REMARK    7  A    between atoms: C_22  and  C_24
REMARK                            x       y       z     vdW  Elec       q    Type
REMARK                         _______ _______ _______ _____ _____    ______ ____
ROOT
ATOM     11  C   UNL     1      -6.261 -11.087  16.941  0.00  0.00    -0.017 A 
ATOM     15  C   UNL     1      -7.130 -12.142  17.216  0.00  0.00    +0.008 A 
ATOM     16  C   UNL     1      -6.704  -9.769  17.062  0.00  0.00    +0.008 A 
ATOM     17  C   UNL     1      -8.442 -11.881  17.612  0.00  0.00    +0.023 A 
ATOM     18  C   UNL     1      -8.016  -9.508  17.458  0.00  0.00    +0.023 A 
ATOM     19  C   UNL     1      -8.885 -10.563  17.733  0.00  0.00    +0.034 A 
ENDROOT
BRANCH  11  10
ATOM      1  O   UNL     1      -4.548 -10.524  15.391  0.00  0.00    -0.361 OA
ATOM      3  O   UNL     1      -0.979 -10.885  15.309  0.00  0.00    -0.273 OA
ATOM      5  N   UNL     1      -2.445 -11.174  17.052  0.00  0.00    -0.306 N 
ATOM      9  CA  UNL     1      -3.795 -11.073  17.601  0.00  0.00    +0.131 C 
ATOM     10  C   UNL     1      -4.838 -11.369  16.512  0.00  0.00    +0.171 C 
ATOM     13  C   UNL     1      -3.320 -10.872  14.786  0.00  0.00    +0.256 C 
ATOM     14  C   UNL     1      -2.135 -10.951  15.728  0.00  0.00    +0.239 C 
ATOM     26  H   UNL     1      -1.670 -11.233  17.707  0.00  0.00    +0.149 HD
BRANCH   9  12
ATOM     12  C   UNL     1      -3.929 -11.997  18.809  0.00  0.00    +0.181 C 
BRANCH  12   2
ATOM      2  O   UNL     1      -2.684 -12.043  19.480  0.00  0.00    -0.393 OA
ATOM     27  H   UNL     1      -1.992 -11.905  18.811  0.00  0.00    +0.209 HD
ENDBRANCH  12   2
ENDBRANCH   9  12
ENDBRANCH  11  10
BRANCH  19   6
ATOM      4  O   UNL     1     -10.100 -10.478  20.472  0.00  0.00    -0.268 OA
ATOM      6  N   UNL     1     -10.196 -10.303  18.129  0.00  0.00    -0.280 N 
ATOM     20  C   UNL     1     -10.715 -10.275  19.431  0.00  0.00    +0.268 C 
ATOM     28  H   UNL     1     -10.850 -10.106  17.374  0.00  0.00    +0.155 HD
BRANCH  20  21
ATOM      7  N   UNL     1     -14.117  -9.522  18.902  0.00  0.00    -0.271 N 
ATOM      8  N   UNL     1     -12.898  -9.831  18.427  0.00  0.00    -0.167 NA
ATOM     21  C   UNL     1     -12.158  -9.936  19.534  0.00  0.00    +0.148 A 
ATOM     22  C   UNL     1     -14.172  -9.431  20.262  0.00  0.00    +0.037 A 
ATOM     23  C   UNL     1     -12.900  -9.698  20.707  0.00  0.00    +0.057 A 
ATOM     24  C   UNL     1     -15.407  -9.104  20.997  0.00  0.00    +0.065 C 
ATOM     25  C   UNL     1     -15.206  -9.325  17.974  0.00  0.00    +0.172 C 
ENDBRANCH  20  21
ENDBRANCH  19   6
TORSDOF 5
ENDMDL
MODEL 6
REMARK VINA RESULT:      -6.5      5.584      9.325
REMARK  Name = 71693258
REMARK  7 active torsions:
REMARK  status: ('A' for Active; 'I' for Inactive)
REMARK    1  A    between atoms: O_2  and  C_12
REMARK    2  A    between atoms: N_6  and  C_19
REMARK    3  A    between atoms: N_7  and  C_25
REMARK    4  A    between atoms: CA_9  and  C_12
REMARK    5  A    between atoms: C_10  and  C_11
REMARK    6  A    between atoms: C_20  and  C_21
REMARK    7  A    between atoms: C_22  and  C_24
REMARK                            x       y       z     vdW  Elec       q    Type
REMARK                         _______ _______ _______ _____ _____    ______ ____
ROOT
ATOM     11  C   UNL     1      13.517   9.059  18.311  0.00  0.00    -0.017 A 
ATOM     15  C   UNL     1      14.134  10.302  18.453  0.00  0.00    +0.008 A 
ATOM     16  C   UNL     1      13.380   8.489  17.045  0.00  0.00    +0.008 A 
ATOM     17  C   UNL     1      14.613  10.975  17.329  0.00  0.00    +0.023 A 
ATOM     18  C   UNL     1      13.859   9.162  15.921  0.00  0.00    +0.023 A 
ATOM     19  C   UNL     1      14.475  10.404  16.063  0.00  0.00    +0.034 A 
ENDROOT
BRANCH  11  10
ATOM      1  O   UNL     1      11.572   8.235  19.404  0.00  0.00    -0.361 OA
ATOM      3  O   UNL     1      10.932   5.774  21.935  0.00  0.00    -0.273 OA
ATOM      5  N   UNL     1      12.850   6.195  20.747  0.00  0.00    -0.306 N 
ATOM      9  CA  UNL     1      13.546   6.900  19.674  0.00  0.00    +0.131 C 
ATOM     10  C   UNL     1      12.997   8.328  19.530  0.00  0.00    +0.171 C 
ATOM     13  C   UNL     1      10.977   7.764  20.595  0.00  0.00    +0.256 C 
ATOM     14  C   UNL     1      11.560   6.475  21.141  0.00  0.00    +0.239 C 
ATOM     26  H   UNL     1      13.267   5.338  21.099  0.00  0.00    +0.149 HD
BRANCH   9  12
ATOM     12  C   UNL     1      15.050   6.874  19.931  0.00  0.00    +0.181 C 
BRANCH  12   2
ATOM      2  O   UNL     1      15.289   6.156  21.128  0.00  0.00    -0.393 OA
ATOM     27  H   UNL     1      14.820   5.308  21.053  0.00  0.00    +0.209 HD
ENDBRANCH  12   2
ENDBRANCH   9  12
ENDBRANCH  11  10
BRANCH  19   6
ATOM      4  O   UNL     1      12.993  11.750  13.831  0.00  0.00    -0.268 OA
ATOM      6  N   UNL     1      14.955  11.078  14.940  0.00  0.00    -0.280 N 
ATOM     20  C   UNL     1      14.215  11.692  13.920  0.00  0.00    +0.268 C 
ATOM     28  H   UNL     1      15.969  11.128  14.860  0.00  0.00    +0.155 HD
BRANCH  20  21
ATOM      7  N   UNL     1      15.595  13.843  11.495  0.00  0.00    -0.271 N 
ATOM      8  N   UNL     1      14.659  13.568  12.419  0.00  0.00    -0.167 NA
ATOM     21  C   UNL     1      15.018  12.360  12.863  0.00  0.00    +0.148 A 
ATOM     22  C   UNL     1      16.526  12.859  11.342  0.00  0.00    +0.037 A 
ATOM     23  C   UNL     1      16.175  11.870  12.228  0.00  0.00    +0.057 A 
ATOM     24  C   UNL     1      17.643  12.949  10.384  0.00  0.00    +0.065 C 
ATOM     25  C   UNL     1      15.533  15.098  10.781  0.00  0.00    +0.172 C 
ENDBRANCH  20  21
ENDBRANCH  19   6
TORSDOF 5
ENDMDL
MODEL 7
REMARK VINA RESULT:      -6.2     27.103     31.363
REMARK  Name = 71693258
REMARK  7 active torsions:
REMARK  status: ('A' for Active; 'I' for Inactive)
REMARK    1  A    between atoms: O_2  and  C_12
REMARK    2  A    between atoms: N_6  and  C_19
REMARK    3  A    between atoms: N_7  and  C_25
REMARK    4  A    between atoms: CA_9  and  C_12
REMARK    5  A    between atoms: C_10  and  C_11
REMARK    6  A    between atoms: C_20  and  C_21
REMARK    7  A    between atoms: C_22  and  C_24
REMARK                            x       y       z     vdW  Elec       q    Type
REMARK                         _______ _______ _______ _____ _____    ______ ____
ROOT
ATOM     11  C   UNL     1      -5.703 -11.061  15.418  0.00  0.00    -0.017 A 
ATOM     15  C   UNL     1      -6.192  -9.840  15.881  0.00  0.00    +0.008 A 
ATOM     16  C   UNL     1      -6.363 -12.246  15.747  0.00  0.00    +0.008 A 
ATOM     17  C   UNL     1      -7.340  -9.802  16.672  0.00  0.00    +0.023 A 
ATOM     18  C   UNL     1      -7.511 -12.208  16.538  0.00  0.00    +0.023 A 
ATOM     19  C   UNL     1      -8.000 -10.987  17.001  0.00  0.00    +0.034 A 
ENDROOT
BRANCH  11  10
ATOM      1  O   UNL     1      -4.762 -10.443  13.324  0.00  0.00    -0.361 OA
ATOM      3  O   UNL     1      -1.429 -10.030  12.061  0.00  0.00    -0.273 OA
ATOM      5  N   UNL     1      -2.159 -10.296  14.221  0.00  0.00    -0.306 N 
ATOM      9  CA  UNL     1      -3.252 -10.388  15.186  0.00  0.00    +0.131 C 
ATOM     10  C   UNL     1      -4.458 -11.103  14.559  0.00  0.00    +0.171 C 
ATOM     13  C   UNL     1      -3.732 -10.624  12.374  0.00  0.00    +0.256 C 
ATOM     14  C   UNL     1      -2.339 -10.265  12.856  0.00  0.00    +0.239 C 
ATOM     26  H   UNL     1      -1.235 -10.061  14.573  0.00  0.00    +0.149 HD
BRANCH   9  12
ATOM     12  C   UNL     1      -2.759 -11.074  16.457  0.00  0.00    +0.181 C 
BRANCH  12   2
ATOM      2  O   UNL     1      -1.343 -11.060  16.456  0.00  0.00    -0.393 OA
ATOM     27  H   UNL     1      -1.055 -11.074  17.384  0.00  0.00    +0.209 HD
ENDBRANCH  12   2
ENDBRANCH   9  12
ENDBRANCH  11  10
BRANCH  19   6
ATOM      4  O   UNL     1      -8.308 -11.181  19.977  0.00  0.00    -0.268 OA
ATOM      6  N   UNL     1      -9.148 -10.948  17.792  0.00  0.00    -0.280 N 
ATOM     20  C   UNL     1      -9.238 -11.044  19.187  0.00  0.00    +0.268 C 
ATOM     28  H   UNL     1     -10.024 -10.832  17.286  0.00  0.00    +0.155 HD
BRANCH  20  21
ATOM      7  N   UNL     1     -12.347 -11.510  20.777  0.00  0.00    -0.271 N 
ATOM      8  N   UNL     1     -11.125 -11.957  20.441  0.00  0.00    -0.167 NA
ATOM     21  C   UNL     1     -10.610 -10.939  19.746  0.00  0.00    +0.148 A 
ATOM     22  C   UNL     1     -12.619 -10.253  20.323  0.00  0.00    +0.037 A 
ATOM     23  C   UNL     1     -11.496  -9.850  19.642  0.00  0.00    +0.057 A 
ATOM     24  C   UNL     1     -13.899  -9.566  20.576  0.00  0.00    +0.065 C 
ATOM     25  C   UNL     1     -13.220 -12.360  21.553  0.00  0.00    +0.172 C 
ENDBRANCH  20  21
ENDBRANCH  19   6
TORSDOF 5
ENDMDL
MODEL 8
REMARK VINA RESULT:      -6.1     28.713     32.067
REMARK  Name = 71693258
REMARK  7 active torsions:
REMARK  status: ('A' for Active; 'I' for Inactive)
REMARK    1  A    between atoms: O_2  and  C_12
REMARK    2  A    between atoms: N_6  and  C_19
REMARK    3  A    between atoms: N_7  and  C_25
REMARK    4  A    between atoms: CA_9  and  C_12
REMARK    5  A    between atoms: C_10  and  C_11
REMARK    6  A    between atoms: C_20  and  C_21
REMARK    7  A    between atoms: C_22  and  C_24
REMARK                            x       y       z     vdW  Elec       q    Type
REMARK                         _______ _______ _______ _____ _____    ______ ____
ROOT
ATOM     11  C   UNL     1     -12.310  -6.492  14.268  0.00  0.00    -0.017 A 
ATOM     15  C   UNL     1     -11.975  -7.785  13.869  0.00  0.00    +0.008 A 
ATOM     16  C   UNL     1     -11.549  -5.842  15.241  0.00  0.00    +0.008 A 
ATOM     17  C   UNL     1     -10.879  -8.430  14.443  0.00  0.00    +0.023 A 
ATOM     18  C   UNL     1     -10.453  -6.487  15.814  0.00  0.00    +0.023 A 
ATOM     19  C   UNL     1     -10.118  -7.780  15.415  0.00  0.00    +0.034 A 
ENDROOT
BRANCH  11  10
ATOM      1  O   UNL     1     -13.245  -5.671  12.242  0.00  0.00    -0.361 OA
ATOM      3  O   UNL     1     -16.547  -4.809  11.134  0.00  0.00    -0.273 OA
ATOM      5  N   UNL     1     -15.876  -5.922  13.026  0.00  0.00    -0.306 N 
ATOM      9  CA  UNL     1     -14.822  -6.551  13.818  0.00  0.00    +0.131 C 
ATOM     10  C   UNL     1     -13.499  -5.791  13.647  0.00  0.00    +0.171 C 
ATOM     13  C   UNL     1     -14.196  -4.837  11.613  0.00  0.00    +0.256 C 
ATOM     14  C   UNL     1     -15.646  -5.200  11.876  0.00  0.00    +0.239 C 
ATOM     26  H   UNL     1     -16.838  -6.178  13.229  0.00  0.00    +0.149 HD
BRANCH   9  12
ATOM     12  C   UNL     1     -15.261  -6.643  15.278  0.00  0.00    +0.181 C 
BRANCH  12   2
ATOM      2  O   UNL     1     -16.552  -6.074  15.395  0.00  0.00    -0.393 OA
ATOM     27  H   UNL     1     -16.765  -5.665  14.540  0.00  0.00    +0.209 HD
ENDBRANCH  12   2
ENDBRANCH   9  12
ENDBRANCH  11  10
BRANCH  19   6
ATOM      4  O   UNL     1      -9.873  -9.235  18.026  0.00  0.00    -0.268 OA
ATOM      6  N   UNL     1      -9.022  -8.426  15.988  0.00  0.00    -0.280 N 
ATOM     20  C   UNL     1      -8.960  -9.094  17.218  0.00  0.00    +0.268 C 
ATOM     28  H   UNL     1      -8.166  -8.408  15.436  0.00  0.00    +0.155 HD
BRANCH  20  21
ATOM      7  N   UNL     1      -5.628 -10.237  17.317  0.00  0.00    -0.271 N 
ATOM      8  N   UNL     1      -6.617  -9.559  16.709  0.00  0.00    -0.167 NA
ATOM     21  C   UNL     1      -7.648  -9.712  17.543  0.00  0.00    +0.148 A 
ATOM     22  C   UNL     1      -5.998 -10.807  18.499  0.00  0.00    +0.037 A 
ATOM     23  C   UNL     1      -7.320 -10.481  18.676  0.00  0.00    +0.057 A 
ATOM     24  C   UNL     1      -5.075 -11.597  19.335  0.00  0.00    +0.065 C 
ATOM     25  C   UNL     1      -4.326 -10.296  16.694  0.00  0.00    +0.172 C 
ENDBRANCH  20  21
ENDBRANCH  19   6
TORSDOF 5
ENDMDL
MODEL 9
REMARK VINA RESULT:      -6.1     28.687     32.306
REMARK  Name = 71693258
REMARK  7 active torsions:
REMARK  status: ('A' for Active; 'I' for Inactive)
REMARK    1  A    between atoms: O_2  and  C_12
REMARK    2  A    between atoms: N_6  and  C_19
REMARK    3  A    between atoms: N_7  and  C_25
REMARK    4  A    between atoms: CA_9  and  C_12
REMARK    5  A    between atoms: C_10  and  C_11
REMARK    6  A    between atoms: C_20  and  C_21
REMARK    7  A    between atoms: C_22  and  C_24
REMARK                            x       y       z     vdW  Elec       q    Type
REMARK                         _______ _______ _______ _____ _____    ______ ____
ROOT
ATOM     11  C   UNL     1      -7.662 -10.175  16.945  0.00  0.00    -0.017 A 
ATOM     15  C   UNL     1      -8.204 -10.585  15.727  0.00  0.00    +0.008 A 
ATOM     16  C   UNL     1      -8.076  -8.973  17.523  0.00  0.00    +0.008 A 
ATOM     17  C   UNL     1      -9.158  -9.795  15.086  0.00  0.00    +0.023 A 
ATOM     18  C   UNL     1      -9.030  -8.183  16.882  0.00  0.00    +0.023 A 
ATOM     19  C   UNL     1      -9.571  -8.593  15.664  0.00  0.00    +0.034 A 
ENDROOT
BRANCH  11  10
ATOM      1  O   UNL     1      -5.339 -10.472  17.355  0.00  0.00    -0.361 OA
ATOM      3  O   UNL     1      -3.398 -12.214  19.819  0.00  0.00    -0.273 OA
ATOM      5  N   UNL     1      -5.645 -11.747  19.781  0.00  0.00    -0.306 N 
ATOM      9  CA  UNL     1      -6.788 -11.074  19.169  0.00  0.00    +0.131 C 
ATOM     10  C   UNL     1      -6.627 -11.031  17.641  0.00  0.00    +0.171 C 
ATOM     13  C   UNL     1      -4.299 -11.327  17.780  0.00  0.00    +0.256 C 
ATOM     14  C   UNL     1      -4.386 -11.782  19.224  0.00  0.00    +0.239 C 
ATOM     26  H   UNL     1      -5.735 -12.048  20.747  0.00  0.00    +0.149 HD
BRANCH   9  12
ATOM     12  C   UNL     1      -8.082 -11.759  19.603  0.00  0.00    +0.181 C 
BRANCH  12   2
ATOM      2  O   UNL     1      -8.923 -10.792  20.203  0.00  0.00    -0.393 OA
ATOM     27  H   UNL     1      -9.827 -10.965  19.891  0.00  0.00    +0.209 HD
ENDBRANCH  12   2
ENDBRANCH   9  12
ENDBRANCH  11  10
BRANCH  19   6
ATOM      4  O   UNL     1     -12.438  -8.068  16.367  0.00  0.00    -0.268 OA
ATOM      6  N   UNL     1     -10.526  -7.804  15.023  0.00  0.00    -0.280 N 
ATOM     20  C   UNL     1     -11.860  -7.591  15.395  0.00  0.00    +0.268 C 
ATOM     28  H   UNL     1     -10.205  -7.324  14.185  0.00  0.00    +0.155 HD
BRANCH  20  21
ATOM      7  N   UNL     1     -13.005  -5.008  13.290  0.00  0.00    -0.271 N 
ATOM      8  N   UNL     1     -12.028  -5.587  14.009  0.00  0.00    -0.167 NA
ATOM     21  C   UNL     1     -12.626  -6.666  14.520  0.00  0.00    +0.148 A 
ATOM     22  C   UNL     1     -14.191  -5.681  13.328  0.00  0.00    +0.037 A 
ATOM     23  C   UNL     1     -13.974  -6.776  14.128  0.00  0.00    +0.057 A 
ATOM     24  C   UNL     1     -15.397  -5.227  12.612  0.00  0.00    +0.065 C 
ATOM     25  C   UNL     1     -12.725  -3.784  12.576  0.00  0.00    +0.172 C 
ENDBRANCH  20  21
ENDBRANCH  19   6
TORSDOF 5
ENDMDL
MODEL 10
REMARK VINA RESULT:      -6.1     17.217     20.669
REMARK  Name = 71693258
REMARK  7 active torsions:
REMARK  status: ('A' for Active; 'I' for Inactive)
REMARK    1  A    between atoms: O_2  and  C_12
REMARK    2  A    between atoms: N_6  and  C_19
REMARK    3  A    between atoms: N_7  and  C_25
REMARK    4  A    between atoms: CA_9  and  C_12
REMARK    5  A    between atoms: C_10  and  C_11
REMARK    6  A    between atoms: C_20  and  C_21
REMARK    7  A    between atoms: C_22  and  C_24
REMARK                            x       y       z     vdW  Elec       q    Type
REMARK                         _______ _______ _______ _____ _____    ______ ____
ROOT
ATOM     11  C   UNL     1      12.238   3.620  -0.471  0.00  0.00    -0.017 A 
ATOM     15  C   UNL     1      12.987   3.196   0.626  0.00  0.00    +0.008 A 
ATOM     16  C   UNL     1      11.059   4.340  -0.274  0.00  0.00    +0.008 A 
ATOM     17  C   UNL     1      12.558   3.491   1.919  0.00  0.00    +0.023 A 
ATOM     18  C   UNL     1      10.630   4.635   1.020  0.00  0.00    +0.023 A 
ATOM     19  C   UNL     1      11.379   4.211   2.117  0.00  0.00    +0.034 A 
ENDROOT
BRANCH  11  10
ATOM      1  O   UNL     1      11.544   3.271  -2.719  0.00  0.00    -0.361 OA
ATOM      3  O   UNL     1      13.161   3.365  -5.920  0.00  0.00    -0.273 OA
ATOM      5  N   UNL     1      13.916   4.074  -3.871  0.00  0.00    -0.306 N 
ATOM      9  CA  UNL     1      13.674   4.340  -2.456  0.00  0.00    +0.131 C 
ATOM     10  C   UNL     1      12.702   3.301  -1.876  0.00  0.00    +0.171 C 
ATOM     13  C   UNL     1      11.851   2.767  -4.002  0.00  0.00    +0.256 C 
ATOM     14  C   UNL     1      13.015   3.443  -4.700  0.00  0.00    +0.239 C 
ATOM     26  H   UNL     1      14.707   4.535  -4.311  0.00  0.00    +0.149 HD
BRANCH   9  12
ATOM     12  C   UNL     1      15.003   4.382  -1.706  0.00  0.00    +0.181 C 
BRANCH  12   2
ATOM      2  O   UNL     1      15.105   5.628  -1.041  0.00  0.00    -0.393 OA
ATOM     27  H   UNL     1      14.518   5.589  -0.268  0.00  0.00    +0.209 HD
ENDBRANCH  12   2
ENDBRANCH   9  12
ENDBRANCH  11  10
BRANCH  19   6
ATOM      4  O   UNL     1      11.118   6.849   3.516  0.00  0.00    -0.268 OA
ATOM      6  N   UNL     1      10.951   4.506   3.411  0.00  0.00    -0.280 N 
ATOM     20  C   UNL     1      10.848   5.764   4.020  0.00  0.00    +0.268 C 
ATOM     28  H   UNL     1      10.679   3.703   3.975  0.00  0.00    +0.155 HD
BRANCH  20  21
ATOM      7  N   UNL     1       9.473   6.500   7.180  0.00  0.00    -0.271 N 
ATOM      8  N   UNL     1       9.840   6.881   5.944  0.00  0.00    -0.167 NA
ATOM     21  C   UNL     1      10.327   5.757   5.412  0.00  0.00    +0.148 A 
ATOM     22  C   UNL     1       9.709   5.182   7.442  0.00  0.00    +0.037 A 
ATOM     23  C   UNL     1      10.270   4.667   6.300  0.00  0.00    +0.057 A 
ATOM     24  C   UNL     1       9.385   4.549   8.734  0.00  0.00    +0.065 C 
ATOM     25  C   UNL     1       8.890   7.472   8.074  0.00  0.00    +0.172 C 
ENDBRANCH  20  21
ENDBRANCH  19   6
TORSDOF 5
ENDMDL
