MODEL 1
REMARK VINA RESULT:      -5.6      0.000      0.000
REMARK  Name = 71694017
REMARK  7 active torsions:
REMARK  status: ('A' for Active; 'I' for Inactive)
REMARK    1  A    between atoms: S_1  and  N_6
REMARK    2  A    between atoms: S_1  and  C_16
REMARK    3  A    between atoms: O_2  and  C_10
REMARK    4  A    between atoms: O_3  and  C_12
REMARK    5  A    between atoms: N_6  and  C_8
REMARK    6  A    between atoms: C_9  and  C_13
REMARK    7  A    between atoms: C_24  and  C_25
REMARK                            x       y       z     vdW  Elec       q    Type
REMARK                         _______ _______ _______ _____ _____    ______ ____
ROOT
ATOM      8  C   UNL     1      -9.234 -11.125  17.836  0.00  0.00    +0.115 C 
ATOM      9  C   UNL     1      -8.673 -12.391  18.514  0.00  0.00    +0.043 C 
ATOM     10  C   UNL     1     -10.616 -10.961  18.463  0.00  0.00    +0.162 C 
ATOM     11  C   UNL     1      -9.447 -12.530  19.851  0.00  0.00    +0.043 C 
ATOM     12  C   UNL     1     -10.373 -11.318  19.925  0.00  0.00    +0.145 C 
ENDROOT
BRANCH   9  13
ATOM     13  C   UNL     1      -7.167 -12.361  18.667  0.00  0.00    -0.043 A 
ATOM     14  C   UNL     1      -6.370 -13.189  17.877  0.00  0.00    +0.004 A 
ATOM     15  C   UNL     1      -6.576 -11.506  19.598  0.00  0.00    +0.004 A 
ATOM     17  C   UNL     1      -4.982 -13.162  18.018  0.00  0.00    +0.000 A 
ATOM     18  C   UNL     1      -5.189 -11.479  19.739  0.00  0.00    +0.000 A 
ATOM     19  C   UNL     1      -4.392 -12.308  18.949  0.00  0.00    +0.000 A 
ENDBRANCH   9  13
BRANCH  10   2
ATOM      2  O   UNL     1     -11.111  -9.642  18.333  0.00  0.00    -0.388 OA
ATOM     27  H   UNL     1     -11.224  -9.282  19.229  0.00  0.00    +0.210 HD
ENDBRANCH  10   2
BRANCH  12   3
ATOM      3  O   UNL     1      -9.695 -10.264  20.601  0.00  0.00    -0.389 OA
ATOM     28  H   UNL     1     -10.290  -9.932  21.295  0.00  0.00    +0.210 HD
ENDBRANCH  12   3
BRANCH   8   6
ATOM      6  N   UNL     1      -9.360 -11.338  16.375  0.00  0.00    -0.184 NA
ATOM     26  H   UNL     1      -9.567 -12.286  16.040  0.00  0.00    +0.148 HD
BRANCH   6   1
ATOM      1  S   UNL     1      -8.800 -10.153  15.295  0.00  0.00    +0.059 S 
ATOM      4  O   UNL     1      -9.153  -8.838  15.795  0.00  0.00    -0.153 OA
ATOM      5  O   UNL     1      -9.160 -10.543  13.945  0.00  0.00    -0.153 OA
BRANCH   1  16
ATOM     16  C   UNL     1      -7.046 -10.335  15.434  0.00  0.00    +0.105 A 
ATOM     20  C   UNL     1      -6.374 -11.250  14.624  0.00  0.00    +0.030 A 
ATOM     21  C   UNL     1      -6.336  -9.563  16.353  0.00  0.00    +0.030 A 
ATOM     22  C   UNL     1      -4.991 -11.394  14.733  0.00  0.00    +0.021 A 
ATOM     23  C   UNL     1      -4.953  -9.707  16.462  0.00  0.00    +0.021 A 
ATOM     24  C   UNL     1      -4.280 -10.621  15.652  0.00  0.00    +0.052 A 
BRANCH  24  25
ATOM      7  N   UNL     1      -1.712 -10.890  15.855  0.00  0.00    -0.191 NA
ATOM     25  C   UNL     1      -2.863 -10.769  15.764  0.00  0.00    +0.099 C 
ENDBRANCH  24  25
ENDBRANCH   1  16
ENDBRANCH   6   1
ENDBRANCH   8   6
TORSDOF 7
ENDMDL
MODEL 2
REMARK VINA RESULT:      -5.6     27.763     30.232
REMARK  Name = 71694017
REMARK  7 active torsions:
REMARK  status: ('A' for Active; 'I' for Inactive)
REMARK    1  A    between atoms: S_1  and  N_6
REMARK    2  A    between atoms: S_1  and  C_16
REMARK    3  A    between atoms: O_2  and  C_10
REMARK    4  A    between atoms: O_3  and  C_12
REMARK    5  A    between atoms: N_6  and  C_8
REMARK    6  A    between atoms: C_9  and  C_13
REMARK    7  A    between atoms: C_24  and  C_25
REMARK                            x       y       z     vdW  Elec       q    Type
REMARK                         _______ _______ _______ _____ _____    ______ ____
ROOT
ATOM      8  C   UNL     1      13.777  10.542  17.987  0.00  0.00    +0.115 C 
ATOM      9  C   UNL     1      13.859   9.066  18.427  0.00  0.00    +0.043 C 
ATOM     10  C   UNL     1      14.003  10.482  16.479  0.00  0.00    +0.162 C 
ATOM     11  C   UNL     1      13.534   8.231  17.161  0.00  0.00    +0.043 C 
ATOM     12  C   UNL     1      13.217   9.244  16.063  0.00  0.00    +0.145 C 
ENDROOT
BRANCH   9  13
ATOM     13  C   UNL     1      12.981   8.756  19.621  0.00  0.00    -0.043 A 
ATOM     14  C   UNL     1      11.596   8.683  19.467  0.00  0.00    +0.004 A 
ATOM     15  C   UNL     1      13.555   8.544  20.874  0.00  0.00    +0.004 A 
ATOM     17  C   UNL     1      10.787   8.398  20.567  0.00  0.00    +0.000 A 
ATOM     18  C   UNL     1      12.745   8.259  21.974  0.00  0.00    +0.000 A 
ATOM     19  C   UNL     1      11.361   8.187  21.820  0.00  0.00    +0.000 A 
ENDBRANCH   9  13
BRANCH  10   2
ATOM      2  O   UNL     1      13.524  11.638  15.818  0.00  0.00    -0.388 OA
ATOM     27  H   UNL     1      12.553  11.622  15.866  0.00  0.00    +0.210 HD
ENDBRANCH  10   2
BRANCH  12   3
ATOM      3  O   UNL     1      11.816   9.503  16.069  0.00  0.00    -0.389 OA
ATOM     28  H   UNL     1      11.412   8.933  15.393  0.00  0.00    +0.210 HD
ENDBRANCH  12   3
BRANCH   8   6
ATOM      6  N   UNL     1      14.852  11.331  18.632  0.00  0.00    -0.184 NA
ATOM     26  H   UNL     1      15.732  10.853  18.864  0.00  0.00    +0.148 HD
BRANCH   6   1
ATOM      1  S   UNL     1      14.500  12.847  19.310  0.00  0.00    +0.059 S 
ATOM      4  O   UNL     1      13.579  13.561  18.445  0.00  0.00    -0.153 OA
ATOM      5  O   UNL     1      15.740  13.472  19.730  0.00  0.00    -0.153 OA
BRANCH   1  16
ATOM     16  C   UNL     1      13.627  12.395  20.780  0.00  0.00    +0.105 A 
ATOM     20  C   UNL     1      12.233  12.331  20.771  0.00  0.00    +0.030 A 
ATOM     21  C   UNL     1      14.332  12.103  21.947  0.00  0.00    +0.030 A 
ATOM     22  C   UNL     1      11.545  11.975  21.931  0.00  0.00    +0.021 A 
ATOM     23  C   UNL     1      13.643  11.747  23.106  0.00  0.00    +0.021 A 
ATOM     24  C   UNL     1      12.250  11.683  23.099  0.00  0.00    +0.052 A 
BRANCH  24  25
ATOM      7  N   UNL     1      10.970  11.024  25.252  0.00  0.00    -0.191 NA
ATOM     25  C   UNL     1      11.543  11.319  24.287  0.00  0.00    +0.099 C 
ENDBRANCH  24  25
ENDBRANCH   1  16
ENDBRANCH   6   1
ENDBRANCH   8   6
TORSDOF 7
ENDMDL
MODEL 3
REMARK VINA RESULT:      -5.4      2.709      5.541
REMARK  Name = 71694017
REMARK  7 active torsions:
REMARK  status: ('A' for Active; 'I' for Inactive)
REMARK    1  A    between atoms: S_1  and  N_6
REMARK    2  A    between atoms: S_1  and  C_16
REMARK    3  A    between atoms: O_2  and  C_10
REMARK    4  A    between atoms: O_3  and  C_12
REMARK    5  A    between atoms: N_6  and  C_8
REMARK    6  A    between atoms: C_9  and  C_13
REMARK    7  A    between atoms: C_24  and  C_25
REMARK                            x       y       z     vdW  Elec       q    Type
REMARK                         _______ _______ _______ _____ _____    ______ ____
ROOT
ATOM      8  C   UNL     1      -4.807 -10.774  14.923  0.00  0.00    +0.115 C 
ATOM      9  C   UNL     1      -4.378 -10.367  16.347  0.00  0.00    +0.043 C 
ATOM     10  C   UNL     1      -3.511 -10.708  14.121  0.00  0.00    +0.162 C 
ATOM     11  C   UNL     1      -2.858 -10.665  16.429  0.00  0.00    +0.043 C 
ATOM     12  C   UNL     1      -2.482 -11.286  15.085  0.00  0.00    +0.145 C 
ENDROOT
BRANCH   9  13
ATOM     13  C   UNL     1      -5.203 -11.035  17.427  0.00  0.00    -0.043 A 
ATOM     14  C   UNL     1      -5.668 -12.337  17.243  0.00  0.00    +0.004 A 
ATOM     15  C   UNL     1      -5.498 -10.349  18.605  0.00  0.00    +0.004 A 
ATOM     17  C   UNL     1      -6.429 -12.953  18.237  0.00  0.00    +0.000 A 
ATOM     18  C   UNL     1      -6.259 -10.965  19.599  0.00  0.00    +0.000 A 
ATOM     19  C   UNL     1      -6.725 -12.266  19.415  0.00  0.00    +0.000 A 
ENDBRANCH   9  13
BRANCH  10   2
ATOM      2  O   UNL     1      -3.578 -11.465  12.929  0.00  0.00    -0.388 OA
ATOM     27  H   UNL     1      -3.657 -12.401  13.180  0.00  0.00    +0.210 HD
ENDBRANCH  10   2
BRANCH  12   3
ATOM      3  O   UNL     1      -2.612 -12.701  15.181  0.00  0.00    -0.389 OA
ATOM     28  H   UNL     1      -1.735 -13.060  15.401  0.00  0.00    +0.210 HD
ENDBRANCH  12   3
BRANCH   8   6
ATOM      6  N   UNL     1      -5.789  -9.803  14.386  0.00  0.00    -0.184 NA
ATOM     26  H   UNL     1      -5.603  -8.802  14.518  0.00  0.00    +0.148 HD
BRANCH   6   1
ATOM      1  S   UNL     1      -7.336 -10.330  13.924  0.00  0.00    +0.059 S 
ATOM      4  O   UNL     1      -7.261 -11.705  13.466  0.00  0.00    -0.153 OA
ATOM      5  O   UNL     1      -7.946  -9.314  13.086  0.00  0.00    -0.153 OA
BRANCH   1  16
ATOM     16  C   UNL     1      -8.201 -10.315  15.465  0.00  0.00    +0.105 A 
ATOM     20  C   UNL     1      -8.923 -11.438  15.870  0.00  0.00    +0.030 A 
ATOM     21  C   UNL     1      -8.163  -9.180  16.275  0.00  0.00    +0.030 A 
ATOM     22  C   UNL     1      -9.606 -11.426  17.086  0.00  0.00    +0.021 A 
ATOM     23  C   UNL     1      -8.847  -9.168  17.491  0.00  0.00    +0.021 A 
ATOM     24  C   UNL     1      -9.568 -10.291  17.897  0.00  0.00    +0.052 A 
BRANCH  24  25
ATOM      7  N   UNL     1     -10.839 -10.271  20.154  0.00  0.00    -0.191 NA
ATOM     25  C   UNL     1     -10.270 -10.279  19.143  0.00  0.00    +0.099 C 
ENDBRANCH  24  25
ENDBRANCH   1  16
ENDBRANCH   6   1
ENDBRANCH   8   6
TORSDOF 7
ENDMDL
MODEL 4
REMARK VINA RESULT:      -5.4     25.830     28.383
REMARK  Name = 71694017
REMARK  7 active torsions:
REMARK  status: ('A' for Active; 'I' for Inactive)
REMARK    1  A    between atoms: S_1  and  N_6
REMARK    2  A    between atoms: S_1  and  C_16
REMARK    3  A    between atoms: O_2  and  C_10
REMARK    4  A    between atoms: O_3  and  C_12
REMARK    5  A    between atoms: N_6  and  C_8
REMARK    6  A    between atoms: C_9  and  C_13
REMARK    7  A    between atoms: C_24  and  C_25
REMARK                            x       y       z     vdW  Elec       q    Type
REMARK                         _______ _______ _______ _____ _____    ______ ____
ROOT
ATOM      8  C   UNL     1       8.821   9.999   4.579  0.00  0.00    +0.115 C 
ATOM      9  C   UNL     1       8.992   8.959   3.454  0.00  0.00    +0.043 C 
ATOM     10  C   UNL     1       7.961  11.085   3.941  0.00  0.00    +0.162 C 
ATOM     11  C   UNL     1       7.797   9.180   2.491  0.00  0.00    +0.043 C 
ATOM     12  C   UNL     1       6.953  10.286   3.122  0.00  0.00    +0.145 C 
ENDROOT
BRANCH   9  13
ATOM     13  C   UNL     1       9.120   7.542   3.973  0.00  0.00    -0.043 A 
ATOM     14  C   UNL     1       8.139   7.017   4.814  0.00  0.00    +0.004 A 
ATOM     15  C   UNL     1      10.217   6.761   3.610  0.00  0.00    +0.004 A 
ATOM     17  C   UNL     1       8.256   5.712   5.294  0.00  0.00    +0.000 A 
ATOM     18  C   UNL     1      10.335   5.456   4.089  0.00  0.00    +0.000 A 
ATOM     19  C   UNL     1       9.354   4.932   4.931  0.00  0.00    +0.000 A 
ENDBRANCH   9  13
BRANCH  10   2
ATOM      2  O   UNL     1       7.312  11.892   4.904  0.00  0.00    -0.388 OA
ATOM     27  H   UNL     1       7.704  11.687   5.770  0.00  0.00    +0.210 HD
ENDBRANCH  10   2
BRANCH  12   3
ATOM      3  O   UNL     1       5.971   9.690   3.963  0.00  0.00    -0.389 OA
ATOM     28  H   UNL     1       5.164  10.230   3.897  0.00  0.00    +0.210 HD
ENDBRANCH  12   3
BRANCH   8   6
ATOM      6  N   UNL     1      10.138  10.555   4.969  0.00  0.00    -0.184 NA
ATOM     26  H   UNL     1      10.874  10.604   4.254  0.00  0.00    +0.148 HD
BRANCH   6   1
ATOM      1  S   UNL     1      10.529  10.735   6.611  0.00  0.00    +0.059 S 
ATOM      4  O   UNL     1       9.526  11.558   7.260  0.00  0.00    -0.153 OA
ATOM      5  O   UNL     1      11.935  11.075   6.723  0.00  0.00    -0.153 OA
BRANCH   1  16
ATOM     16  C   UNL     1      10.349   9.082   7.212  0.00  0.00    +0.105 A 
ATOM     20  C   UNL     1      11.352   8.141   6.976  0.00  0.00    +0.030 A 
ATOM     21  C   UNL     1       9.204   8.719   7.920  0.00  0.00    +0.030 A 
ATOM     22  C   UNL     1      11.209   6.837   7.449  0.00  0.00    +0.021 A 
ATOM     23  C   UNL     1       9.062   7.415   8.394  0.00  0.00    +0.021 A 
ATOM     24  C   UNL     1      10.064   6.473   8.159  0.00  0.00    +0.052 A 
BRANCH  24  25
ATOM      7  N   UNL     1       9.801   4.051   9.035  0.00  0.00    -0.191 NA
ATOM     25  C   UNL     1       9.919   5.136   8.643  0.00  0.00    +0.099 C 
ENDBRANCH  24  25
ENDBRANCH   1  16
ENDBRANCH   6   1
ENDBRANCH   8   6
TORSDOF 7
ENDMDL
MODEL 5
REMARK VINA RESULT:      -5.3     19.808     22.420
REMARK  Name = 71694017
REMARK  7 active torsions:
REMARK  status: ('A' for Active; 'I' for Inactive)
REMARK    1  A    between atoms: S_1  and  N_6
REMARK    2  A    between atoms: S_1  and  C_16
REMARK    3  A    between atoms: O_2  and  C_10
REMARK    4  A    between atoms: O_3  and  C_12
REMARK    5  A    between atoms: N_6  and  C_8
REMARK    6  A    between atoms: C_9  and  C_13
REMARK    7  A    between atoms: C_24  and  C_25
REMARK                            x       y       z     vdW  Elec       q    Type
REMARK                         _______ _______ _______ _____ _____    ______ ____
ROOT
ATOM      8  C   UNL     1     -15.520   2.280  29.410  0.00  0.00    +0.115 C 
ATOM      9  C   UNL     1     -14.195   2.352  30.197  0.00  0.00    +0.043 C 
ATOM     10  C   UNL     1     -15.384   0.999  28.592  0.00  0.00    +0.162 C 
ATOM     11  C   UNL     1     -13.664   0.897  30.260  0.00  0.00    +0.043 C 
ATOM     12  C   UNL     1     -14.720   0.037  29.569  0.00  0.00    +0.145 C 
ENDROOT
BRANCH   9  13
ATOM     13  C   UNL     1     -14.347   3.019  31.548  0.00  0.00    -0.043 A 
ATOM     14  C   UNL     1     -13.627   4.179  31.837  0.00  0.00    +0.004 A 
ATOM     15  C   UNL     1     -15.206   2.475  32.503  0.00  0.00    +0.004 A 
ATOM     17  C   UNL     1     -13.766   4.793  33.082  0.00  0.00    +0.000 A 
ATOM     18  C   UNL     1     -15.344   3.089  33.748  0.00  0.00    +0.000 A 
ATOM     19  C   UNL     1     -14.624   4.248  34.037  0.00  0.00    +0.000 A 
ENDBRANCH   9  13
BRANCH  10   2
ATOM      2  O   UNL     1     -16.637   0.504  28.158  0.00  0.00    -0.388 OA
ATOM     27  H   UNL     1     -17.098   0.151  28.937  0.00  0.00    +0.210 HD
ENDBRANCH  10   2
BRANCH  12   3
ATOM      3  O   UNL     1     -15.650  -0.420  30.546  0.00  0.00    -0.389 OA
ATOM     28  H   UNL     1     -15.795   0.309  31.173  0.00  0.00    +0.210 HD
ENDBRANCH  12   3
BRANCH   8   6
ATOM      6  N   UNL     1     -15.646   3.449  28.508  0.00  0.00    -0.184 NA
ATOM     26  H   UNL     1     -14.785   3.898  28.173  0.00  0.00    +0.148 HD
BRANCH   6   1
ATOM      1  S   UNL     1     -17.138   4.244  28.357  0.00  0.00    +0.059 S 
ATOM      4  O   UNL     1     -18.155   3.292  27.953  0.00  0.00    -0.153 OA
ATOM      5  O   UNL     1     -16.942   5.468  27.602  0.00  0.00    -0.153 OA
BRANCH   1  16
ATOM     16  C   UNL     1     -17.469   4.718  30.028  0.00  0.00    +0.105 A 
ATOM     20  C   UNL     1     -18.426   4.027  30.771  0.00  0.00    +0.030 A 
ATOM     21  C   UNL     1     -16.775   5.783  30.601  0.00  0.00    +0.030 A 
ATOM     22  C   UNL     1     -18.688   4.401  32.089  0.00  0.00    +0.021 A 
ATOM     23  C   UNL     1     -17.037   6.157  31.919  0.00  0.00    +0.021 A 
ATOM     24  C   UNL     1     -17.993   5.466  32.664  0.00  0.00    +0.052 A 
BRANCH  24  25
ATOM      7  N   UNL     1     -18.483   6.160  35.111  0.00  0.00    -0.191 NA
ATOM     25  C   UNL     1     -18.263   5.849  34.014  0.00  0.00    +0.099 C 
ENDBRANCH  24  25
ENDBRANCH   1  16
ENDBRANCH   6   1
ENDBRANCH   8   6
TORSDOF 7
ENDMDL
MODEL 6
REMARK VINA RESULT:      -5.3     18.211     21.050
REMARK  Name = 71694017
REMARK  7 active torsions:
REMARK  status: ('A' for Active; 'I' for Inactive)
REMARK    1  A    between atoms: S_1  and  N_6
REMARK    2  A    between atoms: S_1  and  C_16
REMARK    3  A    between atoms: O_2  and  C_10
REMARK    4  A    between atoms: O_3  and  C_12
REMARK    5  A    between atoms: N_6  and  C_8
REMARK    6  A    between atoms: C_9  and  C_13
REMARK    7  A    between atoms: C_24  and  C_25
REMARK                            x       y       z     vdW  Elec       q    Type
REMARK                         _______ _______ _______ _____ _____    ______ ____
ROOT
ATOM      8  C   UNL     1       0.331 -13.895  -2.430  0.00  0.00    +0.115 C 
ATOM      9  C   UNL     1       1.715 -13.259  -2.674  0.00  0.00    +0.043 C 
ATOM     10  C   UNL     1      -0.453 -13.550  -3.692  0.00  0.00    +0.162 C 
ATOM     11  C   UNL     1       1.849 -13.122  -4.213  0.00  0.00    +0.043 C 
ATOM     12  C   UNL     1       0.579 -13.735  -4.798  0.00  0.00    +0.145 C 
ENDROOT
BRANCH   9  13
ATOM     13  C   UNL     1       2.842 -14.027  -2.016  0.00  0.00    -0.043 A 
ATOM     14  C   UNL     1       3.159 -15.312  -2.454  0.00  0.00    +0.004 A 
ATOM     15  C   UNL     1       3.564 -13.449  -0.971  0.00  0.00    +0.004 A 
ATOM     17  C   UNL     1       4.196 -16.020  -1.848  0.00  0.00    +0.000 A 
ATOM     18  C   UNL     1       4.602 -14.157  -0.365  0.00  0.00    +0.000 A 
ATOM     19  C   UNL     1       4.917 -15.443  -0.803  0.00  0.00    +0.000 A 
ENDBRANCH   9  13
BRANCH  10   2
ATOM      2  O   UNL     1      -1.566 -14.401  -3.883  0.00  0.00    -0.388 OA
ATOM     27  H   UNL     1      -1.704 -14.893  -3.056  0.00  0.00    +0.210 HD
ENDBRANCH  10   2
BRANCH  12   3
ATOM      3  O   UNL     1       0.812 -15.117  -5.052  0.00  0.00    -0.389 OA
ATOM     28  H   UNL     1       0.811 -15.241  -6.017  0.00  0.00    +0.210 HD
ENDBRANCH  12   3
BRANCH   8   6
ATOM      6  N   UNL     1      -0.314 -13.282  -1.245  0.00  0.00    -0.184 NA
ATOM     26  H   UNL     1      -0.111 -12.296  -1.039  0.00  0.00    +0.148 HD
BRANCH   6   1
ATOM      1  S   UNL     1      -1.039 -14.269  -0.070  0.00  0.00    +0.059 S 
ATOM      4  O   UNL     1      -1.798 -15.320  -0.722  0.00  0.00    -0.153 OA
ATOM      5  O   UNL     1      -1.670 -13.424   0.927  0.00  0.00    -0.153 OA
BRANCH   1  16
ATOM     16  C   UNL     1       0.368 -15.012   0.701  0.00  0.00    +0.105 A 
ATOM     20  C   UNL     1       1.091 -14.305   1.662  0.00  0.00    +0.030 A 
ATOM     21  C   UNL     1       0.756 -16.304   0.346  0.00  0.00    +0.030 A 
ATOM     22  C   UNL     1       2.202 -14.891   2.269  0.00  0.00    +0.021 A 
ATOM     23  C   UNL     1       1.866 -16.890   0.954  0.00  0.00    +0.021 A 
ATOM     24  C   UNL     1       2.589 -16.184   1.915  0.00  0.00    +0.052 A 
BRANCH  24  25
ATOM      7  N   UNL     1       4.653 -17.269   3.043  0.00  0.00    -0.191 NA
ATOM     25  C   UNL     1       3.728 -16.783   2.538  0.00  0.00    +0.099 C 
ENDBRANCH  24  25
ENDBRANCH   1  16
ENDBRANCH   6   1
ENDBRANCH   8   6
TORSDOF 7
ENDMDL
MODEL 7
REMARK VINA RESULT:      -5.2      6.603      8.739
REMARK  Name = 71694017
REMARK  7 active torsions:
REMARK  status: ('A' for Active; 'I' for Inactive)
REMARK    1  A    between atoms: S_1  and  N_6
REMARK    2  A    between atoms: S_1  and  C_16
REMARK    3  A    between atoms: O_2  and  C_10
REMARK    4  A    between atoms: O_3  and  C_12
REMARK    5  A    between atoms: N_6  and  C_8
REMARK    6  A    between atoms: C_9  and  C_13
REMARK    7  A    between atoms: C_24  and  C_25
REMARK                            x       y       z     vdW  Elec       q    Type
REMARK                         _______ _______ _______ _____ _____    ______ ____
ROOT
ATOM      8  C   UNL     1      -2.775 -12.092  12.667  0.00  0.00    +0.115 C 
ATOM      9  C   UNL     1      -2.290 -10.760  12.060  0.00  0.00    +0.043 C 
ATOM     10  C   UNL     1      -1.911 -12.258  13.913  0.00  0.00    +0.162 C 
ATOM     11  C   UNL     1      -1.649  -9.973  13.232  0.00  0.00    +0.043 C 
ATOM     12  C   UNL     1      -1.841 -10.842  14.473  0.00  0.00    +0.145 C 
ENDROOT
BRANCH   9  13
ATOM     13  C   UNL     1      -3.384 -10.010  11.330  0.00  0.00    -0.043 A 
ATOM     14  C   UNL     1      -4.652  -9.898  11.901  0.00  0.00    +0.004 A 
ATOM     15  C   UNL     1      -3.125  -9.431  10.088  0.00  0.00    +0.004 A 
ATOM     17  C   UNL     1      -5.661  -9.208  11.229  0.00  0.00    +0.000 A 
ATOM     18  C   UNL     1      -4.134  -8.741   9.415  0.00  0.00    +0.000 A 
ATOM     19  C   UNL     1      -5.402  -8.630   9.986  0.00  0.00    +0.000 A 
ENDBRANCH   9  13
BRANCH  10   2
ATOM      2  O   UNL     1      -2.483 -13.151  14.849  0.00  0.00    -0.388 OA
ATOM     27  H   UNL     1      -1.775 -13.737  15.166  0.00  0.00    +0.210 HD
ENDBRANCH  10   2
BRANCH  12   3
ATOM      3  O   UNL     1      -3.069 -10.481  15.100  0.00  0.00    -0.389 OA
ATOM     28  H   UNL     1      -3.676 -11.235  15.005  0.00  0.00    +0.210 HD
ENDBRANCH  12   3
BRANCH   8   6
ATOM      6  N   UNL     1      -2.527 -13.207  11.723  0.00  0.00    -0.184 NA
ATOM     26  H   UNL     1      -1.669 -13.184  11.160  0.00  0.00    +0.148 HD
BRANCH   6   1
ATOM      1  S   UNL     1      -3.790 -14.265  11.311  0.00  0.00    +0.059 S 
ATOM      4  O   UNL     1      -4.629 -14.491  12.473  0.00  0.00    -0.153 OA
ATOM      5  O   UNL     1      -3.239 -15.389  10.578  0.00  0.00    -0.153 OA
BRANCH   1  16
ATOM     16  C   UNL     1      -4.713 -13.297  10.154  0.00  0.00    +0.105 A 
ATOM     20  C   UNL     1      -6.047 -12.986  10.413  0.00  0.00    +0.030 A 
ATOM     21  C   UNL     1      -4.106 -12.846   8.983  0.00  0.00    +0.030 A 
ATOM     22  C   UNL     1      -6.775 -12.223   9.500  0.00  0.00    +0.021 A 
ATOM     23  C   UNL     1      -4.834 -12.083   8.069  0.00  0.00    +0.021 A 
ATOM     24  C   UNL     1      -6.168 -11.771   8.328  0.00  0.00    +0.052 A 
BRANCH  24  25
ATOM      7  N   UNL     1      -7.521 -10.356   6.632  0.00  0.00    -0.191 NA
ATOM     25  C   UNL     1      -6.915 -10.990   7.392  0.00  0.00    +0.099 C 
ENDBRANCH  24  25
ENDBRANCH   1  16
ENDBRANCH   6   1
ENDBRANCH   8   6
TORSDOF 7
ENDMDL
MODEL 8
REMARK VINA RESULT:      -5.2     27.173     29.586
REMARK  Name = 71694017
REMARK  7 active torsions:
REMARK  status: ('A' for Active; 'I' for Inactive)
REMARK    1  A    between atoms: S_1  and  N_6
REMARK    2  A    between atoms: S_1  and  C_16
REMARK    3  A    between atoms: O_2  and  C_10
REMARK    4  A    between atoms: O_3  and  C_12
REMARK    5  A    between atoms: N_6  and  C_8
REMARK    6  A    between atoms: C_9  and  C_13
REMARK    7  A    between atoms: C_24  and  C_25
REMARK                            x       y       z     vdW  Elec       q    Type
REMARK                         _______ _______ _______ _____ _____    ______ ____
ROOT
ATOM      8  C   UNL     1      12.147   5.790   2.196  0.00  0.00    +0.115 C 
ATOM      9  C   UNL     1      11.129   4.809   2.812  0.00  0.00    +0.043 C 
ATOM     10  C   UNL     1      12.428   5.202   0.817  0.00  0.00    +0.162 C 
ATOM     11  C   UNL     1      10.452   4.097   1.612  0.00  0.00    +0.043 C 
ATOM     12  C   UNL     1      11.053   4.731   0.358  0.00  0.00    +0.145 C 
ENDROOT
BRANCH   9  13
ATOM     13  C   UNL     1      10.162   5.481   3.763  0.00  0.00    -0.043 A 
ATOM     14  C   UNL     1       9.895   4.908   5.007  0.00  0.00    +0.004 A 
ATOM     15  C   UNL     1       9.538   6.674   3.398  0.00  0.00    +0.004 A 
ATOM     17  C   UNL     1       9.003   5.526   5.883  0.00  0.00    +0.000 A 
ATOM     18  C   UNL     1       8.646   7.293   4.274  0.00  0.00    +0.000 A 
ATOM     19  C   UNL     1       8.379   6.719   5.516  0.00  0.00    +0.000 A 
ENDBRANCH   9  13
BRANCH  10   2
ATOM      2  O   UNL     1      12.965   6.158  -0.076  0.00  0.00    -0.388 OA
ATOM     27  H   UNL     1      13.521   6.763   0.443  0.00  0.00    +0.210 HD
ENDBRANCH  10   2
BRANCH  12   3
ATOM      3  O   UNL     1      10.240   5.834  -0.031  0.00  0.00    -0.389 OA
ATOM     28  H   UNL     1      10.822   6.610  -0.113  0.00  0.00    +0.210 HD
ENDBRANCH  12   3
BRANCH   8   6
ATOM      6  N   UNL     1      13.390   5.814   3.002  0.00  0.00    -0.184 NA
ATOM     26  H   UNL     1      13.673   4.951   3.481  0.00  0.00    +0.148 HD
BRANCH   6   1
ATOM      1  S   UNL     1      14.094   7.298   3.430  0.00  0.00    +0.059 S 
ATOM      4  O   UNL     1      14.050   8.200   2.294  0.00  0.00    -0.153 OA
ATOM      5  O   UNL     1      15.349   7.043   4.111  0.00  0.00    -0.153 OA
BRANCH   1  16
ATOM     16  C   UNL     1      12.961   7.901   4.647  0.00  0.00    +0.105 A 
ATOM     20  C   UNL     1      12.765   7.189   5.830  0.00  0.00    +0.030 A 
ATOM     21  C   UNL     1      12.264   9.087   4.423  0.00  0.00    +0.030 A 
ATOM     22  C   UNL     1      11.872   7.664   6.790  0.00  0.00    +0.021 A 
ATOM     23  C   UNL     1      11.370   9.563   5.382  0.00  0.00    +0.021 A 
ATOM     24  C   UNL     1      11.174   8.852   6.566  0.00  0.00    +0.052 A 
BRANCH  24  25
ATOM      7  N   UNL     1       9.514   9.733   8.349  0.00  0.00    -0.191 NA
ATOM     25  C   UNL     1      10.257   9.338   7.550  0.00  0.00    +0.099 C 
ENDBRANCH  24  25
ENDBRANCH   1  16
ENDBRANCH   6   1
ENDBRANCH   8   6
TORSDOF 7
ENDMDL
MODEL 9
REMARK VINA RESULT:      -5.1     26.481     29.487
REMARK  Name = 71694017
REMARK  7 active torsions:
REMARK  status: ('A' for Active; 'I' for Inactive)
REMARK    1  A    between atoms: S_1  and  N_6
REMARK    2  A    between atoms: S_1  and  C_16
REMARK    3  A    between atoms: O_2  and  C_10
REMARK    4  A    between atoms: O_3  and  C_12
REMARK    5  A    between atoms: N_6  and  C_8
REMARK    6  A    between atoms: C_9  and  C_13
REMARK    7  A    between atoms: C_24  and  C_25
REMARK                            x       y       z     vdW  Elec       q    Type
REMARK                         _______ _______ _______ _____ _____    ______ ____
ROOT
ATOM      8  C   UNL     1      11.189   6.223   6.007  0.00  0.00    +0.115 C 
ATOM      9  C   UNL     1       9.947   6.220   5.093  0.00  0.00    +0.043 C 
ATOM     10  C   UNL     1      10.616   5.961   7.397  0.00  0.00    +0.162 C 
ATOM     11  C   UNL     1       8.870   5.401   5.851  0.00  0.00    +0.043 C 
ATOM     12  C   UNL     1       9.542   4.913   7.133  0.00  0.00    +0.145 C 
ENDROOT
BRANCH   9  13
ATOM     13  C   UNL     1      10.244   5.717   3.696  0.00  0.00    -0.043 A 
ATOM     14  C   UNL     1       9.899   6.492   2.588  0.00  0.00    +0.004 A 
ATOM     15  C   UNL     1      10.861   4.479   3.515  0.00  0.00    +0.004 A 
ATOM     17  C   UNL     1      10.171   6.029   1.301  0.00  0.00    +0.000 A 
ATOM     18  C   UNL     1      11.133   4.016   2.228  0.00  0.00    +0.000 A 
ATOM     19  C   UNL     1      10.788   4.790   1.121  0.00  0.00    +0.000 A 
ENDBRANCH   9  13
BRANCH  10   2
ATOM      2  O   UNL     1      11.593   5.477   8.298  0.00  0.00    -0.388 OA
ATOM     27  H   UNL     1      11.811   4.568   8.033  0.00  0.00    +0.210 HD
ENDBRANCH  10   2
BRANCH  12   3
ATOM      3  O   UNL     1      10.124   3.636   6.888  0.00  0.00    -0.389 OA
ATOM     28  H   UNL     1      10.120   3.494   5.925  0.00  0.00    +0.210 HD
ENDBRANCH  12   3
BRANCH   8   6
ATOM      6  N   UNL     1      11.850   7.549   5.970  0.00  0.00    -0.184 NA
ATOM     26  H   UNL     1      11.364   8.319   5.497  0.00  0.00    +0.148 HD
BRANCH   6   1
ATOM      1  S   UNL     1      13.500   7.682   6.347  0.00  0.00    +0.059 S 
ATOM      4  O   UNL     1      13.912   6.533   7.130  0.00  0.00    -0.153 OA
ATOM      5  O   UNL     1      13.763   9.026   6.828  0.00  0.00    -0.153 OA
BRANCH   1  16
ATOM     16  C   UNL     1      14.250   7.551   4.751  0.00  0.00    +0.105 A 
ATOM     20  C   UNL     1      13.471   7.235   3.639  0.00  0.00    +0.030 A 
ATOM     21  C   UNL     1      15.621   7.761   4.606  0.00  0.00    +0.030 A 
ATOM     22  C   UNL     1      14.062   7.130   2.380  0.00  0.00    +0.021 A 
ATOM     23  C   UNL     1      16.213   7.657   3.347  0.00  0.00    +0.021 A 
ATOM     24  C   UNL     1      15.434   7.342   2.234  0.00  0.00    +0.052 A 
BRANCH  24  25
ATOM      7  N   UNL     1      16.531   7.146  -0.104  0.00  0.00    -0.191 NA
ATOM     25  C   UNL     1      16.040   7.234   0.943  0.00  0.00    +0.099 C 
ENDBRANCH  24  25
ENDBRANCH   1  16
ENDBRANCH   6   1
ENDBRANCH   8   6
TORSDOF 7
ENDMDL
MODEL 10
REMARK VINA RESULT:      -5.1      3.937      5.391
REMARK  Name = 71694017
REMARK  7 active torsions:
REMARK  status: ('A' for Active; 'I' for Inactive)
REMARK    1  A    between atoms: S_1  and  N_6
REMARK    2  A    between atoms: S_1  and  C_16
REMARK    3  A    between atoms: O_2  and  C_10
REMARK    4  A    between atoms: O_3  and  C_12
REMARK    5  A    between atoms: N_6  and  C_8
REMARK    6  A    between atoms: C_9  and  C_13
REMARK    7  A    between atoms: C_24  and  C_25
REMARK                            x       y       z     vdW  Elec       q    Type
REMARK                         _______ _______ _______ _____ _____    ______ ____
ROOT
ATOM      8  C   UNL     1      -5.042 -11.095  17.107  0.00  0.00    +0.115 C 
ATOM      9  C   UNL     1      -6.152 -10.083  17.457  0.00  0.00    +0.043 C 
ATOM     10  C   UNL     1      -4.475 -11.494  18.466  0.00  0.00    +0.162 C 
ATOM     11  C   UNL     1      -6.557 -10.394  18.922  0.00  0.00    +0.043 C 
ATOM     12  C   UNL     1      -5.719 -11.601  19.339  0.00  0.00    +0.145 C 
ENDROOT
BRANCH   9  13
ATOM     13  C   UNL     1      -7.304 -10.107  16.475  0.00  0.00    -0.043 A 
ATOM     14  C   UNL     1      -7.410 -11.146  15.550  0.00  0.00    +0.004 A 
ATOM     15  C   UNL     1      -8.259  -9.090  16.493  0.00  0.00    +0.004 A 
ATOM     17  C   UNL     1      -8.470 -11.167  14.643  0.00  0.00    +0.000 A 
ATOM     18  C   UNL     1      -9.319  -9.111  15.587  0.00  0.00    +0.000 A 
ATOM     19  C   UNL     1      -9.425 -10.150  14.662  0.00  0.00    +0.000 A 
ENDBRANCH   9  13
BRANCH  10   2
ATOM      2  O   UNL     1      -3.777 -12.724  18.417  0.00  0.00    -0.388 OA
ATOM     27  H   UNL     1      -3.392 -12.807  17.528  0.00  0.00    +0.210 HD
ENDBRANCH  10   2
BRANCH  12   3
ATOM      3  O   UNL     1      -6.448 -12.789  19.045  0.00  0.00    -0.389 OA
ATOM     28  H   UNL     1      -6.723 -12.738  18.113  0.00  0.00    +0.210 HD
ENDBRANCH  12   3
BRANCH   8   6
ATOM      6  N   UNL     1      -3.993 -10.443  16.289  0.00  0.00    -0.184 NA
ATOM     26  H   UNL     1      -4.064  -9.431  16.127  0.00  0.00    +0.148 HD
BRANCH   6   1
ATOM      1  S   UNL     1      -2.948 -11.389  15.342  0.00  0.00    +0.059 S 
ATOM      4  O   UNL     1      -3.372 -12.775  15.392  0.00  0.00    -0.153 OA
ATOM      5  O   UNL     1      -1.577 -11.033  15.660  0.00  0.00    -0.153 OA
BRANCH   1  16
ATOM     16  C   UNL     1      -3.275 -10.777  13.716  0.00  0.00    +0.105 A 
ATOM     20  C   UNL     1      -2.228 -10.613  12.809  0.00  0.00    +0.030 A 
ATOM     21  C   UNL     1      -4.580 -10.459  13.341  0.00  0.00    +0.030 A 
ATOM     22  C   UNL     1      -2.486 -10.130  11.526  0.00  0.00    +0.021 A 
ATOM     23  C   UNL     1      -4.838  -9.976  12.058  0.00  0.00    +0.021 A 
ATOM     24  C   UNL     1      -3.792  -9.812  11.150  0.00  0.00    +0.052 A 
BRANCH  24  25
ATOM      7  N   UNL     1      -4.270  -8.915   8.768  0.00  0.00    -0.191 NA
ATOM     25  C   UNL     1      -4.055  -9.317   9.835  0.00  0.00    +0.099 C 
ENDBRANCH  24  25
ENDBRANCH   1  16
ENDBRANCH   6   1
ENDBRANCH   8   6
TORSDOF 7
ENDMDL
