MODEL 1
REMARK VINA RESULT:      -6.9      0.000      0.000
REMARK  Name = 11884463
REMARK  7 active torsions:
REMARK  status: ('A' for Active; 'I' for Inactive)
REMARK    1  A    between atoms: S_1  and  N_7
REMARK    2  A    between atoms: S_1  and  C_21
REMARK    3  A    between atoms: O_6  and  C_33
REMARK    4  A    between atoms: O_6  and  C_34
REMARK    5  A    between atoms: N_9  and  C_20
REMARK    6  A    between atoms: C_28  and  C_30
REMARK    7  A    between atoms: C_30  and  C_33
REMARK                            x       y       z     vdW  Elec       q    Type
REMARK                         _______ _______ _______ _____ _____    ______ ____
ROOT
ATOM      4  O   UNL     1      -7.908  -9.080  17.846  0.00  0.00    -0.266 OA
ATOM      7  N   UNL     1      -4.244 -11.743  15.771  0.00  0.00    -0.176 NA
ATOM      8  N   UNL     1      -6.754 -11.094  17.581  0.00  0.00    -0.310 N 
ATOM     11  C   UNL     1      -4.296 -11.382  18.241  0.00  0.00    +0.025 C 
ATOM     12  C   UNL     1      -5.524 -13.270  17.260  0.00  0.00    +0.052 C 
ATOM     13  C   UNL     1      -4.671 -12.843  18.452  0.00  0.00    +0.017 C 
ATOM     14  C   UNL     1      -3.490 -11.213  16.943  0.00  0.00    +0.114 C 
ATOM     15  C   UNL     1      -4.696 -13.154  15.967  0.00  0.00    +0.119 C 
ATOM     16  C   UNL     1      -5.574 -10.533  18.253  0.00  0.00    +0.130 C 
ATOM     17  C   UNL     1      -6.782 -12.428  17.161  0.00  0.00    +0.026 A 
ATOM     18  C   UNL     1      -7.910 -12.952  16.652  0.00  0.00    +0.024 A 
ATOM     19  C   UNL     1      -7.881 -10.254  17.476  0.00  0.00    +0.273 A 
ATOM     20  C   UNL     1      -9.110 -10.871  16.883  0.00  0.00    +0.099 A 
ATOM     22  C   UNL     1      -9.096 -12.154  16.511  0.00  0.00    +0.030 A 
ENDROOT
BRANCH  20   9
ATOM      5  O   UNL     1     -11.160 -10.488  18.845  0.00  0.00    -0.275 OA
ATOM      9  N   UNL     1     -10.219 -10.087  16.752  0.00  0.00    -0.281 N 
ATOM     28  C   UNL     1     -11.182  -9.943  17.745  0.00  0.00    +0.220 C 
ATOM     35  H   UNL     1     -10.454  -9.776  15.812  0.00  0.00    +0.155 HD
BRANCH  28  30
ATOM     30  C   UNL     1     -12.296  -9.005  17.303  0.00  0.00    +0.124 C 
BRANCH  30  33
ATOM     33  C   UNL     1     -11.893  -8.109  16.142  0.00  0.00    +0.168 C 
BRANCH  33   6
ATOM      6  O   UNL     1     -10.910  -7.180  16.581  0.00  0.00    -0.382 OA
ATOM     34  C   UNL     1     -10.830  -6.057  15.714  0.00  0.00    +0.194 C 
ENDBRANCH  33   6
ENDBRANCH  30  33
ENDBRANCH  28  30
ENDBRANCH  20   9
BRANCH   7   1
ATOM      1  S   UNL     1      -3.573 -11.388  14.237  0.00  0.00    +0.063 S 
ATOM      2  O   UNL     1      -3.406 -12.627  13.509  0.00  0.00    -0.153 OA
ATOM      3  O   UNL     1      -2.488 -10.443  14.401  0.00  0.00    -0.153 OA
BRANCH   1  21
ATOM     10  N   UNL     1      -3.246 -10.134  11.553  0.00  0.00    -0.253 NA
ATOM     21  C   UNL     1      -4.802 -10.475  13.311  0.00  0.00    +0.131 A 
ATOM     23  C   UNL     1      -4.474  -9.962  12.078  0.00  0.00    +0.097 A 
ATOM     24  C   UNL     1      -6.043 -10.334  13.903  0.00  0.00    +0.031 A 
ATOM     25  C   UNL     1      -5.482  -9.251  11.395  0.00  0.00    +0.002 A 
ATOM     26  C   UNL     1      -7.031  -9.632  13.224  0.00  0.00    +0.003 A 
ATOM     27  C   UNL     1      -6.754  -9.091  11.972  0.00  0.00    +0.010 A 
ATOM     29  C   UNL     1      -5.176  -8.717  10.136  0.00  0.00    +0.011 A 
ATOM     31  C   UNL     1      -2.991  -9.602  10.335  0.00  0.00    +0.111 A 
ATOM     32  C   UNL     1      -3.912  -8.892   9.592  0.00  0.00    +0.020 A 
ENDBRANCH   1  21
ENDBRANCH   7   1
TORSDOF 6
ENDMDL
MODEL 2
REMARK VINA RESULT:      -6.2      2.881      6.290
REMARK  Name = 11884463
REMARK  7 active torsions:
REMARK  status: ('A' for Active; 'I' for Inactive)
REMARK    1  A    between atoms: S_1  and  N_7
REMARK    2  A    between atoms: S_1  and  C_21
REMARK    3  A    between atoms: O_6  and  C_33
REMARK    4  A    between atoms: O_6  and  C_34
REMARK    5  A    between atoms: N_9  and  C_20
REMARK    6  A    between atoms: C_28  and  C_30
REMARK    7  A    between atoms: C_30  and  C_33
REMARK                            x       y       z     vdW  Elec       q    Type
REMARK                         _______ _______ _______ _____ _____    ______ ____
ROOT
ATOM      4  O   UNL     1      -6.184 -10.055  14.943  0.00  0.00    -0.266 OA
ATOM      7  N   UNL     1      -3.327 -13.038  12.157  0.00  0.00    -0.176 NA
ATOM      8  N   UNL     1      -4.121 -10.581  13.981  0.00  0.00    -0.310 N 
ATOM     11  C   UNL     1      -3.757 -10.683  11.448  0.00  0.00    +0.025 C 
ATOM     12  C   UNL     1      -1.891 -11.177  12.968  0.00  0.00    +0.052 C 
ATOM     13  C   UNL     1      -2.317 -10.315  11.782  0.00  0.00    +0.017 C 
ATOM     14  C   UNL     1      -3.859 -12.170  11.068  0.00  0.00    +0.114 C 
ATOM     15  C   UNL     1      -1.941 -12.663  12.568  0.00  0.00    +0.119 C 
ATOM     16  C   UNL     1      -4.654 -10.318  12.637  0.00  0.00    +0.130 C 
ATOM     17  C   UNL     1      -2.778 -10.923  14.173  0.00  0.00    +0.026 A 
ATOM     18  C   UNL     1      -2.284 -11.048  15.416  0.00  0.00    +0.024 A 
ATOM     19  C   UNL     1      -5.000 -10.373  15.063  0.00  0.00    +0.273 A 
ATOM     20  C   UNL     1      -4.416 -10.544  16.431  0.00  0.00    +0.099 A 
ATOM     22  C   UNL     1      -3.123 -10.855  16.566  0.00  0.00    +0.030 A 
ENDROOT
BRANCH  20   9
ATOM      5  O   UNL     1      -4.344 -12.007  18.891  0.00  0.00    -0.275 OA
ATOM      9  N   UNL     1      -5.238 -10.363  17.504  0.00  0.00    -0.281 N 
ATOM     28  C   UNL     1      -5.153 -11.109  18.674  0.00  0.00    +0.220 C 
ATOM     35  H   UNL     1      -6.079  -9.812  17.350  0.00  0.00    +0.155 HD
BRANCH  28  30
ATOM     30  C   UNL     1      -6.203 -10.673  19.686  0.00  0.00    +0.124 C 
BRANCH  30  33
ATOM     33  C   UNL     1      -7.626 -10.849  19.179  0.00  0.00    +0.168 C 
BRANCH  33   6
ATOM      6  O   UNL     1      -7.632 -11.780  18.104  0.00  0.00    -0.382 OA
ATOM     34  C   UNL     1      -8.729 -11.557  17.228  0.00  0.00    +0.194 C 
ENDBRANCH  33   6
ENDBRANCH  30  33
ENDBRANCH  28  30
ENDBRANCH  20   9
BRANCH   7   1
ATOM      1  S   UNL     1      -3.615 -14.716  11.972  0.00  0.00    +0.063 S 
ATOM      2  O   UNL     1      -2.576 -15.272  11.132  0.00  0.00    -0.153 OA
ATOM      3  O   UNL     1      -5.020 -14.928  11.694  0.00  0.00    -0.153 OA
BRANCH   1  21
ATOM     10  N   UNL     1      -5.113 -14.157  14.488  0.00  0.00    -0.253 NA
ATOM     21  C   UNL     1      -3.372 -15.482  13.570  0.00  0.00    +0.131 A 
ATOM     23  C   UNL     1      -4.161 -15.098  14.630  0.00  0.00    +0.097 A 
ATOM     24  C   UNL     1      -2.380 -16.441  13.651  0.00  0.00    +0.031 A 
ATOM     25  C   UNL     1      -3.922 -15.736  15.865  0.00  0.00    +0.002 A 
ATOM     26  C   UNL     1      -2.152 -17.065  14.871  0.00  0.00    +0.003 A 
ATOM     27  C   UNL     1      -2.921 -16.715  15.977  0.00  0.00    +0.010 A 
ATOM     29  C   UNL     1      -4.711 -15.364  16.962  0.00  0.00    +0.011 A 
ATOM     31  C   UNL     1      -5.852 -13.826  15.572  0.00  0.00    +0.111 A 
ATOM     32  C   UNL     1      -5.693 -14.394  16.819  0.00  0.00    +0.020 A 
ENDBRANCH   1  21
ENDBRANCH   7   1
TORSDOF 6
ENDMDL
MODEL 3
REMARK VINA RESULT:      -6.1     25.875     28.830
REMARK  Name = 11884463
REMARK  7 active torsions:
REMARK  status: ('A' for Active; 'I' for Inactive)
REMARK    1  A    between atoms: S_1  and  N_7
REMARK    2  A    between atoms: S_1  and  C_21
REMARK    3  A    between atoms: O_6  and  C_33
REMARK    4  A    between atoms: O_6  and  C_34
REMARK    5  A    between atoms: N_9  and  C_20
REMARK    6  A    between atoms: C_28  and  C_30
REMARK    7  A    between atoms: C_30  and  C_33
REMARK                            x       y       z     vdW  Elec       q    Type
REMARK                         _______ _______ _______ _____ _____    ______ ____
ROOT
ATOM      4  O   UNL     1      10.029   6.600   0.751  0.00  0.00    -0.266 OA
ATOM      7  N   UNL     1      11.325   7.513   5.475  0.00  0.00    -0.176 NA
ATOM      8  N   UNL     1       9.902   6.100   3.030  0.00  0.00    -0.310 N 
ATOM     11  C   UNL     1       8.943   7.730   4.757  0.00  0.00    +0.025 C 
ATOM     12  C   UNL     1       9.802   5.547   5.487  0.00  0.00    +0.052 C 
ATOM     13  C   UNL     1       8.588   6.471   5.539  0.00  0.00    +0.017 C 
ATOM     14  C   UNL     1      10.155   8.434   5.389  0.00  0.00    +0.114 C 
ATOM     15  C   UNL     1      11.000   6.231   6.170  0.00  0.00    +0.119 C 
ATOM     16  C   UNL     1       9.183   7.354   3.289  0.00  0.00    +0.130 C 
ATOM     17  C   UNL     1      10.148   5.180   4.055  0.00  0.00    +0.026 A 
ATOM     18  C   UNL     1      10.706   3.991   3.776  0.00  0.00    +0.024 A 
ATOM     19  C   UNL     1      10.239   5.829   1.688  0.00  0.00    +0.273 A 
ATOM     20  C   UNL     1      10.881   4.502   1.424  0.00  0.00    +0.099 A 
ATOM     22  C   UNL     1      11.080   3.648   2.433  0.00  0.00    +0.030 A 
ENDROOT
BRANCH  20   9
ATOM      5  O   UNL     1      13.545   4.334   0.389  0.00  0.00    -0.275 OA
ATOM      9  N   UNL     1      11.233   4.207   0.139  0.00  0.00    -0.281 N 
ATOM     28  C   UNL     1      12.549   4.141  -0.303  0.00  0.00    +0.220 C 
ATOM     35  H   UNL     1      10.496   4.256  -0.561  0.00  0.00    +0.155 HD
BRANCH  28  30
ATOM     30  C   UNL     1      12.619   3.791  -1.782  0.00  0.00    +0.124 C 
BRANCH  30  33
ATOM     33  C   UNL     1      11.958   2.460  -2.110  0.00  0.00    +0.168 C 
BRANCH  33   6
ATOM      6  O   UNL     1      10.565   2.662  -2.312  0.00  0.00    -0.382 OA
ATOM     34  C   UNL     1      10.320   3.597  -3.354  0.00  0.00    +0.194 C 
ENDBRANCH  33   6
ENDBRANCH  30  33
ENDBRANCH  28  30
ENDBRANCH  20   9
BRANCH   7   1
ATOM      1  S   UNL     1      12.808   8.242   5.921  0.00  0.00    +0.063 S 
ATOM      2  O   UNL     1      13.335   7.546   7.076  0.00  0.00    -0.153 OA
ATOM      3  O   UNL     1      12.656   9.681   5.897  0.00  0.00    -0.153 OA
BRANCH   1  21
ATOM     10  N   UNL     1      15.724   8.859   5.918  0.00  0.00    -0.253 NA
ATOM     21  C   UNL     1      13.984   7.912   4.613  0.00  0.00    +0.131 A 
ATOM     23  C   UNL     1      15.302   8.268   4.785  0.00  0.00    +0.097 A 
ATOM     24  C   UNL     1      13.489   7.303   3.476  0.00  0.00    +0.031 A 
ATOM     25  C   UNL     1      16.182   7.984   3.720  0.00  0.00    +0.002 A 
ATOM     26  C   UNL     1      14.362   7.027   2.431  0.00  0.00    +0.003 A 
ATOM     27  C   UNL     1      15.707   7.366   2.551  0.00  0.00    +0.010 A 
ATOM     29  C   UNL     1      17.530   8.336   3.867  0.00  0.00    +0.011 A 
ATOM     31  C   UNL     1      17.034   9.183   6.020  0.00  0.00    +0.111 A 
ATOM     32  C   UNL     1      17.969   8.945   5.034  0.00  0.00    +0.020 A 
ENDBRANCH   1  21
ENDBRANCH   7   1
TORSDOF 6
ENDMDL
MODEL 4
REMARK VINA RESULT:      -6.1     20.424     23.475
REMARK  Name = 11884463
REMARK  7 active torsions:
REMARK  status: ('A' for Active; 'I' for Inactive)
REMARK    1  A    between atoms: S_1  and  N_7
REMARK    2  A    between atoms: S_1  and  C_21
REMARK    3  A    between atoms: O_6  and  C_33
REMARK    4  A    between atoms: O_6  and  C_34
REMARK    5  A    between atoms: N_9  and  C_20
REMARK    6  A    between atoms: C_28  and  C_30
REMARK    7  A    between atoms: C_30  and  C_33
REMARK                            x       y       z     vdW  Elec       q    Type
REMARK                         _______ _______ _______ _____ _____    ______ ____
ROOT
ATOM      4  O   UNL     1      -6.473  10.448   5.065  0.00  0.00    -0.266 OA
ATOM      7  N   UNL     1      -1.584  10.542   4.110  0.00  0.00    -0.176 NA
ATOM      8  N   UNL     1      -4.299   9.716   5.505  0.00  0.00    -0.310 N 
ATOM     11  C   UNL     1      -2.449  11.282   6.333  0.00  0.00    +0.025 C 
ATOM     12  C   UNL     1      -1.953   8.907   5.947  0.00  0.00    +0.052 C 
ATOM     13  C   UNL     1      -1.872  10.029   6.979  0.00  0.00    +0.017 C 
ATOM     14  C   UNL     1      -1.636  11.668   5.086  0.00  0.00    +0.114 C 
ATOM     15  C   UNL     1      -1.094   9.271   4.722  0.00  0.00    +0.119 C 
ATOM     16  C   UNL     1      -3.930  11.043   6.017  0.00  0.00    +0.130 C 
ATOM     17  C   UNL     1      -3.390   8.653   5.529  0.00  0.00    +0.026 A 
ATOM     18  C   UNL     1      -3.781   7.421   5.162  0.00  0.00    +0.024 A 
ATOM     19  C   UNL     1      -5.634   9.546   5.088  0.00  0.00    +0.273 A 
ATOM     20  C   UNL     1      -6.023   8.163   4.666  0.00  0.00    +0.099 A 
ATOM     22  C   UNL     1      -5.126   7.175   4.721  0.00  0.00    +0.030 A 
ENDROOT
BRANCH  20   9
ATOM      5  O   UNL     1      -8.248   7.397   6.297  0.00  0.00    -0.275 OA
ATOM      9  N   UNL     1      -7.305   7.961   4.244  0.00  0.00    -0.281 N 
ATOM     28  C   UNL     1      -8.344   7.587   5.088  0.00  0.00    +0.220 C 
ATOM     35  H   UNL     1      -7.448   7.866   3.241  0.00  0.00    +0.155 HD
BRANCH  28  30
ATOM     30  C   UNL     1      -9.652   7.439   4.324  0.00  0.00    +0.124 C 
BRANCH  30  33
ATOM     33  C   UNL     1      -9.597   6.358   3.256  0.00  0.00    +0.168 C 
BRANCH  33   6
ATOM      6  O   UNL     1      -8.649   5.367   3.635  0.00  0.00    -0.382 OA
ATOM     34  C   UNL     1      -9.262   4.095   3.796  0.00  0.00    +0.194 C 
ENDBRANCH  33   6
ENDBRANCH  30  33
ENDBRANCH  28  30
ENDBRANCH  20   9
BRANCH   7   1
ATOM      1  S   UNL     1      -0.931  10.924   2.574  0.00  0.00    +0.063 S 
ATOM      2  O   UNL     1       0.161  10.015   2.299  0.00  0.00    -0.153 OA
ATOM      3  O   UNL     1      -0.779  12.360   2.467  0.00  0.00    -0.153 OA
BRANCH   1  21
ATOM     10  N   UNL     1      -0.539  10.641  -0.367  0.00  0.00    -0.253 NA
ATOM     21  C   UNL     1      -2.174  10.530   1.349  0.00  0.00    +0.131 A 
ATOM     23  C   UNL     1      -1.811  10.440   0.025  0.00  0.00    +0.097 A 
ATOM     24  C   UNL     1      -3.460  10.334   1.814  0.00  0.00    +0.031 A 
ATOM     25  C   UNL     1      -2.833  10.127  -0.896  0.00  0.00    +0.002 A 
ATOM     26  C   UNL     1      -4.461  10.027   0.901  0.00  0.00    +0.003 A 
ATOM     27  C   UNL     1      -4.150   9.923  -0.452  0.00  0.00    +0.010 A 
ATOM     29  C   UNL     1      -2.492  10.028  -2.251  0.00  0.00    +0.011 A 
ATOM     31  C   UNL     1      -0.251  10.537  -1.685  0.00  0.00    +0.111 A 
ATOM     32  C   UNL     1      -1.182  10.236  -2.658  0.00  0.00    +0.020 A 
ENDBRANCH   1  21
ENDBRANCH   7   1
TORSDOF 6
ENDMDL
MODEL 5
REMARK VINA RESULT:      -6.0     26.015     28.496
REMARK  Name = 11884463
REMARK  7 active torsions:
REMARK  status: ('A' for Active; 'I' for Inactive)
REMARK    1  A    between atoms: S_1  and  N_7
REMARK    2  A    between atoms: S_1  and  C_21
REMARK    3  A    between atoms: O_6  and  C_33
REMARK    4  A    between atoms: O_6  and  C_34
REMARK    5  A    between atoms: N_9  and  C_20
REMARK    6  A    between atoms: C_28  and  C_30
REMARK    7  A    between atoms: C_30  and  C_33
REMARK                            x       y       z     vdW  Elec       q    Type
REMARK                         _______ _______ _______ _____ _____    ______ ____
ROOT
ATOM      4  O   UNL     1       9.901   6.511   0.851  0.00  0.00    -0.266 OA
ATOM      7  N   UNL     1      10.506   8.600   5.333  0.00  0.00    -0.176 NA
ATOM      8  N   UNL     1       9.538   6.519   3.159  0.00  0.00    -0.310 N 
ATOM     11  C   UNL     1       8.224   8.367   4.350  0.00  0.00    +0.025 C 
ATOM     12  C   UNL     1       9.183   6.519   5.654  0.00  0.00    +0.052 C 
ATOM     13  C   UNL     1       7.892   7.281   5.365  0.00  0.00    +0.017 C 
ATOM     14  C   UNL     1       9.277   9.332   4.917  0.00  0.00    +0.114 C 
ATOM     15  C   UNL     1      10.217   7.476   6.274  0.00  0.00    +0.119 C 
ATOM     16  C   UNL     1       8.678   7.704   3.043  0.00  0.00    +0.130 C 
ATOM     17  C   UNL     1       9.737   5.887   4.391  0.00  0.00    +0.026 A 
ATOM     18  C   UNL     1      10.434   4.740   4.456  0.00  0.00    +0.024 A 
ATOM     19  C   UNL     1      10.063   5.998   1.959  0.00  0.00    +0.273 A 
ATOM     20  C   UNL     1      10.853   4.731   2.079  0.00  0.00    +0.099 A 
ATOM     22  C   UNL     1      11.003   4.154   3.275  0.00  0.00    +0.030 A 
ENDROOT
BRANCH  20   9
ATOM      5  O   UNL     1      13.559   3.870   1.718  0.00  0.00    -0.275 OA
ATOM      9  N   UNL     1      11.389   4.201   0.942  0.00  0.00    -0.281 N 
ATOM     28  C   UNL     1      12.715   3.802   0.829  0.00  0.00    +0.220 C 
ATOM     35  H   UNL     1      10.850   4.312   0.087  0.00  0.00    +0.155 HD
BRANCH  28  30
ATOM     30  C   UNL     1      13.011   3.252  -0.559  0.00  0.00    +0.124 C 
BRANCH  30  33
ATOM     33  C   UNL     1      12.144   3.875  -1.642  0.00  0.00    +0.168 C 
BRANCH  33   6
ATOM      6  O   UNL     1      10.904   3.182  -1.711  0.00  0.00    -0.382 OA
ATOM     34  C   UNL     1      10.915   2.196  -2.734  0.00  0.00    +0.194 C 
ENDBRANCH  33   6
ENDBRANCH  30  33
ENDBRANCH  28  30
ENDBRANCH  20   9
BRANCH   7   1
ATOM      1  S   UNL     1      11.849   9.581   5.742  0.00  0.00    +0.063 S 
ATOM      2  O   UNL     1      11.885   9.735   7.181  0.00  0.00    -0.153 OA
ATOM      3  O   UNL     1      11.896  10.718   4.848  0.00  0.00    -0.153 OA
BRANCH   1  21
ATOM     10  N   UNL     1      12.635   8.491   3.082  0.00  0.00    -0.253 NA
ATOM     21  C   UNL     1      13.330   8.659   5.344  0.00  0.00    +0.131 A 
ATOM     23  C   UNL     1      13.530   8.229   4.053  0.00  0.00    +0.097 A 
ATOM     24  C   UNL     1      14.209   8.424   6.383  0.00  0.00    +0.031 A 
ATOM     25  C   UNL     1      14.714   7.507   3.799  0.00  0.00    +0.002 A 
ATOM     26  C   UNL     1      15.374   7.711   6.125  0.00  0.00    +0.003 A 
ATOM     27  C   UNL     1      15.628   7.253   4.836  0.00  0.00    +0.010 A 
ATOM     29  C   UNL     1      14.945   7.057   2.492  0.00  0.00    +0.011 A 
ATOM     31  C   UNL     1      12.895   8.038   1.834  0.00  0.00    +0.111 A 
ATOM     32  C   UNL     1      14.024   7.324   1.489  0.00  0.00    +0.020 A 
ENDBRANCH   1  21
ENDBRANCH   7   1
TORSDOF 6
ENDMDL
MODEL 6
REMARK VINA RESULT:      -6.0     26.094     28.800
REMARK  Name = 11884463
REMARK  7 active torsions:
REMARK  status: ('A' for Active; 'I' for Inactive)
REMARK    1  A    between atoms: S_1  and  N_7
REMARK    2  A    between atoms: S_1  and  C_21
REMARK    3  A    between atoms: O_6  and  C_33
REMARK    4  A    between atoms: O_6  and  C_34
REMARK    5  A    between atoms: N_9  and  C_20
REMARK    6  A    between atoms: C_28  and  C_30
REMARK    7  A    between atoms: C_30  and  C_33
REMARK                            x       y       z     vdW  Elec       q    Type
REMARK                         _______ _______ _______ _____ _____    ______ ____
ROOT
ATOM      4  O   UNL     1      11.941   7.504   2.008  0.00  0.00    -0.266 OA
ATOM      7  N   UNL     1       9.531   9.714   5.767  0.00  0.00    -0.176 NA
ATOM      8  N   UNL     1      10.058   7.715   3.375  0.00  0.00    -0.310 N 
ATOM     11  C   UNL     1       8.624   9.835   3.444  0.00  0.00    +0.025 C 
ATOM     12  C   UNL     1       8.047   7.927   4.880  0.00  0.00    +0.052 C 
ATOM     13  C   UNL     1       7.494   8.889   3.831  0.00  0.00    +0.017 C 
ATOM     14  C   UNL     1       9.106  10.629   4.670  0.00  0.00    +0.114 C 
ATOM     15  C   UNL     1       8.478   8.718   6.128  0.00  0.00    +0.119 C 
ATOM     16  C   UNL     1       9.750   9.026   2.789  0.00  0.00    +0.130 C 
ATOM     17  C   UNL     1       9.216   7.131   4.328  0.00  0.00    +0.026 A 
ATOM     18  C   UNL     1       9.455   5.884   4.767  0.00  0.00    +0.024 A 
ATOM     19  C   UNL     1      11.181   7.038   2.857  0.00  0.00    +0.273 A 
ATOM     20  C   UNL     1      11.424   5.660   3.390  0.00  0.00    +0.099 A 
ATOM     22  C   UNL     1      10.583   5.136   4.287  0.00  0.00    +0.030 A 
ENDROOT
BRANCH  20   9
ATOM      5  O   UNL     1      11.451   3.803   1.211  0.00  0.00    -0.275 OA
ATOM      9  N   UNL     1      12.508   4.976   2.922  0.00  0.00    -0.281 N 
ATOM     28  C   UNL     1      12.456   4.084   1.857  0.00  0.00    +0.220 C 
ATOM     35  H   UNL     1      13.331   4.956   3.520  0.00  0.00    +0.155 HD
BRANCH  28  30
ATOM     30  C   UNL     1      13.824   3.481   1.573  0.00  0.00    +0.124 C 
BRANCH  30  33
ATOM     33  C   UNL     1      14.625   4.278   0.555  0.00  0.00    +0.168 C 
BRANCH  33   6
ATOM      6  O   UNL     1      14.192   5.633   0.570  0.00  0.00    -0.382 OA
ATOM     34  C   UNL     1      15.260   6.517   0.883  0.00  0.00    +0.194 C 
ENDBRANCH  33   6
ENDBRANCH  30  33
ENDBRANCH  28  30
ENDBRANCH  20   9
BRANCH   7   1
ATOM      1  S   UNL     1      10.326  10.461   7.087  0.00  0.00    +0.063 S 
ATOM      2  O   UNL     1      10.104   9.660   8.272  0.00  0.00    -0.153 OA
ATOM      3  O   UNL     1      10.055  11.883   7.061  0.00  0.00    -0.153 OA
BRANCH   1  21
ATOM     10  N   UNL     1      11.985   7.988   6.949  0.00  0.00    -0.253 NA
ATOM     21  C   UNL     1      12.087  10.353   6.785  0.00  0.00    +0.131 A 
ATOM     23  C   UNL     1      12.692   9.117   6.756  0.00  0.00    +0.097 A 
ATOM     24  C   UNL     1      12.755  11.547   6.593  0.00  0.00    +0.031 A 
ATOM     25  C   UNL     1      14.081   9.095   6.515  0.00  0.00    +0.002 A 
ATOM     26  C   UNL     1      14.124  11.516   6.356  0.00  0.00    +0.003 A 
ATOM     27  C   UNL     1      14.787  10.293   6.316  0.00  0.00    +0.010 A 
ATOM     29  C   UNL     1      14.724   7.850   6.480  0.00  0.00    +0.011 A 
ATOM     31  C   UNL     1      12.643   6.807   6.908  0.00  0.00    +0.111 A 
ATOM     32  C   UNL     1      13.998   6.684   6.679  0.00  0.00    +0.020 A 
ENDBRANCH   1  21
ENDBRANCH   7   1
TORSDOF 6
ENDMDL
MODEL 7
REMARK VINA RESULT:      -6.0      3.157      7.108
REMARK  Name = 11884463
REMARK  7 active torsions:
REMARK  status: ('A' for Active; 'I' for Inactive)
REMARK    1  A    between atoms: S_1  and  N_7
REMARK    2  A    between atoms: S_1  and  C_21
REMARK    3  A    between atoms: O_6  and  C_33
REMARK    4  A    between atoms: O_6  and  C_34
REMARK    5  A    between atoms: N_9  and  C_20
REMARK    6  A    between atoms: C_28  and  C_30
REMARK    7  A    between atoms: C_30  and  C_33
REMARK                            x       y       z     vdW  Elec       q    Type
REMARK                         _______ _______ _______ _____ _____    ______ ____
ROOT
ATOM      4  O   UNL     1      -4.838 -12.633   9.976  0.00  0.00    -0.266 OA
ATOM      7  N   UNL     1      -3.887 -11.687  14.774  0.00  0.00    -0.176 NA
ATOM      8  N   UNL     1      -3.347 -12.062  11.682  0.00  0.00    -0.310 N 
ATOM     11  C   UNL     1      -2.807 -13.628  13.635  0.00  0.00    +0.025 C 
ATOM     12  C   UNL     1      -1.755 -11.411  13.524  0.00  0.00    +0.052 C 
ATOM     13  C   UNL     1      -1.467 -12.905  13.661  0.00  0.00    +0.017 C 
ATOM     14  C   UNL     1      -3.694 -13.165  14.803  0.00  0.00    +0.114 C 
ATOM     15  C   UNL     1      -2.595 -10.937  14.724  0.00  0.00    +0.119 C 
ATOM     16  C   UNL     1      -3.470 -13.402  12.270  0.00  0.00    +0.130 C 
ATOM     17  C   UNL     1      -2.474 -11.111  12.222  0.00  0.00    +0.026 A 
ATOM     18  C   UNL     1      -2.293  -9.933  11.603  0.00  0.00    +0.024 A 
ATOM     19  C   UNL     1      -4.071 -11.822  10.497  0.00  0.00    +0.273 A 
ATOM     20  C   UNL     1      -3.857 -10.487   9.852  0.00  0.00    +0.099 A 
ATOM     22  C   UNL     1      -3.001  -9.617  10.394  0.00  0.00    +0.030 A 
ENDROOT
BRANCH  20   9
ATOM      5  O   UNL     1      -6.312  -9.025   9.664  0.00  0.00    -0.275 OA
ATOM      9  N   UNL     1      -4.550 -10.211   8.709  0.00  0.00    -0.281 N 
ATOM     28  C   UNL     1      -5.741  -9.495   8.683  0.00  0.00    +0.220 C 
ATOM     35  H   UNL     1      -4.294 -10.741   7.879  0.00  0.00    +0.155 HD
BRANCH  28  30
ATOM     30  C   UNL     1      -6.270  -9.352   7.264  0.00  0.00    +0.124 C 
BRANCH  30  33
ATOM     33  C   UNL     1      -7.712  -8.871   7.214  0.00  0.00    +0.168 C 
BRANCH  33   6
ATOM      6  O   UNL     1      -7.754  -7.561   6.662  0.00  0.00    -0.382 OA
ATOM     34  C   UNL     1      -8.761  -6.768   7.277  0.00  0.00    +0.194 C 
ENDBRANCH  33   6
ENDBRANCH  30  33
ENDBRANCH  28  30
ENDBRANCH  20   9
BRANCH   7   1
ATOM      1  S   UNL     1      -5.056 -11.073  15.864  0.00  0.00    +0.063 S 
ATOM      2  O   UNL     1      -4.533  -9.867  16.471  0.00  0.00    -0.153 OA
ATOM      3  O   UNL     1      -5.585 -12.162  16.657  0.00  0.00    -0.153 OA
BRANCH   1  21
ATOM     10  N   UNL     1      -7.482  -9.647  16.847  0.00  0.00    -0.253 NA
ATOM     21  C   UNL     1      -6.458 -10.526  14.896  0.00  0.00    +0.131 A 
ATOM     23  C   UNL     1      -7.499  -9.878  15.521  0.00  0.00    +0.097 A 
ATOM     24  C   UNL     1      -6.415 -10.792  13.540  0.00  0.00    +0.031 A 
ATOM     25  C   UNL     1      -8.576  -9.472  14.707  0.00  0.00    +0.002 A 
ATOM     26  C   UNL     1      -7.480 -10.388  12.746  0.00  0.00    +0.003 A 
ATOM     27  C   UNL     1      -8.560  -9.728  13.326  0.00  0.00    +0.010 A 
ATOM     29  C   UNL     1      -9.650  -8.809  15.317  0.00  0.00    +0.011 A 
ATOM     31  C   UNL     1      -8.539  -9.006  17.397  0.00  0.00    +0.111 A 
ATOM     32  C   UNL     1      -9.637  -8.570  16.684  0.00  0.00    +0.020 A 
ENDBRANCH   1  21
ENDBRANCH   7   1
TORSDOF 6
ENDMDL
MODEL 8
REMARK VINA RESULT:      -6.0      2.707      6.538
REMARK  Name = 11884463
REMARK  7 active torsions:
REMARK  status: ('A' for Active; 'I' for Inactive)
REMARK    1  A    between atoms: S_1  and  N_7
REMARK    2  A    between atoms: S_1  and  C_21
REMARK    3  A    between atoms: O_6  and  C_33
REMARK    4  A    between atoms: O_6  and  C_34
REMARK    5  A    between atoms: N_9  and  C_20
REMARK    6  A    between atoms: C_28  and  C_30
REMARK    7  A    between atoms: C_30  and  C_33
REMARK                            x       y       z     vdW  Elec       q    Type
REMARK                         _______ _______ _______ _____ _____    ______ ____
ROOT
ATOM      4  O   UNL     1      -5.610 -13.112  15.999  0.00  0.00    -0.266 OA
ATOM      7  N   UNL     1      -9.613 -10.853  17.920  0.00  0.00    -0.176 NA
ATOM      8  N   UNL     1      -7.045 -12.693  17.794  0.00  0.00    -0.310 N 
ATOM     11  C   UNL     1      -9.522 -13.344  17.772  0.00  0.00    +0.025 C 
ATOM     12  C   UNL     1      -8.578 -12.204  19.734  0.00  0.00    +0.052 C 
ATOM     13  C   UNL     1      -9.366 -13.433  19.285  0.00  0.00    +0.017 C 
ATOM     14  C   UNL     1     -10.288 -12.069  17.383  0.00  0.00    +0.114 C 
ATOM     15  C   UNL     1      -9.373 -10.930  19.393  0.00  0.00    +0.119 C 
ATOM     16  C   UNL     1      -8.133 -13.415  17.123  0.00  0.00    +0.130 C 
ATOM     17  C   UNL     1      -7.210 -12.165  19.079  0.00  0.00    +0.026 A 
ATOM     18  C   UNL     1      -6.168 -11.608  19.719  0.00  0.00    +0.024 A 
ATOM     19  C   UNL     1      -5.806 -12.648  17.123  0.00  0.00    +0.273 A 
ATOM     20  C   UNL     1      -4.677 -11.998  17.862  0.00  0.00    +0.099 A 
ATOM     22  C   UNL     1      -4.877 -11.523  19.095  0.00  0.00    +0.030 A 
ENDROOT
BRANCH  20   9
ATOM      5  O   UNL     1      -3.737  -9.847  16.223  0.00  0.00    -0.275 OA
ATOM      9  N   UNL     1      -3.465 -11.924  17.241  0.00  0.00    -0.281 N 
ATOM     28  C   UNL     1      -3.066 -10.850  16.455  0.00  0.00    +0.220 C 
ATOM     35  H   UNL     1      -2.930 -12.787  17.176  0.00  0.00    +0.155 HD
BRANCH  28  30
ATOM     30  C   UNL     1      -1.665 -11.059  15.900  0.00  0.00    +0.124 C 
BRANCH  30  33
ATOM     33  C   UNL     1      -1.662 -11.638  14.494  0.00  0.00    +0.168 C 
BRANCH  33   6
ATOM      6  O   UNL     1      -2.764 -12.525  14.346  0.00  0.00    -0.382 OA
ATOM     34  C   UNL     1      -2.332 -13.861  14.130  0.00  0.00    +0.194 C 
ENDBRANCH  33   6
ENDBRANCH  30  33
ENDBRANCH  28  30
ENDBRANCH  20   9
BRANCH   7   1
ATOM      1  S   UNL     1     -10.217  -9.357  17.347  0.00  0.00    +0.063 S 
ATOM      2  O   UNL     1      -9.236  -8.329  17.621  0.00  0.00    -0.153 OA
ATOM      3  O   UNL     1     -11.602  -9.220  17.745  0.00  0.00    -0.153 OA
BRANCH   1  21
ATOM     10  N   UNL     1      -7.948  -9.820  15.471  0.00  0.00    -0.253 NA
ATOM     21  C   UNL     1     -10.290  -9.456  15.562  0.00  0.00    +0.131 A 
ATOM     23  C   UNL     1      -9.133  -9.676  14.850  0.00  0.00    +0.097 A 
ATOM     24  C   UNL     1     -11.536  -9.301  14.985  0.00  0.00    +0.031 A 
ATOM     25  C   UNL     1      -9.253  -9.743  13.447  0.00  0.00    +0.002 A 
ATOM     26  C   UNL     1     -11.646  -9.368  13.602  0.00  0.00    +0.003 A 
ATOM     27  C   UNL     1     -10.507  -9.590  12.832  0.00  0.00    +0.010 A 
ATOM     29  C   UNL     1      -8.091  -9.967  12.696  0.00  0.00    +0.011 A 
ATOM     31  C   UNL     1      -6.850 -10.034  14.709  0.00  0.00    +0.111 A 
ATOM     32  C   UNL     1      -6.867 -10.115  13.332  0.00  0.00    +0.020 A 
ENDBRANCH   1  21
ENDBRANCH   7   1
TORSDOF 6
ENDMDL
MODEL 9
REMARK VINA RESULT:      -6.0     19.320     22.859
REMARK  Name = 11884463
REMARK  7 active torsions:
REMARK  status: ('A' for Active; 'I' for Inactive)
REMARK    1  A    between atoms: S_1  and  N_7
REMARK    2  A    between atoms: S_1  and  C_21
REMARK    3  A    between atoms: O_6  and  C_33
REMARK    4  A    between atoms: O_6  and  C_34
REMARK    5  A    between atoms: N_9  and  C_20
REMARK    6  A    between atoms: C_28  and  C_30
REMARK    7  A    between atoms: C_30  and  C_33
REMARK                            x       y       z     vdW  Elec       q    Type
REMARK                         _______ _______ _______ _____ _____    ______ ____
ROOT
ATOM      4  O   UNL     1     -13.973   8.430  17.922  0.00  0.00    -0.266 OA
ATOM      7  N   UNL     1     -15.863   8.174  22.524  0.00  0.00    -0.176 NA
ATOM      8  N   UNL     1     -14.371   7.246  19.896  0.00  0.00    -0.310 N 
ATOM     11  C   UNL     1     -16.728   6.679  20.722  0.00  0.00    +0.025 C 
ATOM     12  C   UNL     1     -14.775   5.990  22.043  0.00  0.00    +0.052 C 
ATOM     13  C   UNL     1     -16.055   5.483  21.384  0.00  0.00    +0.017 C 
ATOM     14  C   UNL     1     -17.076   7.750  21.768  0.00  0.00    +0.114 C 
ATOM     15  C   UNL     1     -15.129   7.022  23.130  0.00  0.00    +0.119 C 
ATOM     16  C   UNL     1     -15.812   7.215  19.614  0.00  0.00    +0.130 C 
ATOM     17  C   UNL     1     -13.839   6.601  21.017  0.00  0.00    +0.026 A 
ATOM     18  C   UNL     1     -12.508   6.545  21.195  0.00  0.00    +0.024 A 
ATOM     19  C   UNL     1     -13.550   7.865  18.931  0.00  0.00    +0.273 A 
ATOM     20  C   UNL     1     -12.075   7.799  19.180  0.00  0.00    +0.099 A 
ATOM     22  C   UNL     1     -11.611   7.158  20.256  0.00  0.00    +0.030 A 
ENDROOT
BRANCH  20   9
ATOM      5  O   UNL     1     -10.921  10.410  19.402  0.00  0.00    -0.275 OA
ATOM      9  N   UNL     1     -11.247   8.398  18.275  0.00  0.00    -0.281 N 
ATOM     28  C   UNL     1     -10.718   9.672  18.441  0.00  0.00    +0.220 C 
ATOM     35  H   UNL     1     -11.199   7.978  17.350  0.00  0.00    +0.155 HD
BRANCH  28  30
ATOM     30  C   UNL     1      -9.833  10.061  17.265  0.00  0.00    +0.124 C 
BRANCH  30  33
ATOM     33  C   UNL     1     -10.479   9.781  15.917  0.00  0.00    +0.168 C 
BRANCH  33   6
ATOM      6  O   UNL     1     -10.335   8.401  15.602  0.00  0.00    -0.382 OA
ATOM     34  C   UNL     1     -10.870   8.100  14.321  0.00  0.00    +0.194 C 
ENDBRANCH  33   6
ENDBRANCH  30  33
ENDBRANCH  28  30
ENDBRANCH  20   9
BRANCH   7   1
ATOM      1  S   UNL     1     -16.063   9.539  23.538  0.00  0.00    +0.063 S 
ATOM      2  O   UNL     1     -16.354   9.078  24.879  0.00  0.00    -0.153 OA
ATOM      3  O   UNL     1     -16.896  10.513  22.865  0.00  0.00    -0.153 OA
BRANCH   1  21
ATOM     10  N   UNL     1     -15.168  11.424  25.666  0.00  0.00    -0.253 NA
ATOM     21  C   UNL     1     -14.473  10.349  23.669  0.00  0.00    +0.131 A 
ATOM     23  C   UNL     1     -14.231  11.195  24.726  0.00  0.00    +0.097 A 
ATOM     24  C   UNL     1     -13.555  10.072  22.674  0.00  0.00    +0.031 A 
ATOM     25  C   UNL     1     -12.961  11.806  24.776  0.00  0.00    +0.002 A 
ATOM     26  C   UNL     1     -12.306  10.678  22.730  0.00  0.00    +0.003 A 
ATOM     27  C   UNL     1     -12.007  11.543  23.778  0.00  0.00    +0.010 A 
ATOM     29  C   UNL     1     -12.687  12.672  25.843  0.00  0.00    +0.011 A 
ATOM     31  C   UNL     1     -14.863  12.268  26.679  0.00  0.00    +0.111 A 
ATOM     32  C   UNL     1     -13.650  12.911  26.813  0.00  0.00    +0.020 A 
ENDBRANCH   1  21
ENDBRANCH   7   1
TORSDOF 6
ENDMDL
MODEL 10
REMARK VINA RESULT:      -5.9     25.327     28.060
REMARK  Name = 11884463
REMARK  7 active torsions:
REMARK  status: ('A' for Active; 'I' for Inactive)
REMARK    1  A    between atoms: S_1  and  N_7
REMARK    2  A    between atoms: S_1  and  C_21
REMARK    3  A    between atoms: O_6  and  C_33
REMARK    4  A    between atoms: O_6  and  C_34
REMARK    5  A    between atoms: N_9  and  C_20
REMARK    6  A    between atoms: C_28  and  C_30
REMARK    7  A    between atoms: C_30  and  C_33
REMARK                            x       y       z     vdW  Elec       q    Type
REMARK                         _______ _______ _______ _____ _____    ______ ____
ROOT
ATOM      4  O   UNL     1      12.191   7.703   2.916  0.00  0.00    -0.266 OA
ATOM      7  N   UNL     1      12.225   4.491  -0.893  0.00  0.00    -0.176 NA
ATOM      8  N   UNL     1      12.589   5.566   2.058  0.00  0.00    -0.310 N 
ATOM     11  C   UNL     1      14.353   5.098   0.262  0.00  0.00    +0.025 C 
ATOM     12  C   UNL     1      12.979   3.256   1.130  0.00  0.00    +0.052 C 
ATOM     13  C   UNL     1      14.416   3.710   0.887  0.00  0.00    +0.017 C 
ATOM     14  C   UNL     1      13.593   5.056  -1.073  0.00  0.00    +0.114 C 
ATOM     15  C   UNL     1      12.235   3.160  -0.215  0.00  0.00    +0.119 C 
ATOM     16  C   UNL     1      13.720   6.068   1.268  0.00  0.00    +0.130 C 
ATOM     17  C   UNL     1      12.258   4.207   2.067  0.00  0.00    +0.026 A 
ATOM     18  C   UNL     1      11.293   3.752   2.884  0.00  0.00    +0.024 A 
ATOM     19  C   UNL     1      11.925   6.501   2.879  0.00  0.00    +0.273 A 
ATOM     20  C   UNL     1      10.841   5.956   3.756  0.00  0.00    +0.099 A 
ATOM     22  C   UNL     1      10.571   4.648   3.743  0.00  0.00    +0.030 A 
ENDROOT
BRANCH  20   9
ATOM      5  O   UNL     1       8.580   7.546   3.008  0.00  0.00    -0.275 OA
ATOM      9  N   UNL     1      10.166   6.831   4.557  0.00  0.00    -0.281 N 
ATOM     28  C   UNL     1       9.072   7.577   4.132  0.00  0.00    +0.220 C 
ATOM     35  H   UNL     1      10.622   7.104   5.424  0.00  0.00    +0.155 HD
BRANCH  28  30
ATOM     30  C   UNL     1       8.537   8.460   5.251  0.00  0.00    +0.124 C 
BRANCH  30  33
ATOM     33  C   UNL     1       8.293   7.698   6.544  0.00  0.00    +0.168 C 
BRANCH  33   6
ATOM      6  O   UNL     1       9.511   7.600   7.272  0.00  0.00    -0.382 OA
ATOM     34  C   UNL     1       9.538   6.438   8.089  0.00  0.00    +0.194 C 
ENDBRANCH  33   6
ENDBRANCH  30  33
ENDBRANCH  28  30
ENDBRANCH  20   9
BRANCH   7   1
ATOM      1  S   UNL     1      11.185   4.624  -2.246  0.00  0.00    +0.063 S 
ATOM      2  O   UNL     1      10.348   3.445  -2.302  0.00  0.00    -0.153 OA
ATOM      3  O   UNL     1      11.950   5.075  -3.390  0.00  0.00    -0.153 OA
BRANCH   1  21
ATOM     10  N   UNL     1       8.668   5.256  -3.713  0.00  0.00    -0.253 NA
ATOM     21  C   UNL     1      10.054   5.973  -1.926  0.00  0.00    +0.131 A 
ATOM     23  C   UNL     1       8.933   6.114  -2.710  0.00  0.00    +0.097 A 
ATOM     24  C   UNL     1      10.381   6.819  -0.882  0.00  0.00    +0.031 A 
ATOM     25  C   UNL     1       8.079   7.196  -2.411  0.00  0.00    +0.002 A 
ATOM     26  C   UNL     1       9.535   7.882  -0.594  0.00  0.00    +0.003 A 
ATOM     27  C   UNL     1       8.385   8.072  -1.356  0.00  0.00    +0.010 A 
ATOM     29  C   UNL     1       6.928   7.364  -3.193  0.00  0.00    +0.011 A 
ATOM     31  C   UNL     1       7.547   5.454  -4.444  0.00  0.00    +0.111 A 
ATOM     32  C   UNL     1       6.653   6.482  -4.227  0.00  0.00    +0.020 A 
ENDBRANCH   1  21
ENDBRANCH   7   1
TORSDOF 6
ENDMDL
