MODEL 1
REMARK VINA RESULT:      -7.2      0.000      0.000
REMARK  Name = 45783691
REMARK  6 active torsions:
REMARK  status: ('A' for Active; 'I' for Inactive)
REMARK    1  A    between atoms: O_4  and  C_26
REMARK    2  A    between atoms: O_4  and  C_27
REMARK    3  A    between atoms: N_5  and  C_13
REMARK    4  A    between atoms: C_9  and  C_14
REMARK    5  A    between atoms: C_13  and  C_15
REMARK    6  A    between atoms: C_18  and  C_21
REMARK                            x       y       z     vdW  Elec       q    Type
REMARK                         _______ _______ _______ _____ _____    ______ ____
ROOT
ATOM      5  N   UNL     1      -3.114 -10.532  14.457  0.00  0.00    -0.287 NA
ATOM      9  C   UNL     1      -3.052 -11.273  15.732  0.00  0.00    +0.146 C 
ATOM     10  C   UNL     1      -1.732 -10.822  16.383  0.00  0.00    +0.030 C 
ATOM     11  C   UNL     1      -1.094  -9.877  15.373  0.00  0.00    +0.017 C 
ATOM     12  C   UNL     1      -1.729 -10.279  14.058  0.00  0.00    +0.085 C 
ENDROOT
BRANCH   9  14
ATOM      3  O   UNL     1      -4.103 -11.275  17.939  0.00  0.00    -0.336 OA
ATOM      6  N   UNL     1      -5.445 -10.573  16.288  0.00  0.00    -0.190 NA
ATOM      7  N   UNL     1      -5.331 -10.966  18.539  0.00  0.00    -0.056 NA
ATOM     14  C   UNL     1      -4.256 -11.015  16.613  0.00  0.00    +0.245 A 
ATOM     18  C   UNL     1      -6.069 -10.559  17.501  0.00  0.00    +0.204 A 
BRANCH  18  21
ATOM      8  N   UNL     1      -9.586 -10.418  18.699  0.00  0.00    -0.221 NA
ATOM     21  C   UNL     1      -7.431 -10.132  17.642  0.00  0.00    +0.041 A 
ATOM     23  C   UNL     1      -7.927  -9.065  16.901  0.00  0.00    +0.018 A 
ATOM     24  C   UNL     1      -8.293 -10.769  18.519  0.00  0.00    +0.126 A 
ATOM     25  C   UNL     1      -9.253  -8.675  17.058  0.00  0.00    +0.068 A 
ATOM     26  C   UNL     1     -10.033  -9.377  17.962  0.00  0.00    +0.214 A 
BRANCH  26   4
ATOM      4  O   UNL     1     -11.342  -9.011  18.135  0.00  0.00    -0.480 OA
ATOM     27  C   UNL     1     -12.062  -8.640  16.966  0.00  0.00    +0.279 C 
ENDBRANCH  26   4
ENDBRANCH  18  21
ENDBRANCH   9  14
BRANCH   5  13
ATOM     13  C   UNL     1      -3.863 -11.234  13.421  0.00  0.00    +0.120 C 
BRANCH  13  15
ATOM      1  F   UNL     1      -3.388  -8.853   9.187  0.00  0.00    -0.202 F 
ATOM      2  F   UNL     1      -5.845  -7.697   9.507  0.00  0.00    -0.202 F 
ATOM     15  C   UNL     1      -4.392 -10.288  12.376  0.00  0.00    -0.030 A 
ATOM     16  C   UNL     1      -3.630 -10.003  11.243  0.00  0.00    +0.046 A 
ATOM     17  C   UNL     1      -5.646  -9.700  12.538  0.00  0.00    +0.008 A 
ATOM     19  C   UNL     1      -4.121  -9.127  10.274  0.00  0.00    +0.159 A 
ATOM     20  C   UNL     1      -6.137  -8.825  11.570  0.00  0.00    +0.041 A 
ATOM     22  C   UNL     1      -5.374  -8.539  10.437  0.00  0.00    +0.158 A 
ENDBRANCH  13  15
ENDBRANCH   5  13
TORSDOF 5
ENDMDL
MODEL 2
REMARK VINA RESULT:      -7.0      1.399      1.959
REMARK  Name = 45783691
REMARK  6 active torsions:
REMARK  status: ('A' for Active; 'I' for Inactive)
REMARK    1  A    between atoms: O_4  and  C_26
REMARK    2  A    between atoms: O_4  and  C_27
REMARK    3  A    between atoms: N_5  and  C_13
REMARK    4  A    between atoms: C_9  and  C_14
REMARK    5  A    between atoms: C_13  and  C_15
REMARK    6  A    between atoms: C_18  and  C_21
REMARK                            x       y       z     vdW  Elec       q    Type
REMARK                         _______ _______ _______ _____ _____    ______ ____
ROOT
ATOM      5  N   UNL     1      -2.958 -10.543  14.208  0.00  0.00    -0.287 NA
ATOM      9  C   UNL     1      -3.255 -11.216  15.488  0.00  0.00    +0.146 C 
ATOM     10  C   UNL     1      -2.097 -10.815  16.420  0.00  0.00    +0.030 C 
ATOM     11  C   UNL     1      -1.169  -9.969  15.558  0.00  0.00    +0.017 C 
ATOM     12  C   UNL     1      -1.503 -10.400  14.145  0.00  0.00    +0.085 C 
ENDROOT
BRANCH   9  14
ATOM      3  O   UNL     1      -4.906 -11.296  17.288  0.00  0.00    -0.336 OA
ATOM      6  N   UNL     1      -5.561 -10.119  15.498  0.00  0.00    -0.190 NA
ATOM      7  N   UNL     1      -6.192 -10.823  17.581  0.00  0.00    -0.056 NA
ATOM     14  C   UNL     1      -4.611 -10.836  16.043  0.00  0.00    +0.245 A 
ATOM     18  C   UNL     1      -6.510 -10.138  16.478  0.00  0.00    +0.204 A 
BRANCH  18  21
ATOM      8  N   UNL     1      -9.607  -8.828  14.893  0.00  0.00    -0.221 NA
ATOM     21  C   UNL     1      -7.766  -9.462  16.324  0.00  0.00    +0.041 A 
ATOM     23  C   UNL     1      -8.359  -8.801  17.394  0.00  0.00    +0.018 A 
ATOM     24  C   UNL     1      -8.424  -9.447  15.106  0.00  0.00    +0.126 A 
ATOM     25  C   UNL     1      -9.576  -8.152  17.214  0.00  0.00    +0.068 A 
ATOM     26  C   UNL     1     -10.154  -8.196  15.955  0.00  0.00    +0.214 A 
BRANCH  26   4
ATOM      4  O   UNL     1     -11.354  -7.565  15.753  0.00  0.00    -0.480 OA
ATOM     27  C   UNL     1     -11.409  -6.180  16.069  0.00  0.00    +0.279 C 
ENDBRANCH  26   4
ENDBRANCH  18  21
ENDBRANCH   9  14
BRANCH   5  13
ATOM     13  C   UNL     1      -3.489 -11.251  13.049  0.00  0.00    +0.120 C 
BRANCH  13  15
ATOM      1  F   UNL     1      -7.207  -8.652  11.249  0.00  0.00    -0.202 F 
ATOM      2  F   UNL     1      -5.627  -7.701   9.231  0.00  0.00    -0.202 F 
ATOM     15  C   UNL     1      -4.060 -10.303  12.028  0.00  0.00    -0.030 A 
ATOM     16  C   UNL     1      -5.395  -9.909  12.113  0.00  0.00    +0.046 A 
ATOM     17  C   UNL     1      -3.254  -9.817  11.000  0.00  0.00    +0.008 A 
ATOM     19  C   UNL     1      -5.925  -9.030  11.168  0.00  0.00    +0.159 A 
ATOM     20  C   UNL     1      -3.783  -8.938  10.055  0.00  0.00    +0.041 A 
ATOM     22  C   UNL     1      -5.118  -8.544  10.139  0.00  0.00    +0.158 A 
ENDBRANCH  13  15
ENDBRANCH   5  13
TORSDOF 5
ENDMDL
MODEL 3
REMARK VINA RESULT:      -6.8     18.812     20.155
REMARK  Name = 45783691
REMARK  6 active torsions:
REMARK  status: ('A' for Active; 'I' for Inactive)
REMARK    1  A    between atoms: O_4  and  C_26
REMARK    2  A    between atoms: O_4  and  C_27
REMARK    3  A    between atoms: N_5  and  C_13
REMARK    4  A    between atoms: C_9  and  C_14
REMARK    5  A    between atoms: C_13  and  C_15
REMARK    6  A    between atoms: C_18  and  C_21
REMARK                            x       y       z     vdW  Elec       q    Type
REMARK                         _______ _______ _______ _____ _____    ______ ____
ROOT
ATOM      5  N   UNL     1     -15.335   6.247  21.473  0.00  0.00    -0.287 NA
ATOM      9  C   UNL     1     -16.621   5.944  22.131  0.00  0.00    +0.146 C 
ATOM     10  C   UNL     1     -17.641   5.866  20.981  0.00  0.00    +0.030 C 
ATOM     11  C   UNL     1     -16.849   6.201  19.724  0.00  0.00    +0.017 C 
ATOM     12  C   UNL     1     -15.660   6.980  20.249  0.00  0.00    +0.085 C 
ENDROOT
BRANCH   9  14
ATOM      3  O   UNL     1     -16.504   3.505  22.258  0.00  0.00    -0.336 OA
ATOM      6  N   UNL     1     -16.575   4.523  24.253  0.00  0.00    -0.190 NA
ATOM      7  N   UNL     1     -16.466   2.485  23.218  0.00  0.00    -0.056 NA
ATOM     14  C   UNL     1     -16.568   4.672  22.952  0.00  0.00    +0.245 A 
ATOM     18  C   UNL     1     -16.511   3.165  24.368  0.00  0.00    +0.204 A 
BRANCH  18  21
ATOM      8  N   UNL     1     -16.856   0.519  26.957  0.00  0.00    -0.221 NA
ATOM     21  C   UNL     1     -16.492   2.518  25.648  0.00  0.00    +0.041 A 
ATOM     23  C   UNL     1     -16.114   3.209  26.794  0.00  0.00    +0.018 A 
ATOM     24  C   UNL     1     -16.850   1.187  25.782  0.00  0.00    +0.126 A 
ATOM     25  C   UNL     1     -16.107   2.555  28.022  0.00  0.00    +0.068 A 
ATOM     26  C   UNL     1     -16.483   1.222  28.049  0.00  0.00    +0.214 A 
BRANCH  26   4
ATOM      4  O   UNL     1     -16.483   0.556  29.247  0.00  0.00    -0.480 OA
ATOM     27  C   UNL     1     -15.300   0.649  30.030  0.00  0.00    +0.279 C 
ENDBRANCH  26   4
ENDBRANCH  18  21
ENDBRANCH   9  14
BRANCH   5  13
ATOM     13  C   UNL     1     -14.413   6.987  22.326  0.00  0.00    +0.120 C 
BRANCH  13  15
ATOM      1  F   UNL     1     -11.963  10.874  20.679  0.00  0.00    -0.202 F 
ATOM      2  F   UNL     1     -10.186   9.259  19.371  0.00  0.00    -0.202 F 
ATOM     15  C   UNL     1     -13.284   7.594  21.535  0.00  0.00    -0.030 A 
ATOM     16  C   UNL     1     -13.143   8.980  21.472  0.00  0.00    +0.046 A 
ATOM     17  C   UNL     1     -12.377   6.770  20.869  0.00  0.00    +0.008 A 
ATOM     19  C   UNL     1     -12.097   9.543  20.740  0.00  0.00    +0.159 A 
ATOM     20  C   UNL     1     -11.331   7.332  20.138  0.00  0.00    +0.041 A 
ATOM     22  C   UNL     1     -11.190   8.719  20.074  0.00  0.00    +0.158 A 
ENDBRANCH  13  15
ENDBRANCH   5  13
TORSDOF 5
ENDMDL
MODEL 4
REMARK VINA RESULT:      -6.6     18.692     19.803
REMARK  Name = 45783691
REMARK  6 active torsions:
REMARK  status: ('A' for Active; 'I' for Inactive)
REMARK    1  A    between atoms: O_4  and  C_26
REMARK    2  A    between atoms: O_4  and  C_27
REMARK    3  A    between atoms: N_5  and  C_13
REMARK    4  A    between atoms: C_9  and  C_14
REMARK    5  A    between atoms: C_13  and  C_15
REMARK    6  A    between atoms: C_18  and  C_21
REMARK                            x       y       z     vdW  Elec       q    Type
REMARK                         _______ _______ _______ _____ _____    ______ ____
ROOT
ATOM      5  N   UNL     1     -16.904   5.282  20.497  0.00  0.00    -0.287 NA
ATOM      9  C   UNL     1     -18.066   4.631  21.133  0.00  0.00    +0.146 C 
ATOM     10  C   UNL     1     -18.810   3.941  19.975  0.00  0.00    +0.030 C 
ATOM     11  C   UNL     1     -18.027   4.312  18.723  0.00  0.00    +0.017 C 
ATOM     12  C   UNL     1     -17.298   5.579  19.120  0.00  0.00    +0.085 C 
ENDROOT
BRANCH   9  14
ATOM      3  O   UNL     1     -17.492   2.369  21.859  0.00  0.00    -0.336 OA
ATOM      6  N   UNL     1     -17.455   3.893  23.500  0.00  0.00    -0.190 NA
ATOM      7  N   UNL     1     -17.130   1.679  23.023  0.00  0.00    -0.056 NA
ATOM     14  C   UNL     1     -17.665   3.666  22.228  0.00  0.00    +0.245 A 
ATOM     18  C   UNL     1     -17.129   2.645  23.947  0.00  0.00    +0.204 A 
BRANCH  18  21
ATOM      8  N   UNL     1     -15.993   3.242  27.437  0.00  0.00    -0.221 NA
ATOM     21  C   UNL     1     -16.808   2.398  25.323  0.00  0.00    +0.041 A 
ATOM     23  C   UNL     1     -16.977   1.137  25.882  0.00  0.00    +0.018 A 
ATOM     24  C   UNL     1     -16.318   3.407  26.135  0.00  0.00    +0.126 A 
ATOM     25  C   UNL     1     -16.654   0.927  27.219  0.00  0.00    +0.068 A 
ATOM     26  C   UNL     1     -16.171   2.003  27.947  0.00  0.00    +0.214 A 
BRANCH  26   4
ATOM      4  O   UNL     1     -15.848   1.821  29.265  0.00  0.00    -0.480 OA
ATOM     27  C   UNL     1     -15.132   0.636  29.590  0.00  0.00    +0.279 C 
ENDBRANCH  26   4
ENDBRANCH  18  21
ENDBRANCH   9  14
BRANCH   5  13
ATOM     13  C   UNL     1     -16.452   6.473  21.207  0.00  0.00    +0.120 C 
BRANCH  13  15
ATOM      1  F   UNL     1     -11.881   5.119  22.252  0.00  0.00    -0.202 F 
ATOM      2  F   UNL     1     -10.880   7.184  20.767  0.00  0.00    -0.202 F 
ATOM     15  C   UNL     1     -14.963   6.664  21.090  0.00  0.00    -0.030 A 
ATOM     16  C   UNL     1     -14.095   5.786  21.737  0.00  0.00    +0.046 A 
ATOM     17  C   UNL     1     -14.453   7.717  20.331  0.00  0.00    +0.008 A 
ATOM     19  C   UNL     1     -12.715   5.962  21.629  0.00  0.00    +0.159 A 
ATOM     20  C   UNL     1     -13.073   7.893  20.222  0.00  0.00    +0.041 A 
ATOM     22  C   UNL     1     -12.204   7.015  20.870  0.00  0.00    +0.158 A 
ENDBRANCH  13  15
ENDBRANCH   5  13
TORSDOF 5
ENDMDL
MODEL 5
REMARK VINA RESULT:      -6.6     18.718     20.134
REMARK  Name = 45783691
REMARK  6 active torsions:
REMARK  status: ('A' for Active; 'I' for Inactive)
REMARK    1  A    between atoms: O_4  and  C_26
REMARK    2  A    between atoms: O_4  and  C_27
REMARK    3  A    between atoms: N_5  and  C_13
REMARK    4  A    between atoms: C_9  and  C_14
REMARK    5  A    between atoms: C_13  and  C_15
REMARK    6  A    between atoms: C_18  and  C_21
REMARK                            x       y       z     vdW  Elec       q    Type
REMARK                         _______ _______ _______ _____ _____    ______ ____
ROOT
ATOM      5  N   UNL     1     -17.571   3.650  22.460  0.00  0.00    -0.287 NA
ATOM      9  C   UNL     1     -18.450   3.004  23.454  0.00  0.00    +0.146 C 
ATOM     10  C   UNL     1     -19.225   1.938  22.659  0.00  0.00    +0.030 C 
ATOM     11  C   UNL     1     -18.761   2.102  21.218  0.00  0.00    +0.017 C 
ATOM     12  C   UNL     1     -18.248   3.527  21.169  0.00  0.00    +0.085 C 
ENDROOT
BRANCH   9  14
ATOM      3  O   UNL     1     -17.113   1.199  24.418  0.00  0.00    -0.336 OA
ATOM      6  N   UNL     1     -17.471   2.916  25.812  0.00  0.00    -0.190 NA
ATOM      7  N   UNL     1     -16.466   0.870  25.616  0.00  0.00    -0.056 NA
ATOM     14  C   UNL     1     -17.679   2.418  24.619  0.00  0.00    +0.245 A 
ATOM     18  C   UNL     1     -16.722   1.932  26.387  0.00  0.00    +0.204 A 
BRANCH  18  21
ATOM      8  N   UNL     1     -15.882   1.001  29.888  0.00  0.00    -0.221 NA
ATOM     21  C   UNL     1     -16.244   2.040  27.736  0.00  0.00    +0.041 A 
ATOM     23  C   UNL     1     -15.701   3.229  28.209  0.00  0.00    +0.018 A 
ATOM     24  C   UNL     1     -16.312   0.965  28.606  0.00  0.00    +0.126 A 
ATOM     25  C   UNL     1     -15.247   3.304  29.522  0.00  0.00    +0.068 A 
ATOM     26  C   UNL     1     -15.359   2.172  30.313  0.00  0.00    +0.214 A 
BRANCH  26   4
ATOM      4  O   UNL     1     -14.919   2.222  31.610  0.00  0.00    -0.480 OA
ATOM     27  C   UNL     1     -13.824   3.088  31.880  0.00  0.00    +0.279 C 
ENDBRANCH  26   4
ENDBRANCH  18  21
ENDBRANCH   9  14
BRANCH   5  13
ATOM     13  C   UNL     1     -17.257   5.036  22.784  0.00  0.00    +0.120 C 
BRANCH  13  15
ATOM      1  F   UNL     1     -12.411   4.497  22.995  0.00  0.00    -0.202 F 
ATOM      2  F   UNL     1     -12.065   6.450  21.114  0.00  0.00    -0.202 F 
ATOM     15  C   UNL     1     -15.870   5.415  22.338  0.00  0.00    -0.030 A 
ATOM     16  C   UNL     1     -14.762   4.768  22.884  0.00  0.00    +0.046 A 
ATOM     17  C   UNL     1     -15.693   6.410  21.378  0.00  0.00    +0.008 A 
ATOM     19  C   UNL     1     -13.476   5.118  22.470  0.00  0.00    +0.159 A 
ATOM     20  C   UNL     1     -14.408   6.760  20.965  0.00  0.00    +0.041 A 
ATOM     22  C   UNL     1     -13.299   6.113  21.510  0.00  0.00    +0.158 A 
ENDBRANCH  13  15
ENDBRANCH   5  13
TORSDOF 5
ENDMDL
MODEL 6
REMARK VINA RESULT:      -6.6     23.872     26.190
REMARK  Name = 45783691
REMARK  6 active torsions:
REMARK  status: ('A' for Active; 'I' for Inactive)
REMARK    1  A    between atoms: O_4  and  C_26
REMARK    2  A    between atoms: O_4  and  C_27
REMARK    3  A    between atoms: N_5  and  C_13
REMARK    4  A    between atoms: C_9  and  C_14
REMARK    5  A    between atoms: C_13  and  C_15
REMARK    6  A    between atoms: C_18  and  C_21
REMARK                            x       y       z     vdW  Elec       q    Type
REMARK                         _______ _______ _______ _____ _____    ______ ____
ROOT
ATOM      5  N   UNL     1       9.464   7.683   6.332  0.00  0.00    -0.287 NA
ATOM      9  C   UNL     1      10.590   6.736   6.444  0.00  0.00    +0.146 C 
ATOM     10  C   UNL     1      10.391   6.049   7.807  0.00  0.00    +0.030 C 
ATOM     11  C   UNL     1       9.166   6.720   8.413  0.00  0.00    +0.017 C 
ATOM     12  C   UNL     1       9.098   8.054   7.699  0.00  0.00    +0.085 C 
ENDROOT
BRANCH   9  14
ATOM      3  O   UNL     1      10.035   4.550   5.501  0.00  0.00    -0.336 OA
ATOM      6  N   UNL     1      11.181   5.881   4.110  0.00  0.00    -0.190 NA
ATOM      7  N   UNL     1      10.207   3.821   4.317  0.00  0.00    -0.056 NA
ATOM     14  C   UNL     1      10.637   5.751   5.294  0.00  0.00    +0.245 A 
ATOM     18  C   UNL     1      10.891   4.672   3.547  0.00  0.00    +0.204 A 
BRANCH  18  21
ATOM      8  N   UNL     1      10.705   4.037  -0.112  0.00  0.00    -0.221 NA
ATOM     21  C   UNL     1      11.299   4.348   2.210  0.00  0.00    +0.041 A 
ATOM     23  C   UNL     1      12.623   4.035   1.922  0.00  0.00    +0.018 A 
ATOM     24  C   UNL     1      10.388   4.336   1.168  0.00  0.00    +0.126 A 
ATOM     25  C   UNL     1      12.988   3.722   0.617  0.00  0.00    +0.068 A 
ATOM     26  C   UNL     1      12.001   3.738  -0.355  0.00  0.00    +0.214 A 
BRANCH  26   4
ATOM      4  O   UNL     1      12.337   3.435  -1.648  0.00  0.00    -0.480 OA
ATOM     27  C   UNL     1      11.424   2.618  -2.371  0.00  0.00    +0.279 C 
ENDBRANCH  26   4
ENDBRANCH  18  21
ENDBRANCH   9  14
BRANCH   5  13
ATOM     13  C   UNL     1       9.772   8.849   5.512  0.00  0.00    +0.120 C 
BRANCH  13  15
ATOM      1  F   UNL     1       5.381  10.200   3.867  0.00  0.00    -0.202 F 
ATOM      2  F   UNL     1       6.070   9.501   1.315  0.00  0.00    -0.202 F 
ATOM     15  C   UNL     1       8.783   9.023   4.391  0.00  0.00    -0.030 A 
ATOM     16  C   UNL     1       7.516   9.541   4.653  0.00  0.00    +0.046 A 
ATOM     17  C   UNL     1       9.135   8.667   3.089  0.00  0.00    +0.008 A 
ATOM     19  C   UNL     1       6.599   9.703   3.614  0.00  0.00    +0.159 A 
ATOM     20  C   UNL     1       8.219   8.829   2.050  0.00  0.00    +0.041 A 
ATOM     22  C   UNL     1       6.950   9.347   2.312  0.00  0.00    +0.158 A 
ENDBRANCH  13  15
ENDBRANCH   5  13
TORSDOF 5
ENDMDL
MODEL 7
REMARK VINA RESULT:      -6.6     19.650     21.854
REMARK  Name = 45783691
REMARK  6 active torsions:
REMARK  status: ('A' for Active; 'I' for Inactive)
REMARK    1  A    between atoms: O_4  and  C_26
REMARK    2  A    between atoms: O_4  and  C_27
REMARK    3  A    between atoms: N_5  and  C_13
REMARK    4  A    between atoms: C_9  and  C_14
REMARK    5  A    between atoms: C_13  and  C_15
REMARK    6  A    between atoms: C_18  and  C_21
REMARK                            x       y       z     vdW  Elec       q    Type
REMARK                         _______ _______ _______ _____ _____    ______ ____
ROOT
ATOM      5  N   UNL     1     -11.073   9.512  17.270  0.00  0.00    -0.287 NA
ATOM      9  C   UNL     1     -10.389  10.393  18.237  0.00  0.00    +0.146 C 
ATOM     10  C   UNL     1      -9.968  11.625  17.417  0.00  0.00    +0.030 C 
ATOM     11  C   UNL     1     -10.403  11.319  15.990  0.00  0.00    +0.017 C 
ATOM     12  C   UNL     1     -10.491   9.807  15.960  0.00  0.00    +0.085 C 
ENDROOT
BRANCH   9  14
ATOM      3  O   UNL     1     -12.261  11.645  19.188  0.00  0.00    -0.336 OA
ATOM      6  N   UNL     1     -11.208  10.319  20.655  0.00  0.00    -0.190 NA
ATOM      7  N   UNL     1     -12.923  11.813  20.411  0.00  0.00    -0.056 NA
ATOM     14  C   UNL     1     -11.265  10.749  19.420  0.00  0.00    +0.245 A 
ATOM     18  C   UNL     1     -12.245  10.999  21.225  0.00  0.00    +0.204 A 
BRANCH  18  21
ATOM      8  N   UNL     1     -14.037   9.895  24.290  0.00  0.00    -0.221 NA
ATOM     21  C   UNL     1     -12.578  10.841  22.612  0.00  0.00    +0.041 A 
ATOM     23  C   UNL     1     -11.815  11.446  23.604  0.00  0.00    +0.018 A 
ATOM     24  C   UNL     1     -13.668  10.083  23.003  0.00  0.00    +0.126 A 
ATOM     25  C   UNL     1     -12.163  11.277  24.940  0.00  0.00    +0.068 A 
ATOM     26  C   UNL     1     -13.273  10.498  25.228  0.00  0.00    +0.214 A 
BRANCH  26   4
ATOM      4  O   UNL     1     -13.635  10.316  26.537  0.00  0.00    -0.480 OA
ATOM     27  C   UNL     1     -12.588  10.337  27.498  0.00  0.00    +0.279 C 
ENDBRANCH  26   4
ENDBRANCH  18  21
ENDBRANCH   9  14
BRANCH   5  13
ATOM     13  C   UNL     1     -10.972   8.098  17.609  0.00  0.00    +0.120 C 
BRANCH  13  15
ATOM      1  F   UNL     1     -12.053   5.854  21.806  0.00  0.00    -0.202 F 
ATOM      2  F   UNL     1     -14.665   6.633  21.604  0.00  0.00    -0.202 F 
ATOM     15  C   UNL     1     -11.960   7.706  18.675  0.00  0.00    -0.030 A 
ATOM     16  C   UNL     1     -11.541   6.947  19.768  0.00  0.00    +0.046 A 
ATOM     17  C   UNL     1     -13.292   8.104  18.573  0.00  0.00    +0.008 A 
ATOM     19  C   UNL     1     -12.455   6.584  20.757  0.00  0.00    +0.159 A 
ATOM     20  C   UNL     1     -14.206   7.742  19.562  0.00  0.00    +0.041 A 
ATOM     22  C   UNL     1     -13.787   6.982  20.655  0.00  0.00    +0.158 A 
ENDBRANCH  13  15
ENDBRANCH   5  13
TORSDOF 5
ENDMDL
MODEL 8
REMARK VINA RESULT:      -6.5     23.799     27.023
REMARK  Name = 45783691
REMARK  6 active torsions:
REMARK  status: ('A' for Active; 'I' for Inactive)
REMARK    1  A    between atoms: O_4  and  C_26
REMARK    2  A    between atoms: O_4  and  C_27
REMARK    3  A    between atoms: N_5  and  C_13
REMARK    4  A    between atoms: C_9  and  C_14
REMARK    5  A    between atoms: C_13  and  C_15
REMARK    6  A    between atoms: C_18  and  C_21
REMARK                            x       y       z     vdW  Elec       q    Type
REMARK                         _______ _______ _______ _____ _____    ______ ____
ROOT
ATOM      5  N   UNL     1     -12.043   8.830  34.281  0.00  0.00    -0.287 NA
ATOM      9  C   UNL     1     -13.061   8.416  33.296  0.00  0.00    +0.146 C 
ATOM     10  C   UNL     1     -12.406   8.670  31.926  0.00  0.00    +0.030 C 
ATOM     11  C   UNL     1     -11.049   9.283  32.243  0.00  0.00    +0.017 C 
ATOM     12  C   UNL     1     -11.234   9.860  33.631  0.00  0.00    +0.085 C 
ENDROOT
BRANCH   9  14
ATOM      3  O   UNL     1     -13.952   6.633  34.711  0.00  0.00    -0.336 OA
ATOM      6  N   UNL     1     -13.498   5.994  32.613  0.00  0.00    -0.190 NA
ATOM      7  N   UNL     1     -14.288   5.275  34.636  0.00  0.00    -0.056 NA
ATOM     14  C   UNL     1     -13.495   6.976  33.478  0.00  0.00    +0.245 A 
ATOM     18  C   UNL     1     -13.992   4.971  33.369  0.00  0.00    +0.204 A 
BRANCH  18  21
ATOM      8  N   UNL     1     -14.060   2.171  30.923  0.00  0.00    -0.221 NA
ATOM     21  C   UNL     1     -14.180   3.656  32.826  0.00  0.00    +0.041 A 
ATOM     23  C   UNL     1     -14.646   2.614  33.620  0.00  0.00    +0.018 A 
ATOM     24  C   UNL     1     -13.904   3.385  31.497  0.00  0.00    +0.126 A 
ATOM     25  C   UNL     1     -14.820   1.350  33.066  0.00  0.00    +0.068 A 
ATOM     26  C   UNL     1     -14.515   1.183  31.724  0.00  0.00    +0.214 A 
BRANCH  26   4
ATOM      4  O   UNL     1     -14.677  -0.053  31.156  0.00  0.00    -0.480 OA
ATOM     27  C   UNL     1     -13.956  -0.305  29.956  0.00  0.00    +0.279 C 
ENDBRANCH  26   4
ENDBRANCH  18  21
ENDBRANCH   9  14
BRANCH   5  13
ATOM     13  C   UNL     1     -12.616   9.296  35.538  0.00  0.00    +0.120 C 
BRANCH  13  15
ATOM      1  F   UNL     1     -10.137   6.112  38.283  0.00  0.00    -0.202 F 
ATOM      2  F   UNL     1      -9.275   8.123  39.922  0.00  0.00    -0.202 F 
ATOM     15  C   UNL     1     -11.724   8.983  36.710  0.00  0.00    -0.030 A 
ATOM     16  C   UNL     1     -11.336   7.667  36.959  0.00  0.00    +0.046 A 
ATOM     17  C   UNL     1     -11.284  10.009  37.545  0.00  0.00    +0.008 A 
ATOM     19  C   UNL     1     -10.509   7.376  38.044  0.00  0.00    +0.159 A 
ATOM     20  C   UNL     1     -10.457   9.719  38.630  0.00  0.00    +0.041 A 
ATOM     22  C   UNL     1     -10.069   8.402  38.879  0.00  0.00    +0.158 A 
ENDBRANCH  13  15
ENDBRANCH   5  13
TORSDOF 5
ENDMDL
MODEL 9
REMARK VINA RESULT:      -6.3      4.427      7.690
REMARK  Name = 45783691
REMARK  6 active torsions:
REMARK  status: ('A' for Active; 'I' for Inactive)
REMARK    1  A    between atoms: O_4  and  C_26
REMARK    2  A    between atoms: O_4  and  C_27
REMARK    3  A    between atoms: N_5  and  C_13
REMARK    4  A    between atoms: C_9  and  C_14
REMARK    5  A    between atoms: C_13  and  C_15
REMARK    6  A    between atoms: C_18  and  C_21
REMARK                            x       y       z     vdW  Elec       q    Type
REMARK                         _______ _______ _______ _____ _____    ______ ____
ROOT
ATOM      5  N   UNL     1      -3.414 -11.884  13.911  0.00  0.00    -0.287 NA
ATOM      9  C   UNL     1      -2.547 -11.908  12.717  0.00  0.00    +0.146 C 
ATOM     10  C   UNL     1      -2.527 -13.382  12.275  0.00  0.00    +0.030 C 
ATOM     11  C   UNL     1      -3.360 -14.119  13.315  0.00  0.00    +0.017 C 
ATOM     12  C   UNL     1      -3.308 -13.208  14.525  0.00  0.00    +0.085 C 
ENDROOT
BRANCH   9  14
ATOM      3  O   UNL     1      -2.195  -9.966  11.274  0.00  0.00    -0.336 OA
ATOM      6  N   UNL     1      -4.159 -10.998  10.957  0.00  0.00    -0.190 NA
ATOM      7  N   UNL     1      -2.853  -9.252  10.264  0.00  0.00    -0.056 NA
ATOM     14  C   UNL     1      -3.033 -10.977  11.626  0.00  0.00    +0.245 A 
ATOM     18  C   UNL     1      -4.002  -9.921  10.134  0.00  0.00    +0.204 A 
BRANCH  18  21
ATOM      8  N   UNL     1      -6.967  -8.211   8.681  0.00  0.00    -0.221 NA
ATOM     21  C   UNL     1      -5.014  -9.541   9.191  0.00  0.00    +0.041 A 
ATOM     23  C   UNL     1      -5.051 -10.097   7.917  0.00  0.00    +0.018 A 
ATOM     24  C   UNL     1      -5.986  -8.611   9.521  0.00  0.00    +0.126 A 
ATOM     25  C   UNL     1      -6.045  -9.711   7.025  0.00  0.00    +0.068 A 
ATOM     26  C   UNL     1      -6.971  -8.772   7.451  0.00  0.00    +0.214 A 
BRANCH  26   4
ATOM      4  O   UNL     1      -7.960  -8.375   6.590  0.00  0.00    -0.480 OA
ATOM     27  C   UNL     1      -7.610  -8.282   5.215  0.00  0.00    +0.279 C 
ENDBRANCH  26   4
ENDBRANCH  18  21
ENDBRANCH   9  14
BRANCH   5  13
ATOM     13  C   UNL     1      -3.077 -10.818  14.846  0.00  0.00    +0.120 C 
BRANCH  13  15
ATOM      1  F   UNL     1      -7.502  -9.244  16.172  0.00  0.00    -0.202 F 
ATOM      2  F   UNL     1      -7.091 -10.101  18.736  0.00  0.00    -0.202 F 
ATOM     15  C   UNL     1      -4.149 -10.626  15.886  0.00  0.00    -0.030 A 
ATOM     16  C   UNL     1      -5.353 -10.012  15.541  0.00  0.00    +0.046 A 
ATOM     17  C   UNL     1      -3.939 -11.064  17.193  0.00  0.00    +0.008 A 
ATOM     19  C   UNL     1      -6.347  -9.835  16.504  0.00  0.00    +0.159 A 
ATOM     20  C   UNL     1      -4.933 -10.887  18.156  0.00  0.00    +0.041 A 
ATOM     22  C   UNL     1      -6.137 -10.272  17.811  0.00  0.00    +0.158 A 
ENDBRANCH  13  15
ENDBRANCH   5  13
TORSDOF 5
ENDMDL
MODEL 10
REMARK VINA RESULT:      -6.3     25.109     26.421
REMARK  Name = 45783691
REMARK  6 active torsions:
REMARK  status: ('A' for Active; 'I' for Inactive)
REMARK    1  A    between atoms: O_4  and  C_26
REMARK    2  A    between atoms: O_4  and  C_27
REMARK    3  A    between atoms: N_5  and  C_13
REMARK    4  A    between atoms: C_9  and  C_14
REMARK    5  A    between atoms: C_13  and  C_15
REMARK    6  A    between atoms: C_18  and  C_21
REMARK                            x       y       z     vdW  Elec       q    Type
REMARK                         _______ _______ _______ _____ _____    ______ ____
ROOT
ATOM      5  N   UNL     1      19.867  -5.419  23.804  0.00  0.00    -0.287 NA
ATOM      9  C   UNL     1      19.400  -6.798  24.044  0.00  0.00    +0.146 C 
ATOM     10  C   UNL     1      20.653  -7.562  24.508  0.00  0.00    +0.030 C 
ATOM     11  C   UNL     1      21.786  -6.547  24.437  0.00  0.00    +0.017 C 
ATOM     12  C   UNL     1      21.282  -5.519  23.444  0.00  0.00    +0.085 C 
ENDROOT
BRANCH   9  14
ATOM      3  O   UNL     1      17.234  -7.687  24.746  0.00  0.00    -0.336 OA
ATOM      6  N   UNL     1      18.137  -6.234  26.191  0.00  0.00    -0.190 NA
ATOM      7  N   UNL     1      16.327  -7.579  25.809  0.00  0.00    -0.056 NA
ATOM     14  C   UNL     1      18.270  -6.863  25.051  0.00  0.00    +0.245 A 
ATOM     18  C   UNL     1      16.931  -6.705  26.620  0.00  0.00    +0.204 A 
BRANCH  18  21
ATOM      8  N   UNL     1      16.464  -4.849  29.807  0.00  0.00    -0.221 NA
ATOM     21  C   UNL     1      16.356  -6.283  27.865  0.00  0.00    +0.041 A 
ATOM     23  C   UNL     1      15.185  -6.858  28.344  0.00  0.00    +0.018 A 
ATOM     24  C   UNL     1      16.951  -5.291  28.626  0.00  0.00    +0.126 A 
ATOM     25  C   UNL     1      14.653  -6.429  29.556  0.00  0.00    +0.068 A 
ATOM     26  C   UNL     1      15.324  -5.430  30.242  0.00  0.00    +0.214 A 
BRANCH  26   4
ATOM      4  O   UNL     1      14.818  -4.991  31.437  0.00  0.00    -0.480 OA
ATOM     27  C   UNL     1      15.177  -3.674  31.838  0.00  0.00    +0.279 C 
ENDBRANCH  26   4
ENDBRANCH  18  21
ENDBRANCH   9  14
BRANCH   5  13
ATOM     13  C   UNL     1      19.092  -4.718  22.788  0.00  0.00    +0.120 C 
BRANCH  13  15
ATOM      1  F   UNL     1      16.068  -0.910  22.365  0.00  0.00    -0.202 F 
ATOM      2  F   UNL     1      16.926   0.097  24.757  0.00  0.00    -0.202 F 
ATOM     15  C   UNL     1      18.514  -3.431  23.314  0.00  0.00    -0.030 A 
ATOM     16  C   UNL     1      17.540  -2.753  22.582  0.00  0.00    +0.046 A 
ATOM     17  C   UNL     1      18.951  -2.918  24.535  0.00  0.00    +0.008 A 
ATOM     19  C   UNL     1      17.003  -1.561  23.069  0.00  0.00    +0.159 A 
ATOM     20  C   UNL     1      18.414  -1.726  25.023  0.00  0.00    +0.041 A 
ATOM     22  C   UNL     1      17.440  -1.048  24.290  0.00  0.00    +0.158 A 
ENDBRANCH  13  15
ENDBRANCH   5  13
TORSDOF 5
ENDMDL
