MODEL 1
REMARK VINA RESULT:      -7.6      0.000      0.000
REMARK  Name = 26744082
REMARK  6 active torsions:
REMARK  status: ('A' for Active; 'I' for Inactive)
REMARK    1  A    between atoms: O_2  and  C_9
REMARK    2  A    between atoms: N_4  and  C_11
REMARK    3  A    between atoms: C_7  and  C_12
REMARK    4  A    between atoms: C_11  and  C_13
REMARK    5  A    between atoms: C_14  and  C_17
REMARK    6  A    between atoms: C_17  and  C_20
REMARK                            x       y       z     vdW  Elec       q    Type
REMARK                         _______ _______ _______ _____ _____    ______ ____
ROOT
ATOM      4  N   UNL     1      12.964   8.095  21.157  0.00  0.00    -0.285 NA
ATOM      7  C   UNL     1      11.642   8.741  21.035  0.00  0.00    +0.149 C 
ATOM      8  C   UNL     1      10.627   7.622  21.336  0.00  0.00    +0.061 C 
ATOM      9  C   UNL     1      11.472   6.376  21.571  0.00  0.00    +0.130 C 
ATOM     10  C   UNL     1      12.765   6.682  20.839  0.00  0.00    +0.116 C 
ENDROOT
BRANCH   7  12
ATOM      3  O   UNL     1      11.045   9.678  23.213  0.00  0.00    -0.336 OA
ATOM      5  N   UNL     1      11.718  11.200  21.715  0.00  0.00    -0.194 NA
ATOM      6  N   UNL     1      10.983  10.917  23.862  0.00  0.00    -0.061 NA
ATOM     12  C   UNL     1      11.488   9.934  21.954  0.00  0.00    +0.245 A 
ATOM     14  C   UNL     1      11.394  11.764  22.914  0.00  0.00    +0.176 A 
BRANCH  14  17
ATOM     17  C   UNL     1      11.489  13.208  23.151  0.00  0.00    +0.114 C 
BRANCH  17  20
ATOM     20  C   UNL     1      10.445  14.047  22.419  0.00  0.00    -0.040 A 
ATOM     22  C   UNL     1      10.674  14.453  21.105  0.00  0.00    +0.004 A 
ATOM     23  C   UNL     1       9.262  14.406  23.065  0.00  0.00    +0.004 A 
ATOM     24  C   UNL     1       9.719  15.219  20.435  0.00  0.00    +0.000 A 
ATOM     25  C   UNL     1       8.308  15.172  22.396  0.00  0.00    +0.000 A 
ATOM     26  C   UNL     1       8.536  15.578  21.081  0.00  0.00    +0.000 A 
ENDBRANCH  17  20
ENDBRANCH  14  17
ENDBRANCH   7  12
BRANCH   9   2
ATOM      2  O   UNL     1      10.832   5.229  21.047  0.00  0.00    -0.390 OA
ATOM     27  H   UNL     1      11.518   4.557  20.891  0.00  0.00    +0.210 HD
ENDBRANCH   9   2
BRANCH   4  11
ATOM     11  C   UNL     1      13.983   8.708  20.316  0.00  0.00    +0.120 C 
BRANCH  11  13
ATOM      1  F   UNL     1      18.663   5.578  20.070  0.00  0.00    -0.205 F 
ATOM     13  C   UNL     1      15.233   7.872  20.250  0.00  0.00    -0.033 A 
ATOM     15  C   UNL     1      16.177   7.945  21.275  0.00  0.00    +0.008 A 
ATOM     16  C   UNL     1      15.449   7.022  19.164  0.00  0.00    +0.008 A 
ATOM     18  C   UNL     1      17.335   7.171  21.214  0.00  0.00    +0.038 A 
ATOM     19  C   UNL     1      16.607   6.248  19.103  0.00  0.00    +0.038 A 
ATOM     21  C   UNL     1      17.550   6.323  20.128  0.00  0.00    +0.123 A 
ENDBRANCH  11  13
ENDBRANCH   4  11
TORSDOF 6
ENDMDL
MODEL 2
REMARK VINA RESULT:      -7.4      1.404      2.619
REMARK  Name = 26744082
REMARK  6 active torsions:
REMARK  status: ('A' for Active; 'I' for Inactive)
REMARK    1  A    between atoms: O_2  and  C_9
REMARK    2  A    between atoms: N_4  and  C_11
REMARK    3  A    between atoms: C_7  and  C_12
REMARK    4  A    between atoms: C_11  and  C_13
REMARK    5  A    between atoms: C_14  and  C_17
REMARK    6  A    between atoms: C_17  and  C_20
REMARK                            x       y       z     vdW  Elec       q    Type
REMARK                         _______ _______ _______ _____ _____    ______ ____
ROOT
ATOM      4  N   UNL     1      12.926   8.059  21.052  0.00  0.00    -0.285 NA
ATOM      7  C   UNL     1      11.584   8.654  20.893  0.00  0.00    +0.149 C 
ATOM      8  C   UNL     1      10.605   7.523  21.258  0.00  0.00    +0.061 C 
ATOM      9  C   UNL     1      11.488   6.320  21.565  0.00  0.00    +0.130 C 
ATOM     10  C   UNL     1      12.772   6.624  20.816  0.00  0.00    +0.116 C 
ENDROOT
BRANCH   7  12
ATOM      3  O   UNL     1      11.025   9.692  23.035  0.00  0.00    -0.336 OA
ATOM      5  N   UNL     1      11.521  11.152  21.412  0.00  0.00    -0.194 NA
ATOM      6  N   UNL     1      10.907  10.965  23.608  0.00  0.00    -0.061 NA
ATOM     12  C   UNL     1      11.390   9.893  21.742  0.00  0.00    +0.245 A 
ATOM     14  C   UNL     1      11.214  11.772  22.589  0.00  0.00    +0.176 A 
BRANCH  14  17
ATOM     17  C   UNL     1      11.221  13.232  22.729  0.00  0.00    +0.114 C 
BRANCH  17  20
ATOM     20  C   UNL     1      11.590  13.739  24.121  0.00  0.00    -0.040 A 
ATOM     22  C   UNL     1      10.590  14.167  24.994  0.00  0.00    +0.004 A 
ATOM     23  C   UNL     1      12.926  13.772  24.519  0.00  0.00    +0.004 A 
ATOM     24  C   UNL     1      10.927  14.629  26.267  0.00  0.00    +0.000 A 
ATOM     25  C   UNL     1      13.263  14.235  25.791  0.00  0.00    +0.000 A 
ATOM     26  C   UNL     1      12.264  14.663  26.665  0.00  0.00    +0.000 A 
ENDBRANCH  17  20
ENDBRANCH  14  17
ENDBRANCH   7  12
BRANCH   9   2
ATOM      2  O   UNL     1      10.886   5.125  21.108  0.00  0.00    -0.390 OA
ATOM     27  H   UNL     1       9.939   5.307  20.977  0.00  0.00    +0.210 HD
ENDBRANCH   9   2
BRANCH   4  11
ATOM     11  C   UNL     1      13.925   8.655  20.176  0.00  0.00    +0.120 C 
BRANCH  11  13
ATOM      1  F   UNL     1      18.712   5.681  20.124  0.00  0.00    -0.205 F 
ATOM     13  C   UNL     1      15.204   7.860  20.163  0.00  0.00    -0.033 A 
ATOM     15  C   UNL     1      15.451   6.953  19.132  0.00  0.00    +0.008 A 
ATOM     16  C   UNL     1      16.144   8.031  21.180  0.00  0.00    +0.008 A 
ATOM     18  C   UNL     1      16.636   6.217  19.119  0.00  0.00    +0.038 A 
ATOM     19  C   UNL     1      17.327   7.295  21.167  0.00  0.00    +0.038 A 
ATOM     21  C   UNL     1      17.574   6.387  20.137  0.00  0.00    +0.123 A 
ENDBRANCH  11  13
ENDBRANCH   4  11
TORSDOF 6
ENDMDL
MODEL 3
REMARK VINA RESULT:      -7.3      3.992      6.179
REMARK  Name = 26744082
REMARK  6 active torsions:
REMARK  status: ('A' for Active; 'I' for Inactive)
REMARK    1  A    between atoms: O_2  and  C_9
REMARK    2  A    between atoms: N_4  and  C_11
REMARK    3  A    between atoms: C_7  and  C_12
REMARK    4  A    between atoms: C_11  and  C_13
REMARK    5  A    between atoms: C_14  and  C_17
REMARK    6  A    between atoms: C_17  and  C_20
REMARK                            x       y       z     vdW  Elec       q    Type
REMARK                         _______ _______ _______ _____ _____    ______ ____
ROOT
ATOM      4  N   UNL     1      13.343   7.917  19.997  0.00  0.00    -0.285 NA
ATOM      7  C   UNL     1      12.398   7.830  18.865  0.00  0.00    +0.149 C 
ATOM      8  C   UNL     1      11.097   8.468  19.387  0.00  0.00    +0.061 C 
ATOM      9  C   UNL     1      11.395   8.843  20.834  0.00  0.00    +0.130 C 
ATOM     10  C   UNL     1      12.533   7.913  21.213  0.00  0.00    +0.116 C 
ENDROOT
BRANCH   7  12
ATOM      3  O   UNL     1      13.438   7.693  16.657  0.00  0.00    -0.336 OA
ATOM      5  N   UNL     1      12.953   9.779  17.312  0.00  0.00    -0.194 NA
ATOM      6  N   UNL     1      13.851   8.535  15.616  0.00  0.00    -0.061 NA
ATOM     12  C   UNL     1      12.921   8.506  17.615  0.00  0.00    +0.245 A 
ATOM     14  C   UNL     1      13.532   9.748  16.077  0.00  0.00    +0.176 A 
BRANCH  14  17
ATOM     17  C   UNL     1      13.790  10.966  15.302  0.00  0.00    +0.114 C 
BRANCH  17  20
ATOM     20  C   UNL     1      15.202  11.528  15.446  0.00  0.00    -0.040 A 
ATOM     22  C   UNL     1      15.554  12.240  16.592  0.00  0.00    +0.004 A 
ATOM     23  C   UNL     1      16.138  11.329  14.432  0.00  0.00    +0.004 A 
ATOM     24  C   UNL     1      16.845  12.754  16.725  0.00  0.00    +0.000 A 
ATOM     25  C   UNL     1      17.429  11.842  14.565  0.00  0.00    +0.000 A 
ATOM     26  C   UNL     1      17.782  12.555  15.711  0.00  0.00    +0.000 A 
ENDBRANCH  17  20
ENDBRANCH  14  17
ENDBRANCH   7  12
BRANCH   9   2
ATOM      2  O   UNL     1      10.257   8.639  21.649  0.00  0.00    -0.390 OA
ATOM     27  H   UNL     1      10.292   9.294  22.368  0.00  0.00    +0.210 HD
ENDBRANCH   9   2
BRANCH   4  11
ATOM     11  C   UNL     1      14.338   6.853  19.997  0.00  0.00    +0.120 C 
BRANCH  11  13
ATOM      1  F   UNL     1      19.441   8.754  21.448  0.00  0.00    -0.205 F 
ATOM     13  C   UNL     1      15.701   7.361  20.385  0.00  0.00    -0.033 A 
ATOM     15  C   UNL     1      16.787   6.486  20.423  0.00  0.00    +0.008 A 
ATOM     16  C   UNL     1      15.880   8.707  20.706  0.00  0.00    +0.008 A 
ATOM     18  C   UNL     1      18.050   6.956  20.783  0.00  0.00    +0.038 A 
ATOM     19  C   UNL     1      17.142   9.177  21.065  0.00  0.00    +0.038 A 
ATOM     21  C   UNL     1      18.227   8.302  21.104  0.00  0.00    +0.123 A 
ENDBRANCH  11  13
ENDBRANCH   4  11
TORSDOF 6
ENDMDL
MODEL 4
REMARK VINA RESULT:      -7.3     29.352     31.151
REMARK  Name = 26744082
REMARK  6 active torsions:
REMARK  status: ('A' for Active; 'I' for Inactive)
REMARK    1  A    between atoms: O_2  and  C_9
REMARK    2  A    between atoms: N_4  and  C_11
REMARK    3  A    between atoms: C_7  and  C_12
REMARK    4  A    between atoms: C_11  and  C_13
REMARK    5  A    between atoms: C_14  and  C_17
REMARK    6  A    between atoms: C_17  and  C_20
REMARK                            x       y       z     vdW  Elec       q    Type
REMARK                         _______ _______ _______ _____ _____    ______ ____
ROOT
ATOM      4  N   UNL     1     -16.997   3.368  26.954  0.00  0.00    -0.285 NA
ATOM      7  C   UNL     1     -17.073   1.893  26.962  0.00  0.00    +0.149 C 
ATOM      8  C   UNL     1     -16.400   1.457  25.647  0.00  0.00    +0.061 C 
ATOM      9  C   UNL     1     -16.019   2.757  24.948  0.00  0.00    +0.130 C 
ATOM     10  C   UNL     1     -16.971   3.774  25.550  0.00  0.00    +0.116 C 
ENDROOT
BRANCH   7  12
ATOM      3  O   UNL     1     -17.065   0.228  28.752  0.00  0.00    -0.336 OA
ATOM      5  N   UNL     1     -15.313   1.622  28.790  0.00  0.00    -0.194 NA
ATOM      6  N   UNL     1     -16.285  -0.158  29.849  0.00  0.00    -0.061 NA
ATOM     12  C   UNL     1     -16.422   1.281  28.184  0.00  0.00    +0.245 A 
ATOM     14  C   UNL     1     -15.270   0.710  29.805  0.00  0.00    +0.176 A 
BRANCH  14  17
ATOM     17  C   UNL     1     -14.182   0.683  30.788  0.00  0.00    +0.114 C 
BRANCH  17  20
ATOM     20  C   UNL     1     -14.142   1.883  31.731  0.00  0.00    -0.040 A 
ATOM     22  C   UNL     1     -13.424   3.024  31.376  0.00  0.00    +0.004 A 
ATOM     23  C   UNL     1     -14.825   1.837  32.946  0.00  0.00    +0.004 A 
ATOM     24  C   UNL     1     -13.388   4.121  32.238  0.00  0.00    +0.000 A 
ATOM     25  C   UNL     1     -14.789   2.934  33.808  0.00  0.00    +0.000 A 
ATOM     26  C   UNL     1     -14.070   4.076  33.453  0.00  0.00    +0.000 A 
ENDBRANCH  17  20
ENDBRANCH  14  17
ENDBRANCH   7  12
BRANCH   9   2
ATOM      2  O   UNL     1     -16.189   2.643  23.549  0.00  0.00    -0.390 OA
ATOM     27  H   UNL     1     -15.343   2.340  23.176  0.00  0.00    +0.210 HD
ENDBRANCH   9   2
BRANCH   4  11
ATOM     11  C   UNL     1     -18.083   4.003  27.688  0.00  0.00    +0.120 C 
BRANCH  11  13
ATOM      1  F   UNL     1     -16.359   6.028  32.656  0.00  0.00    -0.205 F 
ATOM     13  C   UNL     1     -17.622   4.544  29.015  0.00  0.00    -0.033 A 
ATOM     15  C   UNL     1     -16.930   5.754  29.074  0.00  0.00    +0.008 A 
ATOM     16  C   UNL     1     -17.888   3.836  30.188  0.00  0.00    +0.008 A 
ATOM     18  C   UNL     1     -16.503   6.255  30.304  0.00  0.00    +0.038 A 
ATOM     19  C   UNL     1     -17.461   4.337  31.417  0.00  0.00    +0.038 A 
ATOM     21  C   UNL     1     -16.768   5.546  31.475  0.00  0.00    +0.123 A 
ENDBRANCH  11  13
ENDBRANCH   4  11
TORSDOF 6
ENDMDL
MODEL 5
REMARK VINA RESULT:      -7.1     25.660     27.941
REMARK  Name = 26744082
REMARK  6 active torsions:
REMARK  status: ('A' for Active; 'I' for Inactive)
REMARK    1  A    between atoms: O_2  and  C_9
REMARK    2  A    between atoms: N_4  and  C_11
REMARK    3  A    between atoms: C_7  and  C_12
REMARK    4  A    between atoms: C_11  and  C_13
REMARK    5  A    between atoms: C_14  and  C_17
REMARK    6  A    between atoms: C_17  and  C_20
REMARK                            x       y       z     vdW  Elec       q    Type
REMARK                         _______ _______ _______ _____ _____    ______ ____
ROOT
ATOM      4  N   UNL     1      -3.222 -10.663  14.467  0.00  0.00    -0.285 NA
ATOM      7  C   UNL     1      -3.360 -11.453  15.707  0.00  0.00    +0.149 C 
ATOM      8  C   UNL     1      -2.149 -11.050  16.569  0.00  0.00    +0.061 C 
ATOM      9  C   UNL     1      -1.366 -10.063  15.711  0.00  0.00    +0.130 C 
ATOM     10  C   UNL     1      -1.793 -10.407  14.297  0.00  0.00    +0.116 C 
ENDROOT
BRANCH   7  12
ATOM      3  O   UNL     1      -5.364 -12.321  16.807  0.00  0.00    -0.336 OA
ATOM      5  N   UNL     1      -5.279 -10.086  16.688  0.00  0.00    -0.194 NA
ATOM      6  N   UNL     1      -6.535 -11.854  17.417  0.00  0.00    -0.061 NA
ATOM     12  C   UNL     1      -4.682 -11.216  16.407  0.00  0.00    +0.245 A 
ATOM     14  C   UNL     1      -6.413 -10.528  17.307  0.00  0.00    +0.176 A 
BRANCH  14  17
ATOM     17  C   UNL     1      -7.434  -9.609  17.820  0.00  0.00    +0.114 C 
BRANCH  17  20
ATOM     20  C   UNL     1      -8.451  -9.140  16.783  0.00  0.00    -0.040 A 
ATOM     22  C   UNL     1      -8.431  -9.675  15.496  0.00  0.00    +0.004 A 
ATOM     23  C   UNL     1      -9.401  -8.178  17.125  0.00  0.00    +0.004 A 
ATOM     24  C   UNL     1      -9.361  -9.247  14.548  0.00  0.00    +0.000 A 
ATOM     25  C   UNL     1     -10.332  -7.750  16.177  0.00  0.00    +0.000 A 
ATOM     26  C   UNL     1     -10.311  -8.285  14.889  0.00  0.00    +0.000 A 
ENDBRANCH  17  20
ENDBRANCH  14  17
ENDBRANCH   7  12
BRANCH   9   2
ATOM      2  O   UNL     1       0.026 -10.234  15.895  0.00  0.00    -0.390 OA
ATOM     27  H   UNL     1       0.201 -10.195  16.851  0.00  0.00    +0.210 HD
ENDBRANCH   9   2
BRANCH   4  11
ATOM     11  C   UNL     1      -3.805 -11.315  13.303  0.00  0.00    +0.120 C 
BRANCH  11  13
ATOM      1  F   UNL     1      -5.621  -7.578   9.494  0.00  0.00    -0.205 F 
ATOM     13  C   UNL     1      -4.290 -10.316  12.285  0.00  0.00    -0.033 A 
ATOM     15  C   UNL     1      -3.495 -10.000  11.183  0.00  0.00    +0.008 A 
ATOM     16  C   UNL     1      -5.536  -9.707  12.444  0.00  0.00    +0.008 A 
ATOM     18  C   UNL     1      -3.945  -9.075  10.241  0.00  0.00    +0.038 A 
ATOM     19  C   UNL     1      -5.984  -8.782  11.502  0.00  0.00    +0.038 A 
ATOM     21  C   UNL     1      -5.189  -8.466  10.400  0.00  0.00    +0.123 A 
ENDBRANCH  11  13
ENDBRANCH   4  11
TORSDOF 6
ENDMDL
MODEL 6
REMARK VINA RESULT:      -7.1      3.656      5.046
REMARK  Name = 26744082
REMARK  6 active torsions:
REMARK  status: ('A' for Active; 'I' for Inactive)
REMARK    1  A    between atoms: O_2  and  C_9
REMARK    2  A    between atoms: N_4  and  C_11
REMARK    3  A    between atoms: C_7  and  C_12
REMARK    4  A    between atoms: C_11  and  C_13
REMARK    5  A    between atoms: C_14  and  C_17
REMARK    6  A    between atoms: C_17  and  C_20
REMARK                            x       y       z     vdW  Elec       q    Type
REMARK                         _______ _______ _______ _____ _____    ______ ____
ROOT
ATOM      4  N   UNL     1      13.033   7.566  20.506  0.00  0.00    -0.285 NA
ATOM      7  C   UNL     1      12.222   8.261  19.486  0.00  0.00    +0.149 C 
ATOM      8  C   UNL     1      10.861   8.506  20.163  0.00  0.00    +0.061 C 
ATOM      9  C   UNL     1      10.988   7.875  21.544  0.00  0.00    +0.130 C 
ATOM     10  C   UNL     1      12.091   6.849  21.364  0.00  0.00    +0.116 C 
ENDROOT
BRANCH   7  12
ATOM      3  O   UNL     1      12.959   9.696  17.648  0.00  0.00    -0.336 OA
ATOM      5  N   UNL     1      13.370  10.531  19.685  0.00  0.00    -0.194 NA
ATOM      6  N   UNL     1      13.586  10.931  17.443  0.00  0.00    -0.061 NA
ATOM     12  C   UNL     1      12.870   9.538  18.995  0.00  0.00    +0.245 A 
ATOM     14  C   UNL     1      13.798  11.362  18.690  0.00  0.00    +0.176 A 
BRANCH  14  17
ATOM     17  C   UNL     1      14.449  12.646  18.968  0.00  0.00    +0.114 C 
BRANCH  17  20
ATOM     20  C   UNL     1      15.974  12.596  19.001  0.00  0.00    -0.040 A 
ATOM     22  C   UNL     1      16.715  13.292  18.047  0.00  0.00    +0.004 A 
ATOM     23  C   UNL     1      16.625  11.854  19.986  0.00  0.00    +0.004 A 
ATOM     24  C   UNL     1      18.109  13.247  18.078  0.00  0.00    +0.000 A 
ATOM     25  C   UNL     1      18.020  11.808  20.017  0.00  0.00    +0.000 A 
ATOM     26  C   UNL     1      18.762  12.505  19.063  0.00  0.00    +0.000 A 
ENDBRANCH  17  20
ENDBRANCH  14  17
ENDBRANCH   7  12
BRANCH   9   2
ATOM      2  O   UNL     1       9.770   7.272  21.935  0.00  0.00    -0.390 OA
ATOM     27  H   UNL     1       9.051   7.751  21.488  0.00  0.00    +0.210 HD
ENDBRANCH   9   2
BRANCH   4  11
ATOM     11  C   UNL     1      14.038   6.681  19.935  0.00  0.00    +0.120 C 
BRANCH  11  13
ATOM      1  F   UNL     1      19.258   8.203  21.415  0.00  0.00    -0.205 F 
ATOM     13  C   UNL     1      15.433   7.088  20.330  0.00  0.00    -0.033 A 
ATOM     15  C   UNL     1      15.627   8.160  21.202  0.00  0.00    +0.008 A 
ATOM     16  C   UNL     1      16.533   6.392  19.826  0.00  0.00    +0.008 A 
ATOM     18  C   UNL     1      16.919   8.537  21.567  0.00  0.00    +0.038 A 
ATOM     19  C   UNL     1      17.824   6.769  20.192  0.00  0.00    +0.038 A 
ATOM     21  C   UNL     1      18.017   7.842  21.063  0.00  0.00    +0.123 A 
ENDBRANCH  11  13
ENDBRANCH   4  11
TORSDOF 6
ENDMDL
MODEL 7
REMARK VINA RESULT:      -6.9     25.854     28.424
REMARK  Name = 26744082
REMARK  6 active torsions:
REMARK  status: ('A' for Active; 'I' for Inactive)
REMARK    1  A    between atoms: O_2  and  C_9
REMARK    2  A    between atoms: N_4  and  C_11
REMARK    3  A    between atoms: C_7  and  C_12
REMARK    4  A    between atoms: C_11  and  C_13
REMARK    5  A    between atoms: C_14  and  C_17
REMARK    6  A    between atoms: C_17  and  C_20
REMARK                            x       y       z     vdW  Elec       q    Type
REMARK                         _______ _______ _______ _____ _____    ______ ____
ROOT
ATOM      4  N   UNL     1      -3.256 -10.560  14.102  0.00  0.00    -0.285 NA
ATOM      7  C   UNL     1      -3.768 -11.246  15.306  0.00  0.00    +0.149 C 
ATOM      8  C   UNL     1      -2.727 -10.948  16.401  0.00  0.00    +0.061 C 
ATOM      9  C   UNL     1      -1.647 -10.127  15.707  0.00  0.00    +0.130 C 
ATOM     10  C   UNL     1      -1.803 -10.503  14.245  0.00  0.00    +0.116 C 
ENDROOT
BRANCH   7  12
ATOM      3  O   UNL     1      -5.263  -9.600  16.323  0.00  0.00    -0.336 OA
ATOM      5  N   UNL     1      -6.309 -11.397  15.492  0.00  0.00    -0.194 NA
ATOM      6  N   UNL     1      -6.628  -9.404  16.569  0.00  0.00    -0.061 NA
ATOM     12  C   UNL     1      -5.163 -10.796  15.686  0.00  0.00    +0.245 A 
ATOM     14  C   UNL     1      -7.178 -10.506  16.050  0.00  0.00    +0.176 A 
BRANCH  14  17
ATOM     17  C   UNL     1      -8.626 -10.739  16.082  0.00  0.00    +0.114 C 
BRANCH  17  20
ATOM     20  C   UNL     1      -9.249 -10.704  17.475  0.00  0.00    -0.040 A 
ATOM     22  C   UNL     1      -8.746 -11.525  18.484  0.00  0.00    +0.004 A 
ATOM     23  C   UNL     1     -10.321  -9.851  17.738  0.00  0.00    +0.004 A 
ATOM     24  C   UNL     1      -9.314 -11.493  19.758  0.00  0.00    +0.000 A 
ATOM     25  C   UNL     1     -10.889  -9.819  19.012  0.00  0.00    +0.000 A 
ATOM     26  C   UNL     1     -10.386 -10.640  20.021  0.00  0.00    +0.000 A 
ENDBRANCH  17  20
ENDBRANCH  14  17
ENDBRANCH   7  12
BRANCH   9   2
ATOM      2  O   UNL     1      -0.366 -10.463  16.201  0.00  0.00    -0.390 OA
ATOM     27  H   UNL     1      -0.460 -10.654  17.151  0.00  0.00    +0.210 HD
ENDBRANCH   9   2
BRANCH   4  11
ATOM     11  C   UNL     1      -3.660 -11.205  12.860  0.00  0.00    +0.120 C 
BRANCH  11  13
ATOM      1  F   UNL     1      -5.827  -7.515   9.192  0.00  0.00    -0.205 F 
ATOM     13  C   UNL     1      -4.239 -10.219  11.880  0.00  0.00    -0.033 A 
ATOM     15  C   UNL     1      -5.525  -9.714  12.075  0.00  0.00    +0.008 A 
ATOM     16  C   UNL     1      -3.489  -9.809  10.776  0.00  0.00    +0.008 A 
ATOM     18  C   UNL     1      -6.061  -8.802  11.166  0.00  0.00    +0.038 A 
ATOM     19  C   UNL     1      -4.026  -8.897   9.869  0.00  0.00    +0.038 A 
ATOM     21  C   UNL     1      -5.312  -8.393  10.064  0.00  0.00    +0.123 A 
ENDBRANCH  11  13
ENDBRANCH   4  11
TORSDOF 6
ENDMDL
MODEL 8
REMARK VINA RESULT:      -6.9     26.138     28.685
REMARK  Name = 26744082
REMARK  6 active torsions:
REMARK  status: ('A' for Active; 'I' for Inactive)
REMARK    1  A    between atoms: O_2  and  C_9
REMARK    2  A    between atoms: N_4  and  C_11
REMARK    3  A    between atoms: C_7  and  C_12
REMARK    4  A    between atoms: C_11  and  C_13
REMARK    5  A    between atoms: C_14  and  C_17
REMARK    6  A    between atoms: C_17  and  C_20
REMARK                            x       y       z     vdW  Elec       q    Type
REMARK                         _______ _______ _______ _____ _____    ______ ____
ROOT
ATOM      4  N   UNL     1     -14.474   5.132  32.396  0.00  0.00    -0.285 NA
ATOM      7  C   UNL     1     -14.732   6.454  33.001  0.00  0.00    +0.149 C 
ATOM      8  C   UNL     1     -14.498   6.249  34.510  0.00  0.00    +0.061 C 
ATOM      9  C   UNL     1     -14.156   4.772  34.659  0.00  0.00    +0.130 C 
ATOM     10  C   UNL     1     -14.775   4.140  33.426  0.00  0.00    +0.116 C 
ENDROOT
BRANCH   7  12
ATOM      3  O   UNL     1     -12.516   7.376  32.533  0.00  0.00    -0.336 OA
ATOM      5  N   UNL     1     -14.210   8.648  31.805  0.00  0.00    -0.194 NA
ATOM      6  N   UNL     1     -11.931   8.496  31.929  0.00  0.00    -0.061 NA
ATOM     12  C   UNL     1     -13.859   7.545  32.416  0.00  0.00    +0.245 A 
ATOM     14  C   UNL     1     -12.993   9.199  31.525  0.00  0.00    +0.176 A 
BRANCH  14  17
ATOM     17  C   UNL     1     -12.856  10.480  30.825  0.00  0.00    +0.114 C 
BRANCH  17  20
ATOM     20  C   UNL     1     -12.662  10.367  29.316  0.00  0.00    -0.040 A 
ATOM     22  C   UNL     1     -13.744  10.563  28.458  0.00  0.00    +0.004 A 
ATOM     23  C   UNL     1     -11.403  10.070  28.795  0.00  0.00    +0.004 A 
ATOM     24  C   UNL     1     -13.567  10.460  27.078  0.00  0.00    +0.000 A 
ATOM     25  C   UNL     1     -11.226   9.967  27.415  0.00  0.00    +0.000 A 
ATOM     26  C   UNL     1     -12.308  10.162  26.556  0.00  0.00    +0.000 A 
ENDBRANCH  17  20
ENDBRANCH  14  17
ENDBRANCH   7  12
BRANCH   9   2
ATOM      2  O   UNL     1     -14.709   4.247  35.850  0.00  0.00    -0.390 OA
ATOM     27  H   UNL     1     -15.360   4.891  36.178  0.00  0.00    +0.210 HD
ENDBRANCH   9   2
BRANCH   4  11
ATOM     11  C   UNL     1     -15.233   4.902  31.175  0.00  0.00    +0.120 C 
BRANCH  11  13
ATOM      1  F   UNL     1     -14.573  -0.354  29.253  0.00  0.00    -0.205 F 
ATOM     13  C   UNL     1     -15.057   3.498  30.661  0.00  0.00    -0.033 A 
ATOM     15  C   UNL     1     -13.777   2.954  30.540  0.00  0.00    +0.008 A 
ATOM     16  C   UNL     1     -16.173   2.739  30.306  0.00  0.00    +0.008 A 
ATOM     18  C   UNL     1     -13.614   1.653  30.064  0.00  0.00    +0.038 A 
ATOM     19  C   UNL     1     -16.009   1.439  29.830  0.00  0.00    +0.038 A 
ATOM     21  C   UNL     1     -14.730   0.896  29.709  0.00  0.00    +0.123 A 
ENDBRANCH  11  13
ENDBRANCH   4  11
TORSDOF 6
ENDMDL
MODEL 9
REMARK VINA RESULT:      -6.9     27.151     28.829
REMARK  Name = 26744082
REMARK  6 active torsions:
REMARK  status: ('A' for Active; 'I' for Inactive)
REMARK    1  A    between atoms: O_2  and  C_9
REMARK    2  A    between atoms: N_4  and  C_11
REMARK    3  A    between atoms: C_7  and  C_12
REMARK    4  A    between atoms: C_11  and  C_13
REMARK    5  A    between atoms: C_14  and  C_17
REMARK    6  A    between atoms: C_17  and  C_20
REMARK                            x       y       z     vdW  Elec       q    Type
REMARK                         _______ _______ _______ _____ _____    ______ ____
ROOT
ATOM      4  N   UNL     1      -6.004 -10.836  16.644  0.00  0.00    -0.285 NA
ATOM      7  C   UNL     1      -4.663 -10.507  17.168  0.00  0.00    +0.149 C 
ATOM      8  C   UNL     1      -4.607 -11.173  18.555  0.00  0.00    +0.061 C 
ATOM      9  C   UNL     1      -5.977 -11.812  18.742  0.00  0.00    +0.130 C 
ATOM     10  C   UNL     1      -6.870 -11.015  17.809  0.00  0.00    +0.116 C 
ENDROOT
BRANCH   7  12
ATOM      3  O   UNL     1      -2.282 -10.667  16.634  0.00  0.00    -0.336 OA
ATOM      5  N   UNL     1      -3.625 -11.627  15.122  0.00  0.00    -0.194 NA
ATOM      6  N   UNL     1      -1.441 -11.188  15.643  0.00  0.00    -0.061 NA
ATOM     12  C   UNL     1      -3.550 -10.970  16.251  0.00  0.00    +0.245 A 
ATOM     14  C   UNL     1      -2.307 -11.738  14.786  0.00  0.00    +0.176 A 
BRANCH  14  17
ATOM     17  C   UNL     1      -1.865 -12.416  13.563  0.00  0.00    +0.114 C 
BRANCH  17  20
ATOM     20  C   UNL     1      -2.502 -11.896  12.277  0.00  0.00    -0.040 A 
ATOM     22  C   UNL     1      -2.378 -10.550  11.933  0.00  0.00    +0.004 A 
ATOM     23  C   UNL     1      -3.208 -12.767  11.448  0.00  0.00    +0.004 A 
ATOM     24  C   UNL     1      -2.960 -10.075  10.757  0.00  0.00    +0.000 A 
ATOM     25  C   UNL     1      -3.790 -12.291  10.272  0.00  0.00    +0.000 A 
ATOM     26  C   UNL     1      -3.666 -10.945   9.927  0.00  0.00    +0.000 A 
ENDBRANCH  17  20
ENDBRANCH  14  17
ENDBRANCH   7  12
BRANCH   9   2
ATOM      2  O   UNL     1      -6.400 -11.709  20.087  0.00  0.00    -0.390 OA
ATOM     27  H   UNL     1      -6.136 -12.529  20.539  0.00  0.00    +0.210 HD
ENDBRANCH   9   2
BRANCH   4  11
ATOM     11  C   UNL     1      -6.523  -9.833  15.725  0.00  0.00    +0.120 C 
BRANCH  11  13
ATOM      1  F   UNL     1      -7.099 -11.870  10.502  0.00  0.00    -0.205 F 
ATOM     13  C   UNL     1      -6.677 -10.377  14.330  0.00  0.00    -0.033 A 
ATOM     15  C   UNL     1      -7.132 -11.682  14.135  0.00  0.00    +0.008 A 
ATOM     16  C   UNL     1      -6.365  -9.577  13.230  0.00  0.00    +0.008 A 
ATOM     18  C   UNL     1      -7.274 -12.186  12.842  0.00  0.00    +0.038 A 
ATOM     19  C   UNL     1      -6.507 -10.081  11.938  0.00  0.00    +0.038 A 
ATOM     21  C   UNL     1      -6.962 -11.386  11.744  0.00  0.00    +0.123 A 
ENDBRANCH  11  13
ENDBRANCH   4  11
TORSDOF 6
ENDMDL
MODEL 10
REMARK VINA RESULT:      -6.8     26.463     28.470
REMARK  Name = 26744082
REMARK  6 active torsions:
REMARK  status: ('A' for Active; 'I' for Inactive)
REMARK    1  A    between atoms: O_2  and  C_9
REMARK    2  A    between atoms: N_4  and  C_11
REMARK    3  A    between atoms: C_7  and  C_12
REMARK    4  A    between atoms: C_11  and  C_13
REMARK    5  A    between atoms: C_14  and  C_17
REMARK    6  A    between atoms: C_17  and  C_20
REMARK                            x       y       z     vdW  Elec       q    Type
REMARK                         _______ _______ _______ _____ _____    ______ ____
ROOT
ATOM      4  N   UNL     1      -5.260 -11.134  16.988  0.00  0.00    -0.285 NA
ATOM      7  C   UNL     1      -6.658 -11.475  16.653  0.00  0.00    +0.149 C 
ATOM      8  C   UNL     1      -7.501 -10.810  17.757  0.00  0.00    +0.061 C 
ATOM      9  C   UNL     1      -6.487 -10.158  18.689  0.00  0.00    +0.130 C 
ATOM     10  C   UNL     1      -5.216 -10.947  18.437  0.00  0.00    +0.116 C 
ENDROOT
BRANCH   7  12
ATOM      3  O   UNL     1      -8.061 -11.707  14.665  0.00  0.00    -0.336 OA
ATOM      5  N   UNL     1      -6.555 -10.055  14.534  0.00  0.00    -0.194 NA
ATOM      6  N   UNL     1      -8.240 -11.116  13.408  0.00  0.00    -0.061 NA
ATOM     12  C   UNL     1      -7.052 -11.022  15.263  0.00  0.00    +0.245 A 
ATOM     14  C   UNL     1      -7.316 -10.151  13.405  0.00  0.00    +0.176 A 
BRANCH  14  17
ATOM     17  C   UNL     1      -7.133  -9.254  12.259  0.00  0.00    +0.114 C 
BRANCH  17  20
ATOM     20  C   UNL     1      -5.994  -9.641  11.320  0.00  0.00    -0.040 A 
ATOM     22  C   UNL     1      -5.970 -10.908  10.739  0.00  0.00    +0.004 A 
ATOM     23  C   UNL     1      -4.979  -8.726  11.042  0.00  0.00    +0.004 A 
ATOM     24  C   UNL     1      -4.929 -11.261   9.880  0.00  0.00    +0.000 A 
ATOM     25  C   UNL     1      -3.938  -9.079  10.183  0.00  0.00    +0.000 A 
ATOM     26  C   UNL     1      -3.913 -10.347   9.602  0.00  0.00    +0.000 A 
ENDBRANCH  17  20
ENDBRANCH  14  17
ENDBRANCH   7  12
BRANCH   9   2
ATOM      2  O   UNL     1      -6.908 -10.257  20.036  0.00  0.00    -0.390 OA
ATOM     27  H   UNL     1      -7.731  -9.746  20.123  0.00  0.00    +0.210 HD
ENDBRANCH   9   2
BRANCH   4  11
ATOM     11  C   UNL     1      -4.301 -12.132  16.535  0.00  0.00    +0.120 C 
BRANCH  11  13
ATOM      1  F   UNL     1      -1.416 -10.375  12.024  0.00  0.00    -0.205 F 
ATOM     13  C   UNL     1      -3.531 -11.662  15.329  0.00  0.00    -0.033 A 
ATOM     15  C   UNL     1      -2.548 -10.681  15.468  0.00  0.00    +0.008 A 
ATOM     16  C   UNL     1      -3.798 -12.209  14.073  0.00  0.00    +0.008 A 
ATOM     18  C   UNL     1      -1.835 -10.246  14.351  0.00  0.00    +0.038 A 
ATOM     19  C   UNL     1      -3.084 -11.774  12.958  0.00  0.00    +0.038 A 
ATOM     21  C   UNL     1      -2.102 -10.792  13.096  0.00  0.00    +0.123 A 
ENDBRANCH  11  13
ENDBRANCH   4  11
TORSDOF 6
ENDMDL
