MODEL 1
REMARK VINA RESULT:      -7.5      0.000      0.000
REMARK  Name = 51137880
REMARK  6 active torsions:
REMARK  status: ('A' for Active; 'I' for Inactive)
REMARK    1  A    between atoms: O_1  and  C_25
REMARK    2  A    between atoms: N_3  and  C_11
REMARK    3  A    between atoms: N_4  and  C_15
REMARK    4  A    between atoms: C_6  and  C_10
REMARK    5  A    between atoms: C_11  and  C_13
REMARK    6  A    between atoms: C_24  and  C_25
REMARK                            x       y       z     vdW  Elec       q    Type
REMARK                         _______ _______ _______ _____ _____    ______ ____
ROOT
ATOM      3  N   UNL     1      10.423   6.486   4.017  0.00  0.00    -0.297 NA
ATOM      6  C   UNL     1      11.685   5.547   2.277  0.00  0.00    +0.070 C 
ATOM      7  C   UNL     1      11.874   7.075   2.284  0.00  0.00    +0.028 C 
ATOM      8  C   UNL     1      10.446   5.305   3.150  0.00  0.00    +0.096 C 
ATOM      9  C   UNL     1      10.726   7.609   3.131  0.00  0.00    +0.085 C 
ENDROOT
BRANCH   6  10
ATOM      4  N   UNL     1      12.359   3.889   0.502  0.00  0.00    -0.330 N 
ATOM      5  N   UNL     1      10.726   5.296  -0.037  0.00  0.00    -0.232 NA
ATOM     10  C   UNL     1      11.567   4.929   0.904  0.00  0.00    +0.115 A 
ATOM     12  C   UNL     1      12.005   3.563  -0.782  0.00  0.00    +0.069 A 
ATOM     14  C   UNL     1      10.984   4.456  -1.096  0.00  0.00    +0.089 A 
ATOM     15  C   UNL     1      13.387   3.245   1.289  0.00  0.00    +0.150 C 
ATOM     16  C   UNL     1      12.477   2.596  -1.668  0.00  0.00    +0.028 A 
ATOM     19  C   UNL     1      10.386   4.393  -2.365  0.00  0.00    +0.030 A 
ATOM     20  C   UNL     1      11.870   2.547  -2.929  0.00  0.00    +0.002 A 
ATOM     21  C   UNL     1      10.844   3.429  -3.273  0.00  0.00    +0.002 A 
ENDBRANCH   6  10
BRANCH   3  11
ATOM     11  C   UNL     1       9.149   6.648   4.701  0.00  0.00    +0.119 C 
BRANCH  11  13
ATOM     13  C   UNL     1       9.222   6.200   6.137  0.00  0.00    -0.033 A 
ATOM     17  C   UNL     1       9.697   4.926   6.446  0.00  0.00    +0.006 A 
ATOM     18  C   UNL     1       8.814   7.060   7.157  0.00  0.00    +0.006 A 
ATOM     22  C   UNL     1       9.766   4.512   7.776  0.00  0.00    +0.015 A 
ATOM     23  C   UNL     1       8.882   6.646   8.487  0.00  0.00    +0.015 A 
ATOM     24  C   UNL     1       9.358   5.371   8.796  0.00  0.00    +0.059 A 
BRANCH  24  25
ATOM      2  O   UNL     1      10.469   4.690  10.803  0.00  0.00    -0.245 OA
ATOM     25  C   UNL     1       9.430   4.940  10.183  0.00  0.00    +0.337 C 
BRANCH  25   1
ATOM      1  O   UNL     1       8.202   4.834  10.761  0.00  0.00    -0.477 OA
ATOM     26  H   UNL     1       8.004   3.913  11.033  0.00  0.00    +0.295 HD
ENDBRANCH  25   1
ENDBRANCH  24  25
ENDBRANCH  11  13
ENDBRANCH   3  11
TORSDOF 5
ENDMDL
MODEL 2
REMARK VINA RESULT:      -7.1     17.409     20.582
REMARK  Name = 51137880
REMARK  6 active torsions:
REMARK  status: ('A' for Active; 'I' for Inactive)
REMARK    1  A    between atoms: O_1  and  C_25
REMARK    2  A    between atoms: N_3  and  C_11
REMARK    3  A    between atoms: N_4  and  C_15
REMARK    4  A    between atoms: C_6  and  C_10
REMARK    5  A    between atoms: C_11  and  C_13
REMARK    6  A    between atoms: C_24  and  C_25
REMARK                            x       y       z     vdW  Elec       q    Type
REMARK                         _______ _______ _______ _____ _____    ______ ____
ROOT
ATOM      3  N   UNL     1      13.148   8.609  20.758  0.00  0.00    -0.297 NA
ATOM      6  C   UNL     1      12.112  10.049  22.293  0.00  0.00    +0.070 C 
ATOM      7  C   UNL     1      11.132   8.931  21.893  0.00  0.00    +0.028 C 
ATOM      8  C   UNL     1      13.218   9.994  21.231  0.00  0.00    +0.096 C 
ATOM      9  C   UNL     1      11.718   8.330  20.623  0.00  0.00    +0.085 C 
ENDROOT
BRANCH   6  10
ATOM      4  N   UNL     1      11.062  11.912  23.629  0.00  0.00    -0.330 N 
ATOM      5  N   UNL     1      11.291  12.274  21.448  0.00  0.00    -0.232 NA
ATOM     10  C   UNL     1      11.490  11.419  22.426  0.00  0.00    +0.115 A 
ATOM     12  C   UNL     1      10.553  13.166  23.411  0.00  0.00    +0.069 A 
ATOM     14  C   UNL     1      10.707  13.369  22.042  0.00  0.00    +0.089 A 
ATOM     15  C   UNL     1      11.132  11.233  24.903  0.00  0.00    +0.150 C 
ATOM     16  C   UNL     1       9.989  14.111  24.267  0.00  0.00    +0.028 A 
ATOM     19  C   UNL     1      10.279  14.582  21.477  0.00  0.00    +0.030 A 
ATOM     20  C   UNL     1       9.567  15.314  23.688  0.00  0.00    +0.002 A 
ATOM     21  C   UNL     1       9.708  15.546  22.318  0.00  0.00    +0.002 A 
ENDBRANCH   6  10
BRANCH   3  11
ATOM     11  C   UNL     1      13.872   8.411  19.512  0.00  0.00    +0.119 C 
BRANCH  11  13
ATOM     13  C   UNL     1      15.217   7.772  19.741  0.00  0.00    -0.033 A 
ATOM     17  C   UNL     1      16.086   8.300  20.695  0.00  0.00    +0.006 A 
ATOM     18  C   UNL     1      15.592   6.652  18.998  0.00  0.00    +0.006 A 
ATOM     22  C   UNL     1      17.330   7.708  20.908  0.00  0.00    +0.015 A 
ATOM     23  C   UNL     1      16.837   6.060  19.210  0.00  0.00    +0.015 A 
ATOM     24  C   UNL     1      17.706   6.589  20.165  0.00  0.00    +0.059 A 
BRANCH  24  25
ATOM      2  O   UNL     1      19.841   6.341  21.216  0.00  0.00    -0.245 OA
ATOM     25  C   UNL     1      19.004   5.971  20.386  0.00  0.00    +0.337 C 
BRANCH  25   1
ATOM      1  O   UNL     1      19.221   4.906  19.566  0.00  0.00    -0.477 OA
ATOM     26  H   UNL     1      19.922   5.091  18.905  0.00  0.00    +0.295 HD
ENDBRANCH  25   1
ENDBRANCH  24  25
ENDBRANCH  11  13
ENDBRANCH   3  11
TORSDOF 5
ENDMDL
MODEL 3
REMARK VINA RESULT:      -6.7     17.858     20.349
REMARK  Name = 51137880
REMARK  6 active torsions:
REMARK  status: ('A' for Active; 'I' for Inactive)
REMARK    1  A    between atoms: O_1  and  C_25
REMARK    2  A    between atoms: N_3  and  C_11
REMARK    3  A    between atoms: N_4  and  C_15
REMARK    4  A    between atoms: C_6  and  C_10
REMARK    5  A    between atoms: C_11  and  C_13
REMARK    6  A    between atoms: C_24  and  C_25
REMARK                            x       y       z     vdW  Elec       q    Type
REMARK                         _______ _______ _______ _____ _____    ______ ____
ROOT
ATOM      3  N   UNL     1      18.754   7.357  21.733  0.00  0.00    -0.297 NA
ATOM      6  C   UNL     1      20.616   5.937  21.869  0.00  0.00    +0.070 C 
ATOM      7  C   UNL     1      20.590   6.871  23.093  0.00  0.00    +0.028 C 
ATOM      8  C   UNL     1      19.647   6.581  20.869  0.00  0.00    +0.096 C 
ATOM      9  C   UNL     1      19.637   7.996  22.709  0.00  0.00    +0.085 C 
ENDROOT
BRANCH   6  10
ATOM      4  N   UNL     1      22.421   4.444  20.939  0.00  0.00    -0.330 N 
ATOM      5  N   UNL     1      22.899   6.611  21.049  0.00  0.00    -0.232 NA
ATOM     10  C   UNL     1      21.988   5.694  21.286  0.00  0.00    +0.115 A 
ATOM     12  C   UNL     1      23.695   4.563  20.445  0.00  0.00    +0.069 A 
ATOM     14  C   UNL     1      23.970   5.926  20.525  0.00  0.00    +0.089 A 
ATOM     15  C   UNL     1      21.673   3.214  21.068  0.00  0.00    +0.150 C 
ATOM     16  C   UNL     1      24.602   3.625  19.952  0.00  0.00    +0.028 A 
ATOM     19  C   UNL     1      25.220   6.398  20.090  0.00  0.00    +0.030 A 
ATOM     20  C   UNL     1      25.842   4.113  19.524  0.00  0.00    +0.002 A 
ATOM     21  C   UNL     1      26.147   5.474  19.591  0.00  0.00    +0.002 A 
ENDBRANCH   6  10
BRANCH   3  11
ATOM     11  C   UNL     1      17.961   8.323  20.988  0.00  0.00    +0.119 C 
BRANCH  11  13
ATOM     13  C   UNL     1      16.523   7.894  20.866  0.00  0.00    -0.033 A 
ATOM     17  C   UNL     1      15.593   8.296  21.824  0.00  0.00    +0.006 A 
ATOM     18  C   UNL     1      16.122   7.093  19.796  0.00  0.00    +0.006 A 
ATOM     22  C   UNL     1      14.260   7.900  21.711  0.00  0.00    +0.015 A 
ATOM     23  C   UNL     1      14.789   6.697  19.683  0.00  0.00    +0.015 A 
ATOM     24  C   UNL     1      13.859   7.100  20.642  0.00  0.00    +0.059 A 
BRANCH  24  25
ATOM      2  O   UNL     1      11.685   7.057  19.643  0.00  0.00    -0.245 OA
ATOM     25  C   UNL     1      12.470   6.687  20.523  0.00  0.00    +0.337 C 
BRANCH  25   1
ATOM      1  O   UNL     1      12.097   5.821  21.505  0.00  0.00    -0.477 OA
ATOM     26  H   UNL     1      11.558   5.080  21.155  0.00  0.00    +0.295 HD
ENDBRANCH  25   1
ENDBRANCH  24  25
ENDBRANCH  11  13
ENDBRANCH   3  11
TORSDOF 5
ENDMDL
MODEL 4
REMARK VINA RESULT:      -6.6     29.840     34.164
REMARK  Name = 51137880
REMARK  6 active torsions:
REMARK  status: ('A' for Active; 'I' for Inactive)
REMARK    1  A    between atoms: O_1  and  C_25
REMARK    2  A    between atoms: N_3  and  C_11
REMARK    3  A    between atoms: N_4  and  C_15
REMARK    4  A    between atoms: C_6  and  C_10
REMARK    5  A    between atoms: C_11  and  C_13
REMARK    6  A    between atoms: C_24  and  C_25
REMARK                            x       y       z     vdW  Elec       q    Type
REMARK                         _______ _______ _______ _____ _____    ______ ____
ROOT
ATOM      3  N   UNL     1     -16.982   3.979  26.060  0.00  0.00    -0.297 NA
ATOM      6  C   UNL     1     -16.476   4.400  23.809  0.00  0.00    +0.070 C 
ATOM      7  C   UNL     1     -16.110   2.946  24.156  0.00  0.00    +0.028 C 
ATOM      8  C   UNL     1     -16.648   5.092  25.167  0.00  0.00    +0.096 C 
ATOM      9  C   UNL     1     -16.068   2.903  25.677  0.00  0.00    +0.085 C 
ENDROOT
BRANCH   6  10
ATOM      4  N   UNL     1     -15.883   5.991  21.945  0.00  0.00    -0.330 N 
ATOM      5  N   UNL     1     -14.181   4.964  22.939  0.00  0.00    -0.232 NA
ATOM     10  C   UNL     1     -15.487   5.105  22.910  0.00  0.00    +0.115 A 
ATOM     12  C   UNL     1     -14.758   6.451  21.311  0.00  0.00    +0.069 A 
ATOM     14  C   UNL     1     -13.709   5.795  21.950  0.00  0.00    +0.089 A 
ATOM     15  C   UNL     1     -17.244   6.375  21.644  0.00  0.00    +0.150 C 
ATOM     16  C   UNL     1     -14.573   7.355  20.265  0.00  0.00    +0.028 A 
ATOM     19  C   UNL     1     -12.391   6.046  21.534  0.00  0.00    +0.030 A 
ATOM     20  C   UNL     1     -13.254   7.593  19.864  0.00  0.00    +0.002 A 
ATOM     21  C   UNL     1     -12.181   6.951  20.486  0.00  0.00    +0.002 A 
ENDBRANCH   6  10
BRANCH   3  11
ATOM     11  C   UNL     1     -16.859   4.338  27.464  0.00  0.00    +0.119 C 
BRANCH  11  13
ATOM     13  C   UNL     1     -16.370   3.183  28.298  0.00  0.00    -0.033 A 
ATOM     17  C   UNL     1     -17.093   1.992  28.331  0.00  0.00    +0.006 A 
ATOM     18  C   UNL     1     -15.192   3.306  29.036  0.00  0.00    +0.006 A 
ATOM     22  C   UNL     1     -16.639   0.922  29.102  0.00  0.00    +0.015 A 
ATOM     23  C   UNL     1     -14.738   2.236  29.807  0.00  0.00    +0.015 A 
ATOM     24  C   UNL     1     -15.463   1.044  29.841  0.00  0.00    +0.059 A 
BRANCH  24  25
ATOM      2  O   UNL     1     -14.952  -0.099  31.879  0.00  0.00    -0.245 OA
ATOM     25  C   UNL     1     -14.988  -0.071  30.644  0.00  0.00    +0.337 C 
BRANCH  25   1
ATOM      1  O   UNL     1     -14.572  -1.122  29.886  0.00  0.00    -0.477 OA
ATOM     26  H   UNL     1     -14.151  -1.821  30.429  0.00  0.00    +0.295 HD
ENDBRANCH  25   1
ENDBRANCH  24  25
ENDBRANCH  11  13
ENDBRANCH   3  11
TORSDOF 5
ENDMDL
MODEL 5
REMARK VINA RESULT:      -6.5     14.927     19.613
REMARK  Name = 51137880
REMARK  6 active torsions:
REMARK  status: ('A' for Active; 'I' for Inactive)
REMARK    1  A    between atoms: O_1  and  C_25
REMARK    2  A    between atoms: N_3  and  C_11
REMARK    3  A    between atoms: N_4  and  C_15
REMARK    4  A    between atoms: C_6  and  C_10
REMARK    5  A    between atoms: C_11  and  C_13
REMARK    6  A    between atoms: C_24  and  C_25
REMARK                            x       y       z     vdW  Elec       q    Type
REMARK                         _______ _______ _______ _____ _____    ______ ____
ROOT
ATOM      3  N   UNL     1      12.790   7.545  21.636  0.00  0.00    -0.297 NA
ATOM      6  C   UNL     1      11.878   9.421  22.709  0.00  0.00    +0.070 C 
ATOM      7  C   UNL     1      10.749   8.446  22.329  0.00  0.00    +0.028 C 
ATOM      8  C   UNL     1      13.086   8.958  21.883  0.00  0.00    +0.096 C 
ATOM      9  C   UNL     1      11.367   7.512  21.297  0.00  0.00    +0.085 C 
ENDROOT
BRANCH   6  10
ATOM      4  N   UNL     1      11.186  11.697  23.542  0.00  0.00    -0.330 N 
ATOM      5  N   UNL     1      11.572  11.525  21.360  0.00  0.00    -0.232 NA
ATOM     10  C   UNL     1      11.550  10.881  22.506  0.00  0.00    +0.115 A 
ATOM     12  C   UNL     1      10.958  12.949  23.030  0.00  0.00    +0.069 A 
ATOM     14  C   UNL     1      11.206  12.815  21.667  0.00  0.00    +0.089 A 
ATOM     15  C   UNL     1      11.062  11.312  24.930  0.00  0.00    +0.150 C 
ATOM     16  C   UNL     1      10.568  14.149  23.624  0.00  0.00    +0.028 A 
ATOM     19  C   UNL     1      11.061  13.935  20.832  0.00  0.00    +0.030 A 
ATOM     20  C   UNL     1      10.429  15.254  22.778  0.00  0.00    +0.002 A 
ATOM     21  C   UNL     1      10.670  15.151  21.406  0.00  0.00    +0.002 A 
ENDBRANCH   6  10
BRANCH   3  11
ATOM     11  C   UNL     1      13.624   6.978  20.588  0.00  0.00    +0.119 C 
BRANCH  11  13
ATOM     13  C   UNL     1      13.495   7.740  19.295  0.00  0.00    -0.033 A 
ATOM     17  C   UNL     1      12.405   7.511  18.457  0.00  0.00    +0.006 A 
ATOM     18  C   UNL     1      14.467   8.675  18.936  0.00  0.00    +0.006 A 
ATOM     22  C   UNL     1      12.284   8.216  17.260  0.00  0.00    +0.015 A 
ATOM     23  C   UNL     1      14.347   9.381  17.740  0.00  0.00    +0.015 A 
ATOM     24  C   UNL     1      13.256   9.151  16.901  0.00  0.00    +0.059 A 
BRANCH  24  25
ATOM      2  O   UNL     1      14.073  10.307  14.973  0.00  0.00    -0.245 OA
ATOM     25  C   UNL     1      13.131   9.888  15.654  0.00  0.00    +0.337 C 
BRANCH  25   1
ATOM      1  O   UNL     1      11.834  10.081  15.289  0.00  0.00    -0.477 OA
ATOM     26  H   UNL     1      11.327  10.555  15.981  0.00  0.00    +0.295 HD
ENDBRANCH  25   1
ENDBRANCH  24  25
ENDBRANCH  11  13
ENDBRANCH   3  11
TORSDOF 5
ENDMDL
MODEL 6
REMARK VINA RESULT:      -6.5     26.939     31.705
REMARK  Name = 51137880
REMARK  6 active torsions:
REMARK  status: ('A' for Active; 'I' for Inactive)
REMARK    1  A    between atoms: O_1  and  C_25
REMARK    2  A    between atoms: N_3  and  C_11
REMARK    3  A    between atoms: N_4  and  C_15
REMARK    4  A    between atoms: C_6  and  C_10
REMARK    5  A    between atoms: C_11  and  C_13
REMARK    6  A    between atoms: C_24  and  C_25
REMARK                            x       y       z     vdW  Elec       q    Type
REMARK                         _______ _______ _______ _____ _____    ______ ____
ROOT
ATOM      3  N   UNL     1     -13.388   6.603  21.100  0.00  0.00    -0.297 NA
ATOM      6  C   UNL     1     -15.301   5.472  21.850  0.00  0.00    +0.070 C 
ATOM      7  C   UNL     1     -15.535   6.991  21.934  0.00  0.00    +0.028 C 
ATOM      8  C   UNL     1     -13.783   5.321  21.689  0.00  0.00    +0.096 C 
ATOM      9  C   UNL     1     -14.146   7.608  21.845  0.00  0.00    +0.085 C 
ENDROOT
BRANCH   6  10
ATOM      4  N   UNL     1     -17.038   4.002  22.936  0.00  0.00    -0.330 N 
ATOM      5  N   UNL     1     -15.287   4.547  24.192  0.00  0.00    -0.232 NA
ATOM     10  C   UNL     1     -15.852   4.680  23.012  0.00  0.00    +0.115 A 
ATOM     12  C   UNL     1     -17.251   3.392  24.145  0.00  0.00    +0.069 A 
ATOM     14  C   UNL     1     -16.144   3.748  24.912  0.00  0.00    +0.089 A 
ATOM     15  C   UNL     1     -17.912   3.937  21.787  0.00  0.00    +0.150 C 
ATOM     16  C   UNL     1     -18.285   2.586  24.620  0.00  0.00    +0.028 A 
ATOM     19  C   UNL     1     -16.047   3.280  26.232  0.00  0.00    +0.030 A 
ATOM     20  C   UNL     1     -18.172   2.128  25.938  0.00  0.00    +0.002 A 
ATOM     21  C   UNL     1     -17.074   2.468  26.731  0.00  0.00    +0.002 A 
ENDBRANCH   6  10
BRANCH   3  11
ATOM     11  C   UNL     1     -11.952   6.827  21.168  0.00  0.00    +0.119 C 
BRANCH  11  13
ATOM     13  C   UNL     1     -11.462   7.677  20.026  0.00  0.00    -0.033 A 
ATOM     17  C   UNL     1     -11.033   8.983  20.263  0.00  0.00    +0.006 A 
ATOM     18  C   UNL     1     -11.437   7.159  18.731  0.00  0.00    +0.006 A 
ATOM     22  C   UNL     1     -10.578   9.770  19.206  0.00  0.00    +0.015 A 
ATOM     23  C   UNL     1     -10.981   7.946  17.674  0.00  0.00    +0.015 A 
ATOM     24  C   UNL     1     -10.552   9.252  17.912  0.00  0.00    +0.059 A 
BRANCH  24  25
ATOM      2  O   UNL     1     -10.312   9.869  15.612  0.00  0.00    -0.245 OA
ATOM     25  C   UNL     1     -10.078  10.072  16.808  0.00  0.00    +0.337 C 
BRANCH  25   1
ATOM      1  O   UNL     1      -9.323  11.125  17.228  0.00  0.00    -0.477 OA
ATOM     26  H   UNL     1      -9.153  11.764  16.504  0.00  0.00    +0.295 HD
ENDBRANCH  25   1
ENDBRANCH  24  25
ENDBRANCH  11  13
ENDBRANCH   3  11
TORSDOF 5
ENDMDL
MODEL 7
REMARK VINA RESULT:      -6.4     31.243     35.409
REMARK  Name = 51137880
REMARK  6 active torsions:
REMARK  status: ('A' for Active; 'I' for Inactive)
REMARK    1  A    between atoms: O_1  and  C_25
REMARK    2  A    between atoms: N_3  and  C_11
REMARK    3  A    between atoms: N_4  and  C_15
REMARK    4  A    between atoms: C_6  and  C_10
REMARK    5  A    between atoms: C_11  and  C_13
REMARK    6  A    between atoms: C_24  and  C_25
REMARK                            x       y       z     vdW  Elec       q    Type
REMARK                         _______ _______ _______ _____ _____    ______ ____
ROOT
ATOM      3  N   UNL     1     -17.039   2.093  27.064  0.00  0.00    -0.297 NA
ATOM      6  C   UNL     1     -16.920   3.967  25.658  0.00  0.00    +0.070 C 
ATOM      7  C   UNL     1     -17.987   2.992  25.128  0.00  0.00    +0.028 C 
ATOM      8  C   UNL     1     -16.098   3.138  26.654  0.00  0.00    +0.096 C 
ATOM      9  C   UNL     1     -17.695   1.671  25.826  0.00  0.00    +0.085 C 
ENDROOT
BRANCH   6  10
ATOM      4  N   UNL     1     -16.413   5.814  24.019  0.00  0.00    -0.330 N 
ATOM      5  N   UNL     1     -14.949   4.143  24.101  0.00  0.00    -0.232 NA
ATOM     10  C   UNL     1     -16.072   4.619  24.592  0.00  0.00    +0.115 A 
ATOM     12  C   UNL     1     -15.446   6.128  23.099  0.00  0.00    +0.069 A 
ATOM     14  C   UNL     1     -14.544   5.070  23.169  0.00  0.00    +0.089 A 
ATOM     15  C   UNL     1     -17.582   6.606  24.326  0.00  0.00    +0.150 C 
ATOM     16  C   UNL     1     -15.288   7.214  22.237  0.00  0.00    +0.028 A 
ATOM     19  C   UNL     1     -13.411   5.079  22.338  0.00  0.00    +0.030 A 
ATOM     20  C   UNL     1     -14.154   7.207  21.417  0.00  0.00    +0.002 A 
ATOM     21  C   UNL     1     -13.232   6.159  21.465  0.00  0.00    +0.002 A 
ENDBRANCH   6  10
BRANCH   3  11
ATOM     11  C   UNL     1     -16.380   0.990  27.747  0.00  0.00    +0.119 C 
BRANCH  11  13
ATOM     13  C   UNL     1     -15.988   1.355  29.154  0.00  0.00    -0.033 A 
ATOM     17  C   UNL     1     -15.182   0.495  29.898  0.00  0.00    +0.006 A 
ATOM     18  C   UNL     1     -16.432   2.555  29.713  0.00  0.00    +0.006 A 
ATOM     22  C   UNL     1     -14.817   0.833  31.201  0.00  0.00    +0.015 A 
ATOM     23  C   UNL     1     -16.067   2.893  31.016  0.00  0.00    +0.015 A 
ATOM     24  C   UNL     1     -15.260   2.031  31.760  0.00  0.00    +0.059 A 
BRANCH  24  25
ATOM      2  O   UNL     1     -14.523   3.508  33.493  0.00  0.00    -0.245 OA
ATOM     25  C   UNL     1     -14.880   2.385  33.118  0.00  0.00    +0.337 C 
BRANCH  25   1
ATOM      1  O   UNL     1     -14.957   1.329  33.974  0.00  0.00    -0.477 OA
ATOM     26  H   UNL     1     -14.364   1.441  34.746  0.00  0.00    +0.295 HD
ENDBRANCH  25   1
ENDBRANCH  24  25
ENDBRANCH  11  13
ENDBRANCH   3  11
TORSDOF 5
ENDMDL
MODEL 8
REMARK VINA RESULT:      -6.3     24.847     27.333
REMARK  Name = 51137880
REMARK  6 active torsions:
REMARK  status: ('A' for Active; 'I' for Inactive)
REMARK    1  A    between atoms: O_1  and  C_25
REMARK    2  A    between atoms: N_3  and  C_11
REMARK    3  A    between atoms: N_4  and  C_15
REMARK    4  A    between atoms: C_6  and  C_10
REMARK    5  A    between atoms: C_11  and  C_13
REMARK    6  A    between atoms: C_24  and  C_25
REMARK                            x       y       z     vdW  Elec       q    Type
REMARK                         _______ _______ _______ _____ _____    ______ ____
ROOT
ATOM      3  N   UNL     1     -11.317   9.020  19.011  0.00  0.00    -0.297 NA
ATOM      6  C   UNL     1     -10.949   8.938  16.696  0.00  0.00    +0.070 C 
ATOM      7  C   UNL     1      -9.752   9.618  17.384  0.00  0.00    +0.028 C 
ATOM      8  C   UNL     1     -12.063   8.951  17.751  0.00  0.00    +0.096 C 
ATOM      9  C   UNL     1     -10.259  10.000  18.769  0.00  0.00    +0.085 C 
ENDROOT
BRANCH   6  10
ATOM      4  N   UNL     1     -11.216   8.925  14.189  0.00  0.00    -0.330 N 
ATOM      5  N   UNL     1     -11.912  10.755  15.243  0.00  0.00    -0.232 NA
ATOM     10  C   UNL     1     -11.369   9.566  15.388  0.00  0.00    +0.115 A 
ATOM     12  C   UNL     1     -11.690   9.756  13.206  0.00  0.00    +0.069 A 
ATOM     14  C   UNL     1     -12.119  10.890  13.890  0.00  0.00    +0.089 A 
ATOM     15  C   UNL     1     -10.653   7.609  13.990  0.00  0.00    +0.150 C 
ATOM     16  C   UNL     1     -11.778   9.616  11.822  0.00  0.00    +0.028 A 
ATOM     19  C   UNL     1     -12.671  11.959  13.164  0.00  0.00    +0.030 A 
ATOM     20  C   UNL     1     -12.331  10.689  11.114  0.00  0.00    +0.002 A 
ATOM     21  C   UNL     1     -12.770  11.840  11.771  0.00  0.00    +0.002 A 
ENDBRANCH   6  10
BRANCH   3  11
ATOM     11  C   UNL     1     -12.163   9.384  20.137  0.00  0.00    +0.119 C 
BRANCH  11  13
ATOM     13  C   UNL     1     -12.691   8.171  20.858  0.00  0.00    -0.033 A 
ATOM     17  C   UNL     1     -13.931   8.223  21.493  0.00  0.00    +0.006 A 
ATOM     18  C   UNL     1     -11.938   6.997  20.891  0.00  0.00    +0.006 A 
ATOM     22  C   UNL     1     -14.421   7.100  22.160  0.00  0.00    +0.015 A 
ATOM     23  C   UNL     1     -12.427   5.874  21.558  0.00  0.00    +0.015 A 
ATOM     24  C   UNL     1     -13.669   5.926  22.193  0.00  0.00    +0.059 A 
BRANCH  24  25
ATOM      2  O   UNL     1     -15.218   4.150  22.604  0.00  0.00    -0.245 OA
ATOM     25  C   UNL     1     -14.178   4.755  22.887  0.00  0.00    +0.337 C 
BRANCH  25   1
ATOM      1  O   UNL     1     -13.376   4.369  23.917  0.00  0.00    -0.477 OA
ATOM     26  H   UNL     1     -12.704   3.714  23.632  0.00  0.00    +0.295 HD
ENDBRANCH  25   1
ENDBRANCH  24  25
ENDBRANCH  11  13
ENDBRANCH   3  11
TORSDOF 5
ENDMDL
MODEL 9
REMARK VINA RESULT:      -6.2      6.815      9.541
REMARK  Name = 51137880
REMARK  6 active torsions:
REMARK  status: ('A' for Active; 'I' for Inactive)
REMARK    1  A    between atoms: O_1  and  C_25
REMARK    2  A    between atoms: N_3  and  C_11
REMARK    3  A    between atoms: N_4  and  C_15
REMARK    4  A    between atoms: C_6  and  C_10
REMARK    5  A    between atoms: C_11  and  C_13
REMARK    6  A    between atoms: C_24  and  C_25
REMARK                            x       y       z     vdW  Elec       q    Type
REMARK                         _______ _______ _______ _____ _____    ______ ____
ROOT
ATOM      3  N   UNL     1      16.227   8.586   5.088  0.00  0.00    -0.297 NA
ATOM      6  C   UNL     1      14.103   7.713   4.611  0.00  0.00    +0.070 C 
ATOM      7  C   UNL     1      14.292   9.046   3.864  0.00  0.00    +0.028 C 
ATOM      8  C   UNL     1      15.215   7.699   5.668  0.00  0.00    +0.096 C 
ATOM      9  C   UNL     1      15.473   9.718   4.552  0.00  0.00    +0.085 C 
ENDROOT
BRANCH   6  10
ATOM      4  N   UNL     1      11.739   6.841   4.529  0.00  0.00    -0.330 N 
ATOM      5  N   UNL     1      12.324   7.922   6.381  0.00  0.00    -0.232 NA
ATOM     10  C   UNL     1      12.728   7.507   5.201  0.00  0.00    +0.115 A 
ATOM     12  C   UNL     1      10.626   6.825   5.329  0.00  0.00    +0.069 A 
ATOM     14  C   UNL     1      11.016   7.507   6.478  0.00  0.00    +0.089 A 
ATOM     15  C   UNL     1      11.847   6.256   3.212  0.00  0.00    +0.150 C 
ATOM     16  C   UNL     1       9.350   6.291   5.150  0.00  0.00    +0.028 A 
ATOM     19  C   UNL     1      10.091   7.674   7.522  0.00  0.00    +0.030 A 
ATOM     20  C   UNL     1       8.441   6.467   6.200  0.00  0.00    +0.002 A 
ATOM     21  C   UNL     1       8.803   7.145   7.366  0.00  0.00    +0.002 A 
ENDBRANCH   6  10
BRANCH   3  11
ATOM     11  C   UNL     1      17.229   8.996   6.061  0.00  0.00    +0.119 C 
BRANCH  11  13
ATOM     13  C   UNL     1      18.602   8.495   5.699  0.00  0.00    -0.033 A 
ATOM     17  C   UNL     1      18.865   8.061   4.400  0.00  0.00    +0.006 A 
ATOM     18  C   UNL     1      19.610   8.464   6.663  0.00  0.00    +0.006 A 
ATOM     22  C   UNL     1      20.137   7.598   4.064  0.00  0.00    +0.015 A 
ATOM     23  C   UNL     1      20.882   8.000   6.327  0.00  0.00    +0.015 A 
ATOM     24  C   UNL     1      21.144   7.567   5.027  0.00  0.00    +0.059 A 
BRANCH  24  25
ATOM      2  O   UNL     1      23.527   7.703   4.850  0.00  0.00    -0.245 OA
ATOM     25  C   UNL     1      22.471   7.084   4.678  0.00  0.00    +0.337 C 
BRANCH  25   1
ATOM      1  O   UNL     1      22.445   5.841   4.124  0.00  0.00    -0.477 OA
ATOM     26  H   UNL     1      22.190   5.868   3.177  0.00  0.00    +0.295 HD
ENDBRANCH  25   1
ENDBRANCH  24  25
ENDBRANCH  11  13
ENDBRANCH   3  11
TORSDOF 5
ENDMDL
MODEL 10
REMARK VINA RESULT:      -6.2     22.861     25.663
REMARK  Name = 51137880
REMARK  6 active torsions:
REMARK  status: ('A' for Active; 'I' for Inactive)
REMARK    1  A    between atoms: O_1  and  C_25
REMARK    2  A    between atoms: N_3  and  C_11
REMARK    3  A    between atoms: N_4  and  C_15
REMARK    4  A    between atoms: C_6  and  C_10
REMARK    5  A    between atoms: C_11  and  C_13
REMARK    6  A    between atoms: C_24  and  C_25
REMARK                            x       y       z     vdW  Elec       q    Type
REMARK                         _______ _______ _______ _____ _____    ______ ____
ROOT
ATOM      3  N   UNL     1      -6.896 -11.583  17.095  0.00  0.00    -0.297 NA
ATOM      6  C   UNL     1      -4.953 -11.410  15.793  0.00  0.00    +0.070 C 
ATOM      7  C   UNL     1      -4.904 -10.375  16.931  0.00  0.00    +0.028 C 
ATOM      8  C   UNL     1      -6.420 -11.857  15.737  0.00  0.00    +0.096 C 
ATOM      9  C   UNL     1      -6.338 -10.273  17.432  0.00  0.00    +0.085 C 
ENDROOT
BRANCH   6  10
ATOM      4  N   UNL     1      -3.106 -10.927  14.147  0.00  0.00    -0.330 N 
ATOM      5  N   UNL     1      -5.169 -10.432  13.483  0.00  0.00    -0.232 NA
ATOM     10  C   UNL     1      -4.437 -10.915  14.462  0.00  0.00    +0.115 A 
ATOM     12  C   UNL     1      -2.971 -10.418  12.880  0.00  0.00    +0.069 A 
ATOM     14  C   UNL     1      -4.272 -10.116  12.488  0.00  0.00    +0.089 A 
ATOM     15  C   UNL     1      -2.032 -11.393  14.994  0.00  0.00    +0.150 C 
ATOM     16  C   UNL     1      -1.856 -10.202  12.070  0.00  0.00    +0.028 A 
ATOM     19  C   UNL     1      -4.493  -9.566  11.215  0.00  0.00    +0.030 A 
ATOM     20  C   UNL     1      -2.094  -9.653  10.805  0.00  0.00    +0.002 A 
ATOM     21  C   UNL     1      -3.388  -9.340  10.383  0.00  0.00    +0.002 A 
ENDBRANCH   6  10
BRANCH   3  11
ATOM     11  C   UNL     1      -8.348 -11.609  17.190  0.00  0.00    +0.119 C 
BRANCH  11  13
ATOM     13  C   UNL     1      -8.958 -10.279  16.833  0.00  0.00    -0.033 A 
ATOM     17  C   UNL     1      -9.368  -9.407  17.841  0.00  0.00    +0.006 A 
ATOM     18  C   UNL     1      -9.112  -9.920  15.494  0.00  0.00    +0.006 A 
ATOM     22  C   UNL     1      -9.931  -8.175  17.511  0.00  0.00    +0.015 A 
ATOM     23  C   UNL     1      -9.676  -8.688  15.163  0.00  0.00    +0.015 A 
ATOM     24  C   UNL     1     -10.086  -7.816  16.172  0.00  0.00    +0.059 A 
BRANCH  24  25
ATOM      2  O   UNL     1     -11.870  -6.239  15.931  0.00  0.00    -0.245 OA
ATOM     25  C   UNL     1     -10.673  -6.531  15.826  0.00  0.00    +0.337 C 
BRANCH  25   1
ATOM      1  O   UNL     1      -9.752  -5.644  15.360  0.00  0.00    -0.477 OA
ATOM     26  H   UNL     1      -8.848  -6.024  15.357  0.00  0.00    +0.295 HD
ENDBRANCH  25   1
ENDBRANCH  24  25
ENDBRANCH  11  13
ENDBRANCH   3  11
TORSDOF 5
ENDMDL
