MODEL 1
REMARK VINA RESULT:      -6.9      0.000      0.000
REMARK  Name = 11882069
REMARK  11 active torsions:
REMARK  status: ('A' for Active; 'I' for Inactive)
REMARK    1  A    between atoms: S_2  and  C_35
REMARK    2  A    between atoms: S_2  and  C_38
REMARK    3  A    between atoms: N_8  and  C_13
REMARK    4  A    between atoms: N_9  and  C_20
REMARK    5  A    between atoms: N_10  and  C_28
REMARK    6  A    between atoms: N_11  and  C_29
REMARK    7  A    between atoms: C_14  and  C_17
REMARK    8  A    between atoms: C_18  and  C_19
REMARK    9  A    between atoms: C_20  and  C_22
REMARK   10  A    between atoms: C_20  and  C_24
REMARK   11  A    between atoms: C_22  and  C_27
REMARK                            x       y       z     vdW  Elec       q    Type
REMARK                         _______ _______ _______ _____ _____    ______ ____
ROOT
ATOM      4  O   UNL     1      15.568  10.803  18.807  0.00  0.00    -0.268 OA
ATOM      7  N   UNL     1      15.276   9.303  20.536  0.00  0.00    -0.283 N 
ATOM     13  C   UNL     1      16.044   7.087  20.891  0.00  0.00    +0.105 C 
ATOM     14  C   UNL     1      15.826   8.156  19.819  0.00  0.00    +0.182 C 
ATOM     15  C   UNL     1      14.983   7.421  21.943  0.00  0.00    +0.043 C 
ATOM     16  C   UNL     1      14.903   8.941  21.904  0.00  0.00    +0.111 C 
ATOM     18  C   UNL     1      15.235  10.582  19.972  0.00  0.00    +0.264 C 
ENDROOT
BRANCH  13   8
ATOM      5  O   UNL     1      18.404   5.808  19.893  0.00  0.00    -0.252 OA
ATOM      8  N   UNL     1      17.372   7.171  21.449  0.00  0.00    -0.294 N 
ATOM     11  N   UNL     1      19.624   6.777  21.649  0.00  0.00    -0.269 N 
ATOM     21  C   UNL     1      18.476   6.512  20.898  0.00  0.00    +0.304 C 
ATOM     39  H   UNL     1      17.528   7.787  22.241  0.00  0.00    +0.151 HD
ATOM     41  H   UNL     1      19.511   7.382  22.458  0.00  0.00    +0.156 HD
BRANCH  11  29
ATOM     29  C   UNL     1      20.938   6.301  21.424  0.00  0.00    +0.036 A 
ATOM     31  C   UNL     1      21.328   5.062  21.930  0.00  0.00    +0.038 A 
ATOM     32  C   UNL     1      21.843   7.074  20.695  0.00  0.00    +0.023 A 
ATOM     35  C   UNL     1      22.623   4.594  21.707  0.00  0.00    +0.009 A 
ATOM     36  C   UNL     1      23.138   6.606  20.472  0.00  0.00    +0.003 A 
ATOM     37  C   UNL     1      23.527   5.366  20.978  0.00  0.00    +0.015 A 
BRANCH  35   2
ATOM      2  S   UNL     1      23.123   3.009  22.351  0.00  0.00    -0.129 S 
ATOM     38  C   UNL     1      23.668   2.155  20.846  0.00  0.00    +0.090 C 
ENDBRANCH  35   2
ENDBRANCH  11  29
ENDBRANCH  13   8
BRANCH  18  19
ATOM     10  N   UNL     1      15.518  12.349  21.723  0.00  0.00    -0.346 N 
ATOM     19  C   UNL     1      14.746  11.654  20.830  0.00  0.00    +0.104 A 
ATOM     23  C   UNL     1      13.464  12.152  20.903  0.00  0.00    +0.032 A 
ATOM     25  C   UNL     1      14.748  13.284  22.365  0.00  0.00    +0.086 A 
ATOM     26  C   UNL     1      13.465  13.183  21.875  0.00  0.00    +0.020 A 
ATOM     28  C   UNL     1      16.929  12.143  21.964  0.00  0.00    +0.149 C 
ENDBRANCH  18  19
BRANCH  14  17
ATOM      3  O   UNL     1      14.933   6.728  18.126  0.00  0.00    -0.274 OA
ATOM      9  N   UNL     1      13.702   8.586  18.798  0.00  0.00    -0.302 N 
ATOM     17  C   UNL     1      14.785   7.726  18.826  0.00  0.00    +0.236 C 
ATOM     40  H   UNL     1      13.727   9.427  19.367  0.00  0.00    +0.150 HD
BRANCH   9  20
ATOM     20  C   UNL     1      12.575   8.409  17.911  0.00  0.00    +0.163 C 
BRANCH  20  24
ATOM      6  O   UNL     1      12.752   8.826  15.523  0.00  0.00    -0.274 OA
ATOM     12  N   UNL     1      13.148  10.562  16.975  0.00  0.00    -0.328 N 
ATOM     24  C   UNL     1      12.842   9.252  16.674  0.00  0.00    +0.231 C 
ATOM     42  H   UNL     1      13.333  11.236  16.239  0.00  0.00    +0.145 HD
ATOM     43  H   UNL     1      13.216  10.902  17.929  0.00  0.00    +0.145 HD
ENDBRANCH  20  24
BRANCH  20  22
ATOM     22  C   UNL     1      11.249   8.822  18.564  0.00  0.00    +0.074 C 
BRANCH  22  27
ATOM      1  S   UNL     1      11.340   7.090  20.745  0.00  0.00    -0.102 S 
ATOM     27  C   UNL     1      11.276   8.661  20.066  0.00  0.00    -0.008 A 
ATOM     30  C   UNL     1      11.252   9.642  21.033  0.00  0.00    +0.011 A 
ATOM     33  C   UNL     1      11.289   9.097  22.350  0.00  0.00    +0.008 A 
ATOM     34  C   UNL     1      11.338   7.720  22.338  0.00  0.00    +0.045 A 
ENDBRANCH  22  27
ENDBRANCH  20  22
ENDBRANCH   9  20
ENDBRANCH  14  17
TORSDOF 9
ENDMDL
MODEL 2
REMARK VINA RESULT:      -6.4      2.715      3.967
REMARK  Name = 11882069
REMARK  11 active torsions:
REMARK  status: ('A' for Active; 'I' for Inactive)
REMARK    1  A    between atoms: S_2  and  C_35
REMARK    2  A    between atoms: S_2  and  C_38
REMARK    3  A    between atoms: N_8  and  C_13
REMARK    4  A    between atoms: N_9  and  C_20
REMARK    5  A    between atoms: N_10  and  C_28
REMARK    6  A    between atoms: N_11  and  C_29
REMARK    7  A    between atoms: C_14  and  C_17
REMARK    8  A    between atoms: C_18  and  C_19
REMARK    9  A    between atoms: C_20  and  C_22
REMARK   10  A    between atoms: C_20  and  C_24
REMARK   11  A    between atoms: C_22  and  C_27
REMARK                            x       y       z     vdW  Elec       q    Type
REMARK                         _______ _______ _______ _____ _____    ______ ____
ROOT
ATOM      4  O   UNL     1      13.769  11.506  20.905  0.00  0.00    -0.268 OA
ATOM      7  N   UNL     1      13.101   9.327  21.264  0.00  0.00    -0.283 N 
ATOM     13  C   UNL     1      13.807   7.256  20.348  0.00  0.00    +0.105 C 
ATOM     14  C   UNL     1      13.831   8.769  20.128  0.00  0.00    +0.182 C 
ATOM     15  C   UNL     1      12.517   7.035  21.143  0.00  0.00    +0.043 C 
ATOM     16  C   UNL     1      12.418   8.276  22.019  0.00  0.00    +0.111 C 
ATOM     18  C   UNL     1      13.170  10.682  21.598  0.00  0.00    +0.264 C 
ENDROOT
BRANCH  13   8
ATOM      5  O   UNL     1      16.555   7.607  19.622  0.00  0.00    -0.252 OA
ATOM      8  N   UNL     1      14.959   6.818  21.098  0.00  0.00    -0.294 N 
ATOM     11  N   UNL     1      17.177   6.501  21.597  0.00  0.00    -0.269 N 
ATOM     21  C   UNL     1      16.275   7.031  20.671  0.00  0.00    +0.304 C 
ATOM     39  H   UNL     1      14.814   6.394  22.009  0.00  0.00    +0.151 HD
ATOM     41  H   UNL     1      16.779   6.052  22.418  0.00  0.00    +0.156 HD
BRANCH  11  29
ATOM     29  C   UNL     1      18.591   6.509  21.535  0.00  0.00    +0.036 A 
ATOM     31  C   UNL     1      19.325   7.284  22.433  0.00  0.00    +0.038 A 
ATOM     32  C   UNL     1      19.250   5.742  20.574  0.00  0.00    +0.023 A 
ATOM     35  C   UNL     1      20.718   7.292  22.372  0.00  0.00    +0.009 A 
ATOM     36  C   UNL     1      20.644   5.750  20.513  0.00  0.00    +0.003 A 
ATOM     37  C   UNL     1      21.377   6.525  21.411  0.00  0.00    +0.015 A 
BRANCH  35   2
ATOM      2  S   UNL     1      21.657   8.279  23.520  0.00  0.00    -0.129 S 
ATOM     38  C   UNL     1      20.789   7.955  25.081  0.00  0.00    +0.090 C 
ENDBRANCH  35   2
ENDBRANCH  11  29
ENDBRANCH  13   8
BRANCH  18  19
ATOM     10  N   UNL     1      13.077  11.392  23.998  0.00  0.00    -0.346 N 
ATOM     19  C   UNL     1      12.467  11.090  22.808  0.00  0.00    +0.104 A 
ATOM     23  C   UNL     1      11.110  11.241  22.980  0.00  0.00    +0.032 A 
ATOM     25  C   UNL     1      12.129  11.734  24.926  0.00  0.00    +0.086 A 
ATOM     26  C   UNL     1      10.895  11.648  24.320  0.00  0.00    +0.020 A 
ATOM     28  C   UNL     1      14.500  11.361  24.252  0.00  0.00    +0.149 C 
ENDBRANCH  18  19
BRANCH  14  17
ATOM      3  O   UNL     1      11.915   8.774  18.703  0.00  0.00    -0.274 OA
ATOM      9  N   UNL     1      13.821   9.932  18.034  0.00  0.00    -0.302 N 
ATOM     17  C   UNL     1      13.068   9.152  18.894  0.00  0.00    +0.236 C 
ATOM     40  H   UNL     1      14.794  10.114  18.261  0.00  0.00    +0.150 HD
BRANCH   9  20
ATOM     20  C   UNL     1      13.326  10.412  16.764  0.00  0.00    +0.163 C 
BRANCH  20  24
ATOM      6  O   UNL     1      12.171   8.846  15.309  0.00  0.00    -0.274 OA
ATOM     12  N   UNL     1      14.433   8.593  15.621  0.00  0.00    -0.328 N 
ATOM     24  C   UNL     1      13.219   9.209  15.841  0.00  0.00    +0.231 C 
ATOM     42  H   UNL     1      14.505   7.786  15.010  0.00  0.00    +0.145 HD
ATOM     43  H   UNL     1      15.292   8.905  16.064  0.00  0.00    +0.145 HD
ENDBRANCH  20  24
BRANCH  20  22
ATOM     22  C   UNL     1      14.240  11.480  16.149  0.00  0.00    +0.074 C 
BRANCH  22  27
ATOM      1  S   UNL     1      13.821  13.586  17.924  0.00  0.00    -0.102 S 
ATOM     27  C   UNL     1      14.822  12.405  17.191  0.00  0.00    -0.008 A 
ATOM     30  C   UNL     1      16.113  12.452  17.670  0.00  0.00    +0.011 A 
ATOM     33  C   UNL     1      16.282  13.470  18.653  0.00  0.00    +0.008 A 
ATOM     34  C   UNL     1      15.114  14.162  18.887  0.00  0.00    +0.045 A 
ENDBRANCH  22  27
ENDBRANCH  20  22
ENDBRANCH   9  20
ENDBRANCH  14  17
TORSDOF 9
ENDMDL
MODEL 3
REMARK VINA RESULT:      -6.4     28.561     31.796
REMARK  Name = 11882069
REMARK  11 active torsions:
REMARK  status: ('A' for Active; 'I' for Inactive)
REMARK    1  A    between atoms: S_2  and  C_35
REMARK    2  A    between atoms: S_2  and  C_38
REMARK    3  A    between atoms: N_8  and  C_13
REMARK    4  A    between atoms: N_9  and  C_20
REMARK    5  A    between atoms: N_10  and  C_28
REMARK    6  A    between atoms: N_11  and  C_29
REMARK    7  A    between atoms: C_14  and  C_17
REMARK    8  A    between atoms: C_18  and  C_19
REMARK    9  A    between atoms: C_20  and  C_22
REMARK   10  A    between atoms: C_20  and  C_24
REMARK   11  A    between atoms: C_22  and  C_27
REMARK                            x       y       z     vdW  Elec       q    Type
REMARK                         _______ _______ _______ _____ _____    ______ ____
ROOT
ATOM      4  O   UNL     1      -4.323  -8.423   9.407  0.00  0.00    -0.268 OA
ATOM      7  N   UNL     1      -4.667 -10.652   8.924  0.00  0.00    -0.283 N 
ATOM     13  C   UNL     1      -5.151 -11.806   6.909  0.00  0.00    +0.105 C 
ATOM     14  C   UNL     1      -5.160 -10.426   7.568  0.00  0.00    +0.182 C 
ATOM     15  C   UNL     1      -5.345 -12.762   8.089  0.00  0.00    +0.043 C 
ATOM     16  C   UNL     1      -4.601 -12.082   9.229  0.00  0.00    +0.111 C 
ATOM     18  C   UNL     1      -4.231  -9.605   9.741  0.00  0.00    +0.264 C 
ENDROOT
BRANCH  13   8
ATOM      5  O   UNL     1      -4.691 -13.662   4.777  0.00  0.00    -0.252 OA
ATOM      8  N   UNL     1      -3.897 -12.057   6.240  0.00  0.00    -0.294 N 
ATOM     11  N   UNL     1      -2.435 -13.012   4.750  0.00  0.00    -0.269 N 
ATOM     21  C   UNL     1      -3.757 -12.985   5.202  0.00  0.00    +0.304 C 
ATOM     39  H   UNL     1      -3.092 -11.490   6.487  0.00  0.00    +0.151 HD
ATOM     41  H   UNL     1      -1.781 -12.386   5.213  0.00  0.00    +0.156 HD
BRANCH  11  29
ATOM     29  C   UNL     1      -1.885 -13.812   3.719  0.00  0.00    +0.036 A 
ATOM     31  C   UNL     1      -2.151 -13.508   2.384  0.00  0.00    +0.038 A 
ATOM     32  C   UNL     1      -1.079 -14.903   4.040  0.00  0.00    +0.023 A 
ATOM     35  C   UNL     1      -1.609 -14.295   1.369  0.00  0.00    +0.009 A 
ATOM     36  C   UNL     1      -0.537 -15.691   3.024  0.00  0.00    +0.003 A 
ATOM     37  C   UNL     1      -0.802 -15.387   1.689  0.00  0.00    +0.015 A 
BRANCH  35   2
ATOM      2  S   UNL     1      -1.944 -13.908  -0.338  0.00  0.00    -0.129 S 
ATOM     38  C   UNL     1      -3.432 -12.877  -0.196  0.00  0.00    +0.090 C 
ENDBRANCH  35   2
ENDBRANCH  11  29
ENDBRANCH  13   8
BRANCH  18  19
ATOM     10  N   UNL     1      -4.419 -10.149  12.177  0.00  0.00    -0.346 N 
ATOM     19  C   UNL     1      -3.679  -9.978  11.037  0.00  0.00    +0.104 A 
ATOM     23  C   UNL     1      -2.360 -10.220  11.350  0.00  0.00    +0.032 A 
ATOM     25  C   UNL     1      -3.592 -10.497  13.213  0.00  0.00    +0.086 A 
ATOM     26  C   UNL     1      -2.304 -10.548  12.727  0.00  0.00    +0.020 A 
ATOM     28  C   UNL     1      -5.852  -9.992  12.289  0.00  0.00    +0.149 C 
ENDBRANCH  18  19
BRANCH  14  17
ATOM      3  O   UNL     1      -7.467 -10.574   8.165  0.00  0.00    -0.274 OA
ATOM      9  N   UNL     1      -6.672  -8.602   7.217  0.00  0.00    -0.302 N 
ATOM     17  C   UNL     1      -6.557  -9.894   7.697  0.00  0.00    +0.236 C 
ATOM     40  H   UNL     1      -5.866  -8.167   6.778  0.00  0.00    +0.150 HD
BRANCH   9  20
ATOM     20  C   UNL     1      -7.919  -7.871   7.207  0.00  0.00    +0.163 C 
BRANCH  20  24
ATOM      6  O   UNL     1      -9.408  -7.315   5.368  0.00  0.00    -0.274 OA
ATOM     12  N   UNL     1      -7.197  -7.732   4.904  0.00  0.00    -0.328 N 
ATOM     24  C   UNL     1      -8.280  -7.624   5.750  0.00  0.00    +0.231 C 
ATOM     42  H   UNL     1      -7.297  -7.576   3.907  0.00  0.00    +0.145 HD
ATOM     43  H   UNL     1      -6.270  -7.985   5.233  0.00  0.00    +0.145 HD
ENDBRANCH  20  24
BRANCH  20  22
ATOM     22  C   UNL     1      -7.821  -6.542   7.967  0.00  0.00    +0.074 C 
BRANCH  22  27
ATOM      1  S   UNL     1     -10.297  -7.268   9.019  0.00  0.00    -0.102 S 
ATOM     27  C   UNL     1      -9.156  -6.094   8.514  0.00  0.00    -0.008 A 
ATOM     30  C   UNL     1      -9.628  -4.811   8.677  0.00  0.00    +0.011 A 
ATOM     33  C   UNL     1     -10.944  -4.790   9.225  0.00  0.00    +0.008 A 
ATOM     34  C   UNL     1     -11.427  -6.059   9.459  0.00  0.00    +0.045 A 
ENDBRANCH  22  27
ENDBRANCH  20  22
ENDBRANCH   9  20
ENDBRANCH  14  17
TORSDOF 9
ENDMDL
MODEL 4
REMARK VINA RESULT:      -6.2     28.393     31.509
REMARK  Name = 11882069
REMARK  11 active torsions:
REMARK  status: ('A' for Active; 'I' for Inactive)
REMARK    1  A    between atoms: S_2  and  C_35
REMARK    2  A    between atoms: S_2  and  C_38
REMARK    3  A    between atoms: N_8  and  C_13
REMARK    4  A    between atoms: N_9  and  C_20
REMARK    5  A    between atoms: N_10  and  C_28
REMARK    6  A    between atoms: N_11  and  C_29
REMARK    7  A    between atoms: C_14  and  C_17
REMARK    8  A    between atoms: C_18  and  C_19
REMARK    9  A    between atoms: C_20  and  C_22
REMARK   10  A    between atoms: C_20  and  C_24
REMARK   11  A    between atoms: C_22  and  C_27
REMARK                            x       y       z     vdW  Elec       q    Type
REMARK                         _______ _______ _______ _____ _____    ______ ____
ROOT
ATOM      4  O   UNL     1      -4.800  -8.237  10.628  0.00  0.00    -0.268 OA
ATOM      7  N   UNL     1      -5.403 -10.353   9.938  0.00  0.00    -0.283 N 
ATOM     13  C   UNL     1      -5.820 -11.292   7.800  0.00  0.00    +0.105 C 
ATOM     14  C   UNL     1      -5.705  -9.971   8.561  0.00  0.00    +0.182 C 
ATOM     15  C   UNL     1      -6.279 -12.280   8.875  0.00  0.00    +0.043 C 
ATOM     16  C   UNL     1      -5.576 -11.793  10.135  0.00  0.00    +0.111 C 
ATOM     18  C   UNL     1      -4.915  -9.438  10.875  0.00  0.00    +0.264 C 
ENDROOT
BRANCH  13   8
ATOM      5  O   UNL     1      -5.388 -12.643   5.312  0.00  0.00    -0.252 OA
ATOM      8  N   UNL     1      -4.549 -11.686   7.242  0.00  0.00    -0.294 N 
ATOM     11  N   UNL     1      -3.079 -12.598   5.734  0.00  0.00    -0.269 N 
ATOM     21  C   UNL     1      -4.424 -12.345   6.014  0.00  0.00    +0.304 C 
ATOM     39  H   UNL     1      -3.700 -11.416   7.730  0.00  0.00    +0.151 HD
ATOM     41  H   UNL     1      -2.401 -12.287   6.425  0.00  0.00    +0.156 HD
BRANCH  11  29
ATOM     29  C   UNL     1      -2.535 -13.242   4.597  0.00  0.00    +0.036 A 
ATOM     31  C   UNL     1      -1.747 -14.382   4.751  0.00  0.00    +0.038 A 
ATOM     32  C   UNL     1      -2.788 -12.736   3.322  0.00  0.00    +0.023 A 
ATOM     35  C   UNL     1      -1.211 -15.017   3.630  0.00  0.00    +0.009 A 
ATOM     36  C   UNL     1      -2.253 -13.370   2.201  0.00  0.00    +0.003 A 
ATOM     37  C   UNL     1      -1.465 -14.510   2.356  0.00  0.00    +0.015 A 
BRANCH  35   2
ATOM      2  S   UNL     1      -0.205 -16.475   3.825  0.00  0.00    -0.129 S 
ATOM     38  C   UNL     1       0.091 -16.951   2.099  0.00  0.00    +0.090 C 
ENDBRANCH  35   2
ENDBRANCH  11  29
ENDBRANCH  13   8
BRANCH  18  19
ATOM     10  N   UNL     1      -3.314 -10.381  12.552  0.00  0.00    -0.346 N 
ATOM     19  C   UNL     1      -4.569  -9.971  12.186  0.00  0.00    +0.104 A 
ATOM     23  C   UNL     1      -5.405 -10.159  13.263  0.00  0.00    +0.032 A 
ATOM     25  C   UNL     1      -3.337 -10.827  13.848  0.00  0.00    +0.086 A 
ATOM     26  C   UNL     1      -4.626 -10.701  14.315  0.00  0.00    +0.020 A 
ATOM     28  C   UNL     1      -2.135 -10.353  11.715  0.00  0.00    +0.149 C 
ENDBRANCH  18  19
BRANCH  14  17
ATOM      3  O   UNL     1      -7.870  -9.484   9.443  0.00  0.00    -0.274 OA
ATOM      9  N   UNL     1      -7.132  -8.327   7.562  0.00  0.00    -0.302 N 
ATOM     17  C   UNL     1      -7.017  -9.244   8.592  0.00  0.00    +0.236 C 
ATOM     40  H   UNL     1      -6.393  -8.272   6.868  0.00  0.00    +0.150 HD
BRANCH   9  20
ATOM     20  C   UNL     1      -8.310  -7.515   7.355  0.00  0.00    +0.163 C 
BRANCH  20  24
ATOM      6  O   UNL     1      -9.543  -6.996   5.326  0.00  0.00    -0.274 OA
ATOM     12  N   UNL     1      -7.353  -7.665   5.140  0.00  0.00    -0.328 N 
ATOM     24  C   UNL     1      -8.498  -7.373   5.852  0.00  0.00    +0.231 C 
ATOM     42  H   UNL     1      -7.338  -7.594   4.128  0.00  0.00    +0.145 HD
ATOM     43  H   UNL     1      -6.495  -7.972   5.587  0.00  0.00    +0.145 HD
ENDBRANCH  20  24
BRANCH  20  22
ATOM     22  C   UNL     1      -8.187  -6.134   8.012  0.00  0.00    +0.074 C 
BRANCH  22  27
ATOM      1  S   UNL     1     -10.653  -6.813   9.116  0.00  0.00    -0.102 S 
ATOM     27  C   UNL     1      -9.494  -5.661   8.602  0.00  0.00    -0.008 A 
ATOM     30  C   UNL     1      -9.926  -4.369   8.802  0.00  0.00    +0.011 A 
ATOM     33  C   UNL     1     -11.226  -4.323   9.386  0.00  0.00    +0.008 A 
ATOM     34  C   UNL     1     -11.738  -5.583   9.608  0.00  0.00    +0.045 A 
ENDBRANCH  22  27
ENDBRANCH  20  22
ENDBRANCH   9  20
ENDBRANCH  14  17
TORSDOF 9
ENDMDL
MODEL 5
REMARK VINA RESULT:      -6.1     25.852     28.372
REMARK  Name = 11882069
REMARK  11 active torsions:
REMARK  status: ('A' for Active; 'I' for Inactive)
REMARK    1  A    between atoms: S_2  and  C_35
REMARK    2  A    between atoms: S_2  and  C_38
REMARK    3  A    between atoms: N_8  and  C_13
REMARK    4  A    between atoms: N_9  and  C_20
REMARK    5  A    between atoms: N_10  and  C_28
REMARK    6  A    between atoms: N_11  and  C_29
REMARK    7  A    between atoms: C_14  and  C_17
REMARK    8  A    between atoms: C_18  and  C_19
REMARK    9  A    between atoms: C_20  and  C_22
REMARK   10  A    between atoms: C_20  and  C_24
REMARK   11  A    between atoms: C_22  and  C_27
REMARK                            x       y       z     vdW  Elec       q    Type
REMARK                         _______ _______ _______ _____ _____    ______ ____
ROOT
ATOM      4  O   UNL     1      16.559  -4.887  -2.682  0.00  0.00    -0.268 OA
ATOM      7  N   UNL     1      16.988  -6.956  -3.606  0.00  0.00    -0.283 N 
ATOM     13  C   UNL     1      18.098  -8.886  -2.788  0.00  0.00    +0.105 C 
ATOM     14  C   UNL     1      17.919  -7.384  -2.565  0.00  0.00    +0.182 C 
ATOM     15  C   UNL     1      17.854  -9.052  -4.290  0.00  0.00    +0.043 C 
ATOM     16  C   UNL     1      16.783  -8.014  -4.597  0.00  0.00    +0.111 C 
ATOM     18  C   UNL     1      16.327  -5.726  -3.553  0.00  0.00    +0.264 C 
ENDROOT
BRANCH  13   8
ATOM      5  O   UNL     1      18.676 -10.994  -0.938  0.00  0.00    -0.252 OA
ATOM      8  N   UNL     1      17.141  -9.646  -2.021  0.00  0.00    -0.294 N 
ATOM     11  N   UNL     1      16.374 -11.220  -0.535  0.00  0.00    -0.269 N 
ATOM     21  C   UNL     1      17.508 -10.665  -1.134  0.00  0.00    +0.304 C 
ATOM     39  H   UNL     1      16.161  -9.389  -2.075  0.00  0.00    +0.151 HD
ATOM     41  H   UNL     1      15.476 -10.831  -0.810  0.00  0.00    +0.156 HD
BRANCH  11  29
ATOM     29  C   UNL     1      16.318 -12.267   0.414  0.00  0.00    +0.036 A 
ATOM     31  C   UNL     1      15.836 -12.019   1.699  0.00  0.00    +0.038 A 
ATOM     32  C   UNL     1      16.745 -13.548   0.064  0.00  0.00    +0.023 A 
ATOM     35  C   UNL     1      15.780 -13.053   2.634  0.00  0.00    +0.009 A 
ATOM     36  C   UNL     1      16.690 -14.581   0.999  0.00  0.00    +0.003 A 
ATOM     37  C   UNL     1      16.208 -14.333   2.284  0.00  0.00    +0.015 A 
BRANCH  35   2
ATOM      2  S   UNL     1      15.163 -12.739   4.276  0.00  0.00    -0.129 S 
ATOM     38  C   UNL     1      16.248 -13.787   5.285  0.00  0.00    +0.090 C 
ENDBRANCH  35   2
ENDBRANCH  11  29
ENDBRANCH  13   8
BRANCH  18  19
ATOM     10  N   UNL     1      14.001  -5.607  -4.472  0.00  0.00    -0.346 N 
ATOM     19  C   UNL     1      15.357  -5.463  -4.609  0.00  0.00    +0.104 A 
ATOM     23  C   UNL     1      15.608  -5.039  -5.894  0.00  0.00    +0.032 A 
ATOM     25  C   UNL     1      13.383  -5.280  -5.651  0.00  0.00    +0.086 A 
ATOM     26  C   UNL     1      14.360  -4.923  -6.554  0.00  0.00    +0.020 A 
ATOM     28  C   UNL     1      13.310  -6.035  -3.275  0.00  0.00    +0.149 C 
ENDBRANCH  18  19
BRANCH  14  17
ATOM      3  O   UNL     1      20.042  -7.041  -3.602  0.00  0.00    -0.274 OA
ATOM      9  N   UNL     1      19.307  -5.513  -2.007  0.00  0.00    -0.302 N 
ATOM     17  C   UNL     1      19.201  -6.642  -2.801  0.00  0.00    +0.236 C 
ATOM     40  H   UNL     1      18.582  -5.326  -1.320  0.00  0.00    +0.150 HD
BRANCH   9  20
ATOM     20  C   UNL     1      20.457  -4.638  -2.026  0.00  0.00    +0.163 C 
BRANCH  20  24
ATOM      6  O   UNL     1      20.643  -4.880   0.385  0.00  0.00    -0.274 OA
ATOM     12  N   UNL     1      22.552  -5.033  -0.885  0.00  0.00    -0.328 N 
ATOM     24  C   UNL     1      21.196  -4.843  -0.713  0.00  0.00    +0.231 C 
ATOM     42  H   UNL     1      23.159  -5.196  -0.090  0.00  0.00    +0.145 HD
ATOM     43  H   UNL     1      22.995  -5.003  -1.798  0.00  0.00    +0.145 HD
ENDBRANCH  20  24
BRANCH  20  22
ATOM     22  C   UNL     1      20.065  -3.165  -2.196  0.00  0.00    +0.074 C 
BRANCH  22  27
ATOM      1  S   UNL     1      19.983  -3.553  -4.954  0.00  0.00    -0.102 S 
ATOM     27  C   UNL     1      19.346  -2.910  -3.500  0.00  0.00    -0.008 A 
ATOM     30  C   UNL     1      18.189  -2.195  -3.715  0.00  0.00    +0.011 A 
ATOM     33  C   UNL     1      17.818  -2.176  -5.091  0.00  0.00    +0.008 A 
ATOM     34  C   UNL     1      18.708  -2.876  -5.876  0.00  0.00    +0.045 A 
ENDBRANCH  22  27
ENDBRANCH  20  22
ENDBRANCH   9  20
ENDBRANCH  14  17
TORSDOF 9
ENDMDL
MODEL 6
REMARK VINA RESULT:      -6.1     29.376     33.250
REMARK  Name = 11882069
REMARK  11 active torsions:
REMARK  status: ('A' for Active; 'I' for Inactive)
REMARK    1  A    between atoms: S_2  and  C_35
REMARK    2  A    between atoms: S_2  and  C_38
REMARK    3  A    between atoms: N_8  and  C_13
REMARK    4  A    between atoms: N_9  and  C_20
REMARK    5  A    between atoms: N_10  and  C_28
REMARK    6  A    between atoms: N_11  and  C_29
REMARK    7  A    between atoms: C_14  and  C_17
REMARK    8  A    between atoms: C_18  and  C_19
REMARK    9  A    between atoms: C_20  and  C_22
REMARK   10  A    between atoms: C_20  and  C_24
REMARK   11  A    between atoms: C_22  and  C_27
REMARK                            x       y       z     vdW  Elec       q    Type
REMARK                         _______ _______ _______ _____ _____    ______ ____
ROOT
ATOM      4  O   UNL     1      -8.391  -8.851  17.595  0.00  0.00    -0.268 OA
ATOM      7  N   UNL     1      -9.817 -10.663  17.538  0.00  0.00    -0.283 N 
ATOM     13  C   UNL     1      -9.951 -12.648  18.829  0.00  0.00    +0.105 C 
ATOM     14  C   UNL     1      -9.028 -11.491  18.446  0.00  0.00    +0.182 C 
ATOM     15  C   UNL     1     -10.874 -12.782  17.615  0.00  0.00    +0.043 C 
ATOM     16  C   UNL     1     -11.047 -11.347  17.136  0.00  0.00    +0.111 C 
ATOM     18  C   UNL     1      -9.449  -9.354  17.214  0.00  0.00    +0.264 C 
ENDROOT
BRANCH  13   8
ATOM      5  O   UNL     1     -11.291 -14.518  20.535  0.00  0.00    -0.252 OA
ATOM      8  N   UNL     1     -10.706 -12.342  20.021  0.00  0.00    -0.294 N 
ATOM     11  N   UNL     1     -11.984 -12.729  21.888  0.00  0.00    -0.269 N 
ATOM     21  C   UNL     1     -11.332 -13.319  20.802  0.00  0.00    +0.304 C 
ATOM     39  H   UNL     1     -10.730 -11.380  20.347  0.00  0.00    +0.151 HD
ATOM     41  H   UNL     1     -11.921 -11.717  21.963  0.00  0.00    +0.156 HD
BRANCH  11  29
ATOM     29  C   UNL     1     -12.729 -13.370  22.906  0.00  0.00    +0.036 A 
ATOM     31  C   UNL     1     -12.086 -14.194  23.829  0.00  0.00    +0.038 A 
ATOM     32  C   UNL     1     -14.109 -13.177  22.985  0.00  0.00    +0.023 A 
ATOM     35  C   UNL     1     -12.821 -14.825  24.832  0.00  0.00    +0.009 A 
ATOM     36  C   UNL     1     -14.844 -13.808  23.989  0.00  0.00    +0.003 A 
ATOM     37  C   UNL     1     -14.200 -14.631  24.912  0.00  0.00    +0.015 A 
BRANCH  35   2
ATOM      2  S   UNL     1     -12.000 -15.876  26.014  0.00  0.00    -0.129 S 
ATOM     38  C   UNL     1     -13.126 -15.783  27.435  0.00  0.00    +0.090 C 
ENDBRANCH  35   2
ENDBRANCH  11  29
ENDBRANCH  13   8
BRANCH  18  19
ATOM     10  N   UNL     1     -10.371  -8.638  15.000  0.00  0.00    -0.346 N 
ATOM     19  C   UNL     1     -10.373  -8.608  16.370  0.00  0.00    +0.104 A 
ATOM     23  C   UNL     1     -11.383  -7.764  16.772  0.00  0.00    +0.032 A 
ATOM     25  C   UNL     1     -11.366  -7.826  14.522  0.00  0.00    +0.086 A 
ATOM     26  C   UNL     1     -12.012  -7.268  15.603  0.00  0.00    +0.020 A 
ATOM     28  C   UNL     1      -9.468  -9.405  14.170  0.00  0.00    +0.149 C 
ENDBRANCH  18  19
BRANCH  14  17
ATOM      3  O   UNL     1      -7.943 -12.857  16.816  0.00  0.00    -0.274 OA
ATOM      9  N   UNL     1      -6.672 -11.341  18.043  0.00  0.00    -0.302 N 
ATOM     17  C   UNL     1      -7.841 -11.977  17.667  0.00  0.00    +0.236 C 
ATOM     40  H   UNL     1      -6.697 -10.685  18.818  0.00  0.00    +0.150 HD
BRANCH   9  20
ATOM     20  C   UNL     1      -5.384 -11.645  17.461  0.00  0.00    +0.163 C 
BRANCH  20  24
ATOM      6  O   UNL     1      -4.198 -12.072  19.539  0.00  0.00    -0.274 OA
ATOM     12  N   UNL     1      -4.517 -13.816  18.077  0.00  0.00    -0.328 N 
ATOM     24  C   UNL     1      -4.628 -12.498  18.468  0.00  0.00    +0.231 C 
ATOM     42  H   UNL     1      -4.048 -14.496  18.666  0.00  0.00    +0.145 HD
ATOM     43  H   UNL     1      -4.879 -14.155  17.191  0.00  0.00    +0.145 HD
ENDBRANCH  20  24
BRANCH  20  22
ATOM     22  C   UNL     1      -4.585 -10.380  17.123  0.00  0.00    +0.074 C 
BRANCH  22  27
ATOM      1  S   UNL     1      -3.773 -10.945  14.518  0.00  0.00    -0.102 S 
ATOM     27  C   UNL     1      -3.443 -10.660  16.175  0.00  0.00    -0.008 A 
ATOM     30  C   UNL     1      -2.096 -10.727  16.452  0.00  0.00    +0.011 A 
ATOM     33  C   UNL     1      -1.323 -11.016  15.289  0.00  0.00    +0.008 A 
ATOM     34  C   UNL     1      -2.110 -11.158  14.168  0.00  0.00    +0.045 A 
ENDBRANCH  22  27
ENDBRANCH  20  22
ENDBRANCH   9  20
ENDBRANCH  14  17
TORSDOF 9
ENDMDL
MODEL 7
REMARK VINA RESULT:      -6.0     28.952     31.333
REMARK  Name = 11882069
REMARK  11 active torsions:
REMARK  status: ('A' for Active; 'I' for Inactive)
REMARK    1  A    between atoms: S_2  and  C_35
REMARK    2  A    between atoms: S_2  and  C_38
REMARK    3  A    between atoms: N_8  and  C_13
REMARK    4  A    between atoms: N_9  and  C_20
REMARK    5  A    between atoms: N_10  and  C_28
REMARK    6  A    between atoms: N_11  and  C_29
REMARK    7  A    between atoms: C_14  and  C_17
REMARK    8  A    between atoms: C_18  and  C_19
REMARK    9  A    between atoms: C_20  and  C_22
REMARK   10  A    between atoms: C_20  and  C_24
REMARK   11  A    between atoms: C_22  and  C_27
REMARK                            x       y       z     vdW  Elec       q    Type
REMARK                         _______ _______ _______ _____ _____    ______ ____
ROOT
ATOM      4  O   UNL     1      -7.206 -12.038   8.434  0.00  0.00    -0.268 OA
ATOM      7  N   UNL     1      -5.673 -10.484   9.180  0.00  0.00    -0.283 N 
ATOM     13  C   UNL     1      -5.533  -9.183  11.158  0.00  0.00    +0.105 C 
ATOM     14  C   UNL     1      -6.487 -10.010  10.296  0.00  0.00    +0.182 C 
ATOM     15  C   UNL     1      -4.502  -8.668  10.150  0.00  0.00    +0.043 C 
ATOM     16  C   UNL     1      -4.374  -9.811   9.152  0.00  0.00    +0.111 C 
ATOM     18  C   UNL     1      -6.091 -11.523   8.344  0.00  0.00    +0.264 C 
ENDROOT
BRANCH  13   8
ATOM      5  O   UNL     1      -6.445  -9.577  13.844  0.00  0.00    -0.252 OA
ATOM      8  N   UNL     1      -4.906  -9.997  12.171  0.00  0.00    -0.294 N 
ATOM     11  N   UNL     1      -4.604 -10.983  14.222  0.00  0.00    -0.269 N 
ATOM     21  C   UNL     1      -5.419 -10.137  13.465  0.00  0.00    +0.304 C 
ATOM     39  H   UNL     1      -4.091 -10.546  11.917  0.00  0.00    +0.151 HD
ATOM     41  H   UNL     1      -3.785 -11.365  13.756  0.00  0.00    +0.156 HD
BRANCH  11  29
ATOM     29  C   UNL     1      -4.775 -11.378  15.570  0.00  0.00    +0.036 A 
ATOM     31  C   UNL     1      -5.914 -12.089  15.949  0.00  0.00    +0.038 A 
ATOM     32  C   UNL     1      -3.805 -11.054  16.519  0.00  0.00    +0.023 A 
ATOM     35  C   UNL     1      -6.082 -12.478  17.278  0.00  0.00    +0.009 A 
ATOM     36  C   UNL     1      -3.974 -11.443  17.848  0.00  0.00    +0.003 A 
ATOM     37  C   UNL     1      -5.112 -12.155  18.227  0.00  0.00    +0.015 A 
BRANCH  35   2
ATOM      2  S   UNL     1      -7.535 -13.388  17.765  0.00  0.00    -0.129 S 
ATOM     38  C   UNL     1      -8.859 -12.396  17.018  0.00  0.00    +0.090 C 
ENDBRANCH  35   2
ENDBRANCH  11  29
ENDBRANCH  13   8
BRANCH  18  19
ATOM     10  N   UNL     1      -4.276 -13.011   7.470  0.00  0.00    -0.346 N 
ATOM     19  C   UNL     1      -5.143 -11.959   7.326  0.00  0.00    +0.104 A 
ATOM     23  C   UNL     1      -4.944 -11.418   6.076  0.00  0.00    +0.032 A 
ATOM     25  C   UNL     1      -3.528 -13.149   6.330  0.00  0.00    +0.086 A 
ATOM     26  C   UNL     1      -3.922 -12.170   5.446  0.00  0.00    +0.020 A 
ATOM     28  C   UNL     1      -4.157 -13.857   8.637  0.00  0.00    +0.149 C 
ENDBRANCH  18  19
BRANCH  14  17
ATOM      3  O   UNL     1      -8.533  -8.780  10.373  0.00  0.00    -0.274 OA
ATOM      9  N   UNL     1      -7.352  -8.877   8.370  0.00  0.00    -0.302 N 
ATOM     17  C   UNL     1      -7.570  -9.153   9.708  0.00  0.00    +0.236 C 
ATOM     40  H   UNL     1      -6.560  -9.308   7.902  0.00  0.00    +0.150 HD
BRANCH   9  20
ATOM     20  C   UNL     1      -8.261  -8.092   7.566  0.00  0.00    +0.163 C 
BRANCH  20  24
ATOM      6  O   UNL     1      -7.953  -9.662   5.738  0.00  0.00    -0.274 OA
ATOM     12  N   UNL     1      -7.999  -7.415   5.260  0.00  0.00    -0.328 N 
ATOM     24  C   UNL     1      -8.040  -8.496   6.117  0.00  0.00    +0.231 C 
ATOM     42  H   UNL     1      -7.873  -7.547   4.262  0.00  0.00    +0.145 HD
ATOM     43  H   UNL     1      -8.075  -6.457   5.586  0.00  0.00    +0.145 HD
ENDBRANCH  20  24
BRANCH  20  22
ATOM     22  C   UNL     1      -8.037  -6.584   7.741  0.00  0.00    +0.074 C 
BRANCH  22  27
ATOM      1  S   UNL     1     -10.769  -6.711   8.275  0.00  0.00    -0.102 S 
ATOM     27  C   UNL     1      -9.275  -5.875   8.240  0.00  0.00    -0.008 A 
ATOM     30  C   UNL     1      -9.395  -4.582   8.697  0.00  0.00    +0.011 A 
ATOM     33  C   UNL     1     -10.733  -4.272   9.082  0.00  0.00    +0.008 A 
ATOM     34  C   UNL     1     -11.583  -5.342   8.903  0.00  0.00    +0.045 A 
ENDBRANCH  22  27
ENDBRANCH  20  22
ENDBRANCH   9  20
ENDBRANCH  14  17
TORSDOF 9
ENDMDL
MODEL 8
REMARK VINA RESULT:      -5.9      3.245     10.647
REMARK  Name = 11882069
REMARK  11 active torsions:
REMARK  status: ('A' for Active; 'I' for Inactive)
REMARK    1  A    between atoms: S_2  and  C_35
REMARK    2  A    between atoms: S_2  and  C_38
REMARK    3  A    between atoms: N_8  and  C_13
REMARK    4  A    between atoms: N_9  and  C_20
REMARK    5  A    between atoms: N_10  and  C_28
REMARK    6  A    between atoms: N_11  and  C_29
REMARK    7  A    between atoms: C_14  and  C_17
REMARK    8  A    between atoms: C_18  and  C_19
REMARK    9  A    between atoms: C_20  and  C_22
REMARK   10  A    between atoms: C_20  and  C_24
REMARK   11  A    between atoms: C_22  and  C_27
REMARK                            x       y       z     vdW  Elec       q    Type
REMARK                         _______ _______ _______ _____ _____    ______ ____
ROOT
ATOM      4  O   UNL     1      21.699   5.300  24.603  0.00  0.00    -0.268 OA
ATOM      7  N   UNL     1      21.521   6.467  22.621  0.00  0.00    -0.283 N 
ATOM     13  C   UNL     1      20.200   6.145  20.677  0.00  0.00    +0.105 C 
ATOM     14  C   UNL     1      20.732   5.450  21.931  0.00  0.00    +0.182 C 
ATOM     15  C   UNL     1      21.261   7.210  20.387  0.00  0.00    +0.043 C 
ATOM     16  C   UNL     1      21.726   7.641  21.772  0.00  0.00    +0.111 C 
ATOM     18  C   UNL     1      21.911   6.326  23.956  0.00  0.00    +0.264 C 
ENDROOT
BRANCH  13   8
ATOM      5  O   UNL     1      17.808   5.751  19.152  0.00  0.00    -0.252 OA
ATOM      8  N   UNL     1      18.913   6.750  20.921  0.00  0.00    -0.294 N 
ATOM     11  N   UNL     1      16.689   7.223  20.599  0.00  0.00    -0.269 N 
ATOM     21  C   UNL     1      17.789   6.502  20.124  0.00  0.00    +0.304 C 
ATOM     39  H   UNL     1      18.797   7.331  21.745  0.00  0.00    +0.151 HD
ATOM     41  H   UNL     1      16.843   7.804  21.419  0.00  0.00    +0.156 HD
BRANCH  11  29
ATOM     29  C   UNL     1      15.375   7.247  20.075  0.00  0.00    +0.036 A 
ATOM     31  C   UNL     1      14.299   6.860  20.873  0.00  0.00    +0.038 A 
ATOM     32  C   UNL     1      15.157   7.657  18.760  0.00  0.00    +0.023 A 
ATOM     35  C   UNL     1      13.003   6.885  20.357  0.00  0.00    +0.009 A 
ATOM     36  C   UNL     1      13.862   7.681  18.243  0.00  0.00    +0.003 A 
ATOM     37  C   UNL     1      12.786   7.295  19.041  0.00  0.00    +0.015 A 
BRANCH  35   2
ATOM      2  S   UNL     1      11.626   6.394  21.375  0.00  0.00    -0.129 S 
ATOM     38  C   UNL     1      11.129   7.977  22.110  0.00  0.00    +0.090 C 
ENDBRANCH  35   2
ENDBRANCH  11  29
ENDBRANCH  13   8
BRANCH  18  19
ATOM     10  N   UNL     1      22.011   8.486  25.218  0.00  0.00    -0.346 N 
ATOM     19  C   UNL     1      22.616   7.456  24.549  0.00  0.00    +0.104 A 
ATOM     23  C   UNL     1      23.973   7.693  24.548  0.00  0.00    +0.032 A 
ATOM     25  C   UNL     1      22.960   9.377  25.645  0.00  0.00    +0.086 A 
ATOM     26  C   UNL     1      24.191   8.909  25.241  0.00  0.00    +0.020 A 
ATOM     28  C   UNL     1      20.590   8.627  25.450  0.00  0.00    +0.149 C 
ENDBRANCH  18  19
BRANCH  14  17
ATOM      3  O   UNL     1      21.291   3.325  20.995  0.00  0.00    -0.274 OA
ATOM      9  N   UNL     1      22.966   4.590  22.003  0.00  0.00    -0.302 N 
ATOM     17  C   UNL     1      21.674   4.337  21.578  0.00  0.00    +0.236 C 
ATOM     40  H   UNL     1      23.149   5.427  22.548  0.00  0.00    +0.150 HD
BRANCH   9  20
ATOM     20  C   UNL     1      24.058   3.663  21.806  0.00  0.00    +0.163 C 
BRANCH  20  24
ATOM      6  O   UNL     1      24.805   4.517  19.657  0.00  0.00    -0.274 OA
ATOM     12  N   UNL     1      24.010   2.364  19.768  0.00  0.00    -0.328 N 
ATOM     24  C   UNL     1      24.322   3.594  20.310  0.00  0.00    +0.231 C 
ATOM     42  H   UNL     1      24.153   2.179  18.781  0.00  0.00    +0.145 HD
ATOM     43  H   UNL     1      23.615   1.609  20.319  0.00  0.00    +0.145 HD
ENDBRANCH  20  24
BRANCH  20  22
ATOM     22  C   UNL     1      23.744   2.268  22.360  0.00  0.00    +0.074 C 
BRANCH  22  27
ATOM      1  S   UNL     1      25.096   1.864  24.762  0.00  0.00    -0.102 S 
ATOM     27  C   UNL     1      24.926   1.653  23.071  0.00  0.00    -0.008 A 
ATOM     30  C   UNL     1      25.953   0.906  22.538  0.00  0.00    +0.011 A 
ATOM     33  C   UNL     1      26.892   0.500  23.531  0.00  0.00    +0.008 A 
ATOM     34  C   UNL     1      26.546   0.954  24.785  0.00  0.00    +0.045 A 
ENDBRANCH  22  27
ENDBRANCH  20  22
ENDBRANCH   9  20
ENDBRANCH  14  17
TORSDOF 9
ENDMDL
MODEL 9
REMARK VINA RESULT:      -5.9     27.721     30.952
REMARK  Name = 11882069
REMARK  11 active torsions:
REMARK  status: ('A' for Active; 'I' for Inactive)
REMARK    1  A    between atoms: S_2  and  C_35
REMARK    2  A    between atoms: S_2  and  C_38
REMARK    3  A    between atoms: N_8  and  C_13
REMARK    4  A    between atoms: N_9  and  C_20
REMARK    5  A    between atoms: N_10  and  C_28
REMARK    6  A    between atoms: N_11  and  C_29
REMARK    7  A    between atoms: C_14  and  C_17
REMARK    8  A    between atoms: C_18  and  C_19
REMARK    9  A    between atoms: C_20  and  C_22
REMARK   10  A    between atoms: C_20  and  C_24
REMARK   11  A    between atoms: C_22  and  C_27
REMARK                            x       y       z     vdW  Elec       q    Type
REMARK                         _______ _______ _______ _____ _____    ______ ____
ROOT
ATOM      4  O   UNL     1      -4.134 -14.020  12.500  0.00  0.00    -0.268 OA
ATOM      7  N   UNL     1      -2.898 -12.542  13.767  0.00  0.00    -0.283 N 
ATOM     13  C   UNL     1      -3.287 -10.312  14.475  0.00  0.00    +0.105 C 
ATOM     14  C   UNL     1      -3.725 -11.376  13.469  0.00  0.00    +0.182 C 
ATOM     15  C   UNL     1      -1.829 -10.678  14.765  0.00  0.00    +0.043 C 
ATOM     16  C   UNL     1      -1.821 -12.200  14.697  0.00  0.00    +0.111 C 
ATOM     18  C   UNL     1      -3.206 -13.817  13.284  0.00  0.00    +0.264 C 
ENDROOT
BRANCH  13   8
ATOM      5  O   UNL     1      -6.111  -9.880  14.678  0.00  0.00    -0.252 OA
ATOM      8  N   UNL     1      -4.084 -10.369  15.677  0.00  0.00    -0.294 N 
ATOM     11  N   UNL     1      -5.965 -10.267  16.989  0.00  0.00    -0.269 N 
ATOM     21  C   UNL     1      -5.465 -10.145  15.690  0.00  0.00    +0.304 C 
ATOM     39  H   UNL     1      -3.636 -10.649  16.544  0.00  0.00    +0.151 HD
ATOM     41  H   UNL     1      -5.292 -10.491  17.718  0.00  0.00    +0.156 HD
BRANCH  11  29
ATOM     29  C   UNL     1      -7.304 -10.116  17.423  0.00  0.00    +0.036 A 
ATOM     31  C   UNL     1      -8.075  -9.055  16.948  0.00  0.00    +0.038 A 
ATOM     32  C   UNL     1      -7.851 -11.028  18.325  0.00  0.00    +0.023 A 
ATOM     35  C   UNL     1      -9.394  -8.907  17.375  0.00  0.00    +0.009 A 
ATOM     36  C   UNL     1      -9.170 -10.879  18.752  0.00  0.00    +0.003 A 
ATOM     37  C   UNL     1      -9.941  -9.819  18.277  0.00  0.00    +0.015 A 
BRANCH  35   2
ATOM      2  S   UNL     1     -10.383  -7.554  16.768  0.00  0.00    -0.129 S 
ATOM     38  C   UNL     1     -12.040  -8.292  16.739  0.00  0.00    +0.090 C 
ENDBRANCH  35   2
ENDBRANCH  11  29
ENDBRANCH  13   8
BRANCH  18  19
ATOM     10  N   UNL     1      -2.642 -15.748  14.773  0.00  0.00    -0.346 N 
ATOM     19  C   UNL     1      -2.349 -14.907  13.732  0.00  0.00    +0.104 A 
ATOM     23  C   UNL     1      -1.130 -15.283  13.216  0.00  0.00    +0.032 A 
ATOM     25  C   UNL     1      -1.628 -16.656  14.929  0.00  0.00    +0.086 A 
ATOM     26  C   UNL     1      -0.672 -16.390  13.973  0.00  0.00    +0.020 A 
ATOM     28  C   UNL     1      -3.834 -15.701  15.592  0.00  0.00    +0.149 C 
ENDBRANCH  18  19
BRANCH  14  17
ATOM      3  O   UNL     1      -2.260 -10.649  11.729  0.00  0.00    -0.274 OA
ATOM      9  N   UNL     1      -4.515 -10.964  11.245  0.00  0.00    -0.302 N 
ATOM     17  C   UNL     1      -3.399 -10.963  12.064  0.00  0.00    +0.236 C 
ATOM     40  H   UNL     1      -5.423 -11.165  11.653  0.00  0.00    +0.150 HD
BRANCH   9  20
ATOM     20  C   UNL     1      -4.474 -10.582   9.852  0.00  0.00    +0.163 C 
BRANCH  20  24
ATOM      6  O   UNL     1      -5.266  -8.452  10.713  0.00  0.00    -0.274 OA
ATOM     12  N   UNL     1      -4.378  -8.519   8.596  0.00  0.00    -0.328 N 
ATOM     24  C   UNL     1      -4.770  -9.092   9.787  0.00  0.00    +0.231 C 
ATOM     42  H   UNL     1      -4.504  -7.526   8.429  0.00  0.00    +0.145 HD
ATOM     43  H   UNL     1      -3.966  -9.058   7.840  0.00  0.00    +0.145 HD
ENDBRANCH  20  24
BRANCH  20  22
ATOM     22  C   UNL     1      -5.483 -11.366   9.003  0.00  0.00    +0.074 C 
BRANCH  22  27
ATOM      1  S   UNL     1      -5.109 -11.291   6.243  0.00  0.00    -0.102 S 
ATOM     27  C   UNL     1      -4.845 -11.990   7.784  0.00  0.00    -0.008 A 
ATOM     30  C   UNL     1      -4.036 -13.102   7.716  0.00  0.00    +0.011 A 
ATOM     33  C   UNL     1      -3.626 -13.385   6.380  0.00  0.00    +0.008 A 
ATOM     34  C   UNL     1      -4.139 -12.478   5.479  0.00  0.00    +0.045 A 
ENDBRANCH  22  27
ENDBRANCH  20  22
ENDBRANCH   9  20
ENDBRANCH  14  17
TORSDOF 9
ENDMDL
MODEL 10
REMARK VINA RESULT:      -5.9     14.025     17.314
REMARK  Name = 11882069
REMARK  11 active torsions:
REMARK  status: ('A' for Active; 'I' for Inactive)
REMARK    1  A    between atoms: S_2  and  C_35
REMARK    2  A    between atoms: S_2  and  C_38
REMARK    3  A    between atoms: N_8  and  C_13
REMARK    4  A    between atoms: N_9  and  C_20
REMARK    5  A    between atoms: N_10  and  C_28
REMARK    6  A    between atoms: N_11  and  C_29
REMARK    7  A    between atoms: C_14  and  C_17
REMARK    8  A    between atoms: C_18  and  C_19
REMARK    9  A    between atoms: C_20  and  C_22
REMARK   10  A    between atoms: C_20  and  C_24
REMARK   11  A    between atoms: C_22  and  C_27
REMARK                            x       y       z     vdW  Elec       q    Type
REMARK                         _______ _______ _______ _____ _____    ______ ____
ROOT
ATOM      4  O   UNL     1      11.264   4.620   3.209  0.00  0.00    -0.268 OA
ATOM      7  N   UNL     1      12.561   6.343   2.390  0.00  0.00    -0.283 N 
ATOM     13  C   UNL     1      13.742   8.110   3.443  0.00  0.00    +0.105 C 
ATOM     14  C   UNL     1      12.640   7.071   3.653  0.00  0.00    +0.182 C 
ATOM     15  C   UNL     1      13.700   8.369   1.935  0.00  0.00    +0.043 C 
ATOM     16  C   UNL     1      13.340   7.012   1.347  0.00  0.00    +0.111 C 
ATOM     18  C   UNL     1      11.901   5.116   2.278  0.00  0.00    +0.264 C 
ENDROOT
BRANCH  13   8
ATOM      5  O   UNL     1      15.999   9.638   4.320  0.00  0.00    -0.252 OA
ATOM      8  N   UNL     1      15.029   7.595   3.844  0.00  0.00    -0.294 N 
ATOM     11  N   UNL     1      17.200   7.639   4.588  0.00  0.00    -0.269 N 
ATOM     21  C   UNL     1      16.084   8.413   4.263  0.00  0.00    +0.304 C 
ATOM     39  H   UNL     1      15.157   6.588   3.889  0.00  0.00    +0.151 HD
ATOM     41  H   UNL     1      17.104   6.632   4.482  0.00  0.00    +0.156 HD
BRANCH  11  29
ATOM     29  C   UNL     1      18.462   8.084   5.050  0.00  0.00    +0.036 A 
ATOM     31  C   UNL     1      19.606   7.848   4.289  0.00  0.00    +0.038 A 
ATOM     32  C   UNL     1      18.559   8.760   6.266  0.00  0.00    +0.023 A 
ATOM     35  C   UNL     1      20.849   8.287   4.744  0.00  0.00    +0.009 A 
ATOM     36  C   UNL     1      19.802   9.200   6.721  0.00  0.00    +0.003 A 
ATOM     37  C   UNL     1      20.947   8.963   5.960  0.00  0.00    +0.015 A 
BRANCH  35   2
ATOM      2  S   UNL     1      22.313   7.988   3.772  0.00  0.00    -0.129 S 
ATOM     38  C   UNL     1      21.797   6.578   2.753  0.00  0.00    +0.090 C 
ENDBRANCH  35   2
ENDBRANCH  11  29
ENDBRANCH  13   8
BRANCH  18  19
ATOM     10  N   UNL     1      13.021   3.668   0.570  0.00  0.00    -0.346 N 
ATOM     19  C   UNL     1      11.976   4.453   0.983  0.00  0.00    +0.104 A 
ATOM     23  C   UNL     1      11.049   4.488  -0.034  0.00  0.00    +0.032 A 
ATOM     25  C   UNL     1      12.774   3.202  -0.694  0.00  0.00    +0.086 A 
ATOM     26  C   UNL     1      11.553   3.697  -1.096  0.00  0.00    +0.020 A 
ATOM     28  C   UNL     1      14.209   3.366   1.338  0.00  0.00    +0.149 C 
ENDBRANCH  18  19
BRANCH  14  17
ATOM      3  O   UNL     1      10.578   8.022   2.914  0.00  0.00    -0.274 OA
ATOM      9  N   UNL     1      11.038   7.962   5.195  0.00  0.00    -0.302 N 
ATOM     17  C   UNL     1      11.306   7.727   3.859  0.00  0.00    +0.236 C 
ATOM     40  H   UNL     1      11.753   7.748   5.885  0.00  0.00    +0.150 HD
BRANCH   9  20
ATOM     20  C   UNL     1       9.829   8.605   5.658  0.00  0.00    +0.163 C 
BRANCH  20  24
ATOM      6  O   UNL     1       9.379  10.041   7.566  0.00  0.00    -0.274 OA
ATOM     12  N   UNL     1      11.508   9.224   7.284  0.00  0.00    -0.328 N 
ATOM     24  C   UNL     1      10.187   9.380   6.916  0.00  0.00    +0.231 C 
ATOM     42  H   UNL     1      11.874   9.676   8.115  0.00  0.00    +0.145 HD
ATOM     43  H   UNL     1      12.164   8.673   6.740  0.00  0.00    +0.145 HD
ENDBRANCH  20  24
BRANCH  20  22
ATOM     22  C   UNL     1       8.710   7.598   5.950  0.00  0.00    +0.074 C 
BRANCH  22  27
ATOM      1  S   UNL     1       9.793   5.075   6.425  0.00  0.00    -0.102 S 
ATOM     27  C   UNL     1       9.125   6.557   6.964  0.00  0.00    -0.008 A 
ATOM     30  C   UNL     1       9.042   6.618   8.337  0.00  0.00    +0.011 A 
ATOM     33  C   UNL     1       9.535   5.432   8.956  0.00  0.00    +0.008 A 
ATOM     34  C   UNL     1       9.974   4.511   8.032  0.00  0.00    +0.045 A 
ENDBRANCH  22  27
ENDBRANCH  20  22
ENDBRANCH   9  20
ENDBRANCH  14  17
TORSDOF 9
ENDMDL
