MODEL 1
REMARK VINA RESULT:      -6.1      0.000      0.000
REMARK  Name = 75536952
REMARK  3 active torsions:
REMARK  status: ('A' for Active; 'I' for Inactive)
REMARK    1  A    between atoms: O_2  and  C_7
REMARK    2  A    between atoms: N_5  and  C_9
REMARK    3  A    between atoms: C_9  and  C_12
REMARK                            x       y       z     vdW  Elec       q    Type
REMARK                         _______ _______ _______ _____ _____    ______ ____
ROOT
ATOM      9  C   UNL     1      13.635   8.962  19.326  0.00  0.00    +0.123 C 
ENDROOT
BRANCH   9  12
ATOM      3  O   UNL     1      11.883   7.038  20.766  0.00  0.00    -0.452 OA
ATOM      4  O   UNL     1      10.326   7.614  22.513  0.00  0.00    -0.453 OA
ATOM     12  C   UNL     1      12.664   9.324  20.419  0.00  0.00    +0.012 A 
ATOM     13  C   UNL     1      11.884   8.370  21.039  0.00  0.00    +0.171 A 
ATOM     14  C   UNL     1      12.525  10.650  20.837  0.00  0.00    +0.009 A 
ATOM     15  C   UNL     1      10.995   8.700  22.037  0.00  0.00    +0.167 A 
ATOM     16  C   UNL     1      11.616  10.987  21.856  0.00  0.00    +0.004 A 
ATOM     17  C   UNL     1      10.837  10.001  22.469  0.00  0.00    +0.049 A 
ATOM     18  C   UNL     1      10.894   6.565  21.703  0.00  0.00    +0.466 C 
ENDBRANCH   9  12
BRANCH   9   5
ATOM      1  O   UNL     1      12.870   9.722  14.921  0.00  0.00    -0.376 OA
ATOM      5  N   UNL     1      13.103   9.275  17.999  0.00  0.00    -0.293 NA
ATOM      6  C   UNL     1      11.885   8.499  17.748  0.00  0.00    +0.118 C 
ATOM      7  C   UNL     1      11.396   8.381  16.296  0.00  0.00    +0.154 C 
ATOM      8  C   UNL     1      14.131   9.137  16.965  0.00  0.00    +0.113 C 
ATOM     10  C   UNL     1      11.560   9.652  15.473  0.00  0.00    +0.192 C 
ATOM     11  C   UNL     1      13.873  10.138  15.838  0.00  0.00    +0.175 C 
BRANCH   7   2
ATOM      2  O   UNL     1      10.007   8.047  16.320  0.00  0.00    -0.388 OA
ATOM     19  H   UNL     1       9.923   7.124  16.025  0.00  0.00    +0.210 HD
ENDBRANCH   7   2
ENDBRANCH   9   5
TORSDOF 3
ENDMDL
MODEL 2
REMARK VINA RESULT:      -6.0      2.799      5.909
REMARK  Name = 75536952
REMARK  3 active torsions:
REMARK  status: ('A' for Active; 'I' for Inactive)
REMARK    1  A    between atoms: O_2  and  C_7
REMARK    2  A    between atoms: N_5  and  C_9
REMARK    3  A    between atoms: C_9  and  C_12
REMARK                            x       y       z     vdW  Elec       q    Type
REMARK                         _______ _______ _______ _____ _____    ______ ____
ROOT
ATOM      9  C   UNL     1      10.999   9.001  21.829  0.00  0.00    +0.123 C 
ENDROOT
BRANCH   9  12
ATOM      3  O   UNL     1      10.905   8.586  18.886  0.00  0.00    -0.452 OA
ATOM      4  O   UNL     1      12.567   7.411  17.594  0.00  0.00    -0.453 OA
ATOM     12  C   UNL     1      12.040   8.269  21.023  0.00  0.00    +0.012 A 
ATOM     13  C   UNL     1      11.923   8.118  19.657  0.00  0.00    +0.171 A 
ATOM     14  C   UNL     1      13.162   7.716  21.645  0.00  0.00    +0.009 A 
ATOM     15  C   UNL     1      12.873   7.447  18.920  0.00  0.00    +0.167 A 
ATOM     16  C   UNL     1      14.132   7.030  20.892  0.00  0.00    +0.004 A 
ATOM     17  C   UNL     1      13.990   6.891  19.509  0.00  0.00    +0.049 A 
ATOM     18  C   UNL     1      11.319   8.134  17.580  0.00  0.00    +0.466 C 
ENDBRANCH   9  12
BRANCH   9   5
ATOM      1  O   UNL     1      12.501  13.131  22.949  0.00  0.00    -0.376 OA
ATOM      5  N   UNL     1      11.545  10.203  22.462  0.00  0.00    -0.293 NA
ATOM      6  C   UNL     1      10.866  10.454  23.737  0.00  0.00    +0.118 C 
ATOM      7  C   UNL     1      11.007  11.852  24.361  0.00  0.00    +0.154 C 
ATOM      8  C   UNL     1      11.542  11.340  21.541  0.00  0.00    +0.113 C 
ATOM     10  C   UNL     1      12.389  12.472  24.206  0.00  0.00    +0.192 C 
ATOM     11  C   UNL     1      12.723  12.262  21.847  0.00  0.00    +0.175 C 
BRANCH   7   2
ATOM      2  O   UNL     1      10.724  11.746  25.757  0.00  0.00    -0.388 OA
ATOM     19  H   UNL     1      11.328  12.347  26.225  0.00  0.00    +0.210 HD
ENDBRANCH   7   2
ENDBRANCH   9   5
TORSDOF 3
ENDMDL
MODEL 3
REMARK VINA RESULT:      -6.0      1.285      2.179
REMARK  Name = 75536952
REMARK  3 active torsions:
REMARK  status: ('A' for Active; 'I' for Inactive)
REMARK    1  A    between atoms: O_2  and  C_7
REMARK    2  A    between atoms: N_5  and  C_9
REMARK    3  A    between atoms: C_9  and  C_12
REMARK                            x       y       z     vdW  Elec       q    Type
REMARK                         _______ _______ _______ _____ _____    ______ ____
ROOT
ATOM      9  C   UNL     1      13.746   8.556  19.580  0.00  0.00    +0.123 C 
ENDROOT
BRANCH   9  12
ATOM      3  O   UNL     1      12.253  10.554  21.199  0.00  0.00    -0.452 OA
ATOM      4  O   UNL     1      10.456  10.044  22.723  0.00  0.00    -0.453 OA
ATOM     12  C   UNL     1      12.622   8.236  20.530  0.00  0.00    +0.012 A 
ATOM     13  C   UNL     1      11.978   9.222  21.247  0.00  0.00    +0.171 A 
ATOM     14  C   UNL     1      12.199   6.917  20.713  0.00  0.00    +0.009 A 
ATOM     15  C   UNL     1      10.952   8.931  22.117  0.00  0.00    +0.167 A 
ATOM     16  C   UNL     1      11.150   6.620  21.602  0.00  0.00    +0.004 A 
ATOM     17  C   UNL     1      10.514   7.638  22.317  0.00  0.00    +0.049 A 
ATOM     18  C   UNL     1      11.285  11.068  22.137  0.00  0.00    +0.466 C 
ENDBRANCH   9  12
BRANCH   9   5
ATOM      1  O   UNL     1      12.954   8.815  15.122  0.00  0.00    -0.376 OA
ATOM      5  N   UNL     1      13.258   8.821  18.226  0.00  0.00    -0.293 NA
ATOM      6  C   UNL     1      11.826   8.519  18.138  0.00  0.00    +0.118 C 
ATOM      7  C   UNL     1      11.212   8.354  16.739  0.00  0.00    +0.154 C 
ATOM      8  C   UNL     1      14.080   8.148  17.219  0.00  0.00    +0.113 C 
ATOM     10  C   UNL     1      11.755   9.323  15.697  0.00  0.00    +0.192 C 
ATOM     11  C   UNL     1      14.110   8.975  15.933  0.00  0.00    +0.175 C 
BRANCH   7   2
ATOM      2  O   UNL     1       9.802   8.563  16.844  0.00  0.00    -0.388 OA
ATOM     19  H   UNL     1       9.369   7.702  16.722  0.00  0.00    +0.210 HD
ENDBRANCH   7   2
ENDBRANCH   9   5
TORSDOF 3
ENDMDL
MODEL 4
REMARK VINA RESULT:      -6.0      4.337      5.960
REMARK  Name = 75536952
REMARK  3 active torsions:
REMARK  status: ('A' for Active; 'I' for Inactive)
REMARK    1  A    between atoms: O_2  and  C_7
REMARK    2  A    between atoms: N_5  and  C_9
REMARK    3  A    between atoms: C_9  and  C_12
REMARK                            x       y       z     vdW  Elec       q    Type
REMARK                         _______ _______ _______ _____ _____    ______ ____
ROOT
ATOM      9  C   UNL     1      15.646   8.626  20.485  0.00  0.00    +0.123 C 
ENDROOT
BRANCH   9  12
ATOM      3  O   UNL     1      18.206   8.613  21.998  0.00  0.00    -0.452 OA
ATOM      4  O   UNL     1      19.968   6.990  21.734  0.00  0.00    -0.453 OA
ATOM     12  C   UNL     1      16.745   7.610  20.320  0.00  0.00    +0.012 A 
ATOM     13  C   UNL     1      17.906   7.673  21.062  0.00  0.00    +0.171 A 
ATOM     14  C   UNL     1      16.617   6.566  19.401  0.00  0.00    +0.009 A 
ATOM     15  C   UNL     1      18.913   6.746  20.911  0.00  0.00    +0.167 A 
ATOM     16  C   UNL     1      17.645   5.619  19.246  0.00  0.00    +0.004 A 
ATOM     17  C   UNL     1      18.812   5.705  20.010  0.00  0.00    +0.049 A 
ATOM     18  C   UNL     1      19.514   8.175  22.420  0.00  0.00    +0.466 C 
ENDBRANCH   9  12
BRANCH   9   5
ATOM      1  O   UNL     1      11.735   7.560  18.451  0.00  0.00    -0.376 OA
ATOM      5  N   UNL     1      14.529   8.373  19.573  0.00  0.00    -0.293 NA
ATOM      6  C   UNL     1      14.245   9.573  18.779  0.00  0.00    +0.118 C 
ATOM      7  C   UNL     1      12.890   9.651  18.058  0.00  0.00    +0.154 C 
ATOM      8  C   UNL     1      13.370   7.831  20.285  0.00  0.00    +0.113 C 
ATOM     10  C   UNL     1      12.416   8.331  17.466  0.00  0.00    +0.192 C 
ATOM     11  C   UNL     1      12.589   6.890  19.367  0.00  0.00    +0.175 C 
BRANCH   7   2
ATOM      2  O   UNL     1      13.007  10.596  16.993  0.00  0.00    -0.388 OA
ATOM     19  H   UNL     1      13.705  10.278  16.395  0.00  0.00    +0.210 HD
ENDBRANCH   7   2
ENDBRANCH   9   5
TORSDOF 3
ENDMDL
MODEL 5
REMARK VINA RESULT:      -5.7     29.037     29.939
REMARK  Name = 75536952
REMARK  3 active torsions:
REMARK  status: ('A' for Active; 'I' for Inactive)
REMARK    1  A    between atoms: O_2  and  C_7
REMARK    2  A    between atoms: N_5  and  C_9
REMARK    3  A    between atoms: C_9  and  C_12
REMARK                            x       y       z     vdW  Elec       q    Type
REMARK                         _______ _______ _______ _____ _____    ______ ____
ROOT
ATOM      9  C   UNL     1     -17.059   2.607  28.804  0.00  0.00    +0.123 C 
ENDROOT
BRANCH   9  12
ATOM      3  O   UNL     1     -15.242   0.268  29.074  0.00  0.00    -0.452 OA
ATOM      4  O   UNL     1     -13.274   0.190  30.463  0.00  0.00    -0.453 OA
ATOM     12  C   UNL     1     -15.828   2.560  29.670  0.00  0.00    +0.012 A 
ATOM     13  C   UNL     1     -15.035   1.434  29.743  0.00  0.00    +0.171 A 
ATOM     14  C   UNL     1     -15.454   3.669  30.435  0.00  0.00    +0.009 A 
ATOM     15  C   UNL     1     -13.911   1.390  30.536  0.00  0.00    +0.167 A 
ATOM     16  C   UNL     1     -14.306   3.623  31.246  0.00  0.00    +0.004 A 
ATOM     17  C   UNL     1     -13.519   2.470  31.301  0.00  0.00    +0.049 A 
ATOM     18  C   UNL     1     -14.122  -0.516  29.536  0.00  0.00    +0.466 C 
ENDBRANCH   9  12
BRANCH   9   5
ATOM      1  O   UNL     1     -16.738   1.829  24.348  0.00  0.00    -0.376 OA
ATOM      5  N   UNL     1     -16.725   2.560  27.380  0.00  0.00    -0.293 NA
ATOM      6  C   UNL     1     -16.713   3.915  26.819  0.00  0.00    +0.118 C 
ATOM      7  C   UNL     1     -16.774   4.059  25.291  0.00  0.00    +0.154 C 
ATOM      8  C   UNL     1     -17.583   1.616  26.661  0.00  0.00    +0.113 C 
ATOM     10  C   UNL     1     -15.970   3.014  24.529  0.00  0.00    +0.192 C 
ATOM     11  C   UNL     1     -16.812   0.995  25.495  0.00  0.00    +0.175 C 
BRANCH   7   2
ATOM      2  O   UNL     1     -16.262   5.348  24.945  0.00  0.00    -0.388 OA
ATOM     19  H   UNL     1     -16.500   5.959  25.663  0.00  0.00    +0.210 HD
ENDBRANCH   7   2
ENDBRANCH   9   5
TORSDOF 3
ENDMDL
MODEL 6
REMARK VINA RESULT:      -5.6     31.361     32.958
REMARK  Name = 75536952
REMARK  3 active torsions:
REMARK  status: ('A' for Active; 'I' for Inactive)
REMARK    1  A    between atoms: O_2  and  C_7
REMARK    2  A    between atoms: N_5  and  C_9
REMARK    3  A    between atoms: C_9  and  C_12
REMARK                            x       y       z     vdW  Elec       q    Type
REMARK                         _______ _______ _______ _____ _____    ______ ____
ROOT
ATOM      9  C   UNL     1       1.556 -14.645  -3.369  0.00  0.00    +0.123 C 
ENDROOT
BRANCH   9  12
ATOM      3  O   UNL     1       0.693 -14.180  -0.561  0.00  0.00    -0.452 OA
ATOM      4  O   UNL     1       2.167 -14.038   1.340  0.00  0.00    -0.453 OA
ATOM     12  C   UNL     1       2.478 -14.559  -2.182  0.00  0.00    +0.012 A 
ATOM     13  C   UNL     1       1.999 -14.340  -0.907  0.00  0.00    +0.171 A 
ATOM     14  C   UNL     1       3.859 -14.699  -2.342  0.00  0.00    +0.009 A 
ATOM     15  C   UNL     1       2.841 -14.258   0.179  0.00  0.00    +0.167 A 
ATOM     16  C   UNL     1       4.719 -14.616  -1.232  0.00  0.00    +0.004 A 
ATOM     17  C   UNL     1       4.208 -14.393   0.049  0.00  0.00    +0.049 A 
ATOM     18  C   UNL     1       0.807 -13.988   0.864  0.00  0.00    +0.466 C 
ENDBRANCH   9  12
BRANCH   9   5
ATOM      1  O   UNL     1       1.995 -12.015  -7.037  0.00  0.00    -0.376 OA
ATOM      5  N   UNL     1       1.844 -13.607  -4.360  0.00  0.00    -0.293 NA
ATOM      6  C   UNL     1       1.373 -12.305  -3.877  0.00  0.00    +0.118 C 
ATOM      7  C   UNL     1       1.223 -11.171  -4.904  0.00  0.00    +0.154 C 
ATOM      8  C   UNL     1       1.342 -13.978  -5.684  0.00  0.00    +0.113 C 
ATOM     10  C   UNL     1       2.314 -11.136  -5.964  0.00  0.00    +0.192 C 
ATOM     11  C   UNL     1       2.245 -13.387  -6.767  0.00  0.00    +0.175 C 
BRANCH   7   2
ATOM      2  O   UNL     1       1.250  -9.928  -4.200  0.00  0.00    -0.388 OA
ATOM     19  H   UNL     1       0.883 -10.085  -3.314  0.00  0.00    +0.210 HD
ENDBRANCH   7   2
ENDBRANCH   9   5
TORSDOF 3
ENDMDL
MODEL 7
REMARK VINA RESULT:      -5.5     24.384     26.622
REMARK  Name = 75536952
REMARK  3 active torsions:
REMARK  status: ('A' for Active; 'I' for Inactive)
REMARK    1  A    between atoms: O_2  and  C_7
REMARK    2  A    between atoms: N_5  and  C_9
REMARK    3  A    between atoms: C_9  and  C_12
REMARK                            x       y       z     vdW  Elec       q    Type
REMARK                         _______ _______ _______ _____ _____    ______ ____
ROOT
ATOM      9  C   UNL     1      -4.384 -12.140  16.402  0.00  0.00    +0.123 C 
ENDROOT
BRANCH   9  12
ATOM      3  O   UNL     1      -4.370 -11.532  13.490  0.00  0.00    -0.452 OA
ATOM      4  O   UNL     1      -2.651 -10.298  12.337  0.00  0.00    -0.453 OA
ATOM     12  C   UNL     1      -3.310 -11.367  15.682  0.00  0.00    +0.012 A 
ATOM     13  C   UNL     1      -3.376 -11.127  14.326  0.00  0.00    +0.171 A 
ATOM     14  C   UNL     1      -2.205 -10.869  16.378  0.00  0.00    +0.009 A 
ATOM     15  C   UNL     1      -2.394 -10.422  13.667  0.00  0.00    +0.167 A 
ATOM     16  C   UNL     1      -1.202 -10.149  15.705  0.00  0.00    +0.004 A 
ATOM     17  C   UNL     1      -1.293  -9.918  14.329  0.00  0.00    +0.049 A 
ATOM     18  C   UNL     1      -3.904 -11.004  12.232  0.00  0.00    +0.466 C 
ENDBRANCH   9  12
BRANCH   9   5
ATOM      1  O   UNL     1      -8.470 -10.214  16.793  0.00  0.00    -0.376 OA
ATOM      5  N   UNL     1      -5.552 -11.309  16.695  0.00  0.00    -0.293 NA
ATOM      6  C   UNL     1      -5.663 -11.086  18.140  0.00  0.00    +0.118 C 
ATOM      7  C   UNL     1      -7.007 -10.582  18.686  0.00  0.00    +0.154 C 
ATOM      8  C   UNL     1      -6.762 -11.848  16.072  0.00  0.00    +0.113 C 
ATOM     10  C   UNL     1      -7.703  -9.560  17.798  0.00  0.00    +0.192 C 
ATOM     11  C   UNL     1      -7.709 -10.707  15.699  0.00  0.00    +0.175 C 
BRANCH   7   2
ATOM      2  O   UNL     1      -6.771  -9.973  19.957  0.00  0.00    -0.388 OA
ATOM     19  H   UNL     1      -6.125  -9.259  19.824  0.00  0.00    +0.210 HD
ENDBRANCH   7   2
ENDBRANCH   9   5
TORSDOF 3
ENDMDL
MODEL 8
REMARK VINA RESULT:      -5.5     25.789     26.859
REMARK  Name = 75536952
REMARK  3 active torsions:
REMARK  status: ('A' for Active; 'I' for Inactive)
REMARK    1  A    between atoms: O_2  and  C_7
REMARK    2  A    between atoms: N_5  and  C_9
REMARK    3  A    between atoms: C_9  and  C_12
REMARK                            x       y       z     vdW  Elec       q    Type
REMARK                         _______ _______ _______ _____ _____    ______ ____
ROOT
ATOM      9  C   UNL     1      -3.580 -10.857  15.834  0.00  0.00    +0.123 C 
ENDROOT
BRANCH   9  12
ATOM      3  O   UNL     1      -6.277  -9.636  16.121  0.00  0.00    -0.452 OA
ATOM      4  O   UNL     1      -7.652  -9.752  18.098  0.00  0.00    -0.453 OA
ATOM     12  C   UNL     1      -4.439 -10.932  17.069  0.00  0.00    +0.012 A 
ATOM     13  C   UNL     1      -5.682 -10.337  17.124  0.00  0.00    +0.171 A 
ATOM     14  C   UNL     1      -3.993 -11.612  18.205  0.00  0.00    +0.009 A 
ATOM     15  C   UNL     1      -6.467 -10.403  18.253  0.00  0.00    +0.167 A 
ATOM     16  C   UNL     1      -4.795 -11.679  19.359  0.00  0.00    +0.004 A 
ATOM     17  C   UNL     1      -6.051 -11.068  19.388  0.00  0.00    +0.049 A 
ATOM     18  C   UNL     1      -7.524  -9.268  16.745  0.00  0.00    +0.466 C 
ENDBRANCH   9  12
BRANCH   9   5
ATOM      1  O   UNL     1      -3.606 -14.896  13.774  0.00  0.00    -0.376 OA
ATOM      5  N   UNL     1      -3.303 -12.183  15.281  0.00  0.00    -0.293 NA
ATOM      6  C   UNL     1      -2.052 -12.159  14.516  0.00  0.00    +0.118 C 
ATOM      7  C   UNL     1      -1.784 -13.319  13.545  0.00  0.00    +0.154 C 
ATOM      8  C   UNL     1      -4.453 -12.705  14.542  0.00  0.00    +0.113 C 
ATOM     10  C   UNL     1      -2.227 -14.683  14.057  0.00  0.00    +0.192 C 
ATOM     11  C   UNL     1      -4.498 -14.229  14.656  0.00  0.00    +0.175 C 
BRANCH   7   2
ATOM      2  O   UNL     1      -0.377 -13.376  13.298  0.00  0.00    -0.388 OA
ATOM     19  H   UNL     1      -0.150 -14.303  13.113  0.00  0.00    +0.210 HD
ENDBRANCH   7   2
ENDBRANCH   9   5
TORSDOF 3
ENDMDL
MODEL 9
REMARK VINA RESULT:      -5.5      3.307      4.770
REMARK  Name = 75536952
REMARK  3 active torsions:
REMARK  status: ('A' for Active; 'I' for Inactive)
REMARK    1  A    between atoms: O_2  and  C_7
REMARK    2  A    between atoms: N_5  and  C_9
REMARK    3  A    between atoms: C_9  and  C_12
REMARK                            x       y       z     vdW  Elec       q    Type
REMARK                         _______ _______ _______ _____ _____    ______ ____
ROOT
ATOM      9  C   UNL     1      13.523  10.351  22.720  0.00  0.00    +0.123 C 
ENDROOT
BRANCH   9  12
ATOM      3  O   UNL     1      11.742  11.526  24.792  0.00  0.00    -0.452 OA
ATOM      4  O   UNL     1      10.208  13.350  24.433  0.00  0.00    -0.453 OA
ATOM     12  C   UNL     1      12.567  11.493  22.495  0.00  0.00    +0.012 A 
ATOM     13  C   UNL     1      11.772  11.982  23.510  0.00  0.00    +0.171 A 
ATOM     14  C   UNL     1      12.457  12.092  21.237  0.00  0.00    +0.009 A 
ATOM     15  C   UNL     1      10.896  13.023  23.305  0.00  0.00    +0.167 A 
ATOM     16  C   UNL     1      11.562  13.156  21.028  0.00  0.00    +0.004 A 
ATOM     17  C   UNL     1      10.768  13.633  22.074  0.00  0.00    +0.049 A 
ATOM     18  C   UNL     1      10.749  12.397  25.371  0.00  0.00    +0.466 C 
ENDBRANCH   9  12
BRANCH   9   5
ATOM      1  O   UNL     1      13.587   6.587  20.192  0.00  0.00    -0.376 OA
ATOM      5  N   UNL     1      13.276   9.243  21.796  0.00  0.00    -0.293 NA
ATOM      6  C   UNL     1      11.944   8.678  22.032  0.00  0.00    +0.118 C 
ATOM      7  C   UNL     1      11.643   7.286  21.454  0.00  0.00    +0.154 C 
ATOM      8  C   UNL     1      14.363   8.263  21.834  0.00  0.00    +0.113 C 
ATOM     10  C   UNL     1      12.241   7.035  20.076  0.00  0.00    +0.192 C 
ATOM     11  C   UNL     1      14.529   7.616  20.458  0.00  0.00    +0.175 C 
BRANCH   7   2
ATOM      2  O   UNL     1      10.225   7.143  21.353  0.00  0.00    -0.388 OA
ATOM     19  H   UNL     1       9.885   7.925  20.885  0.00  0.00    +0.210 HD
ENDBRANCH   7   2
ENDBRANCH   9   5
TORSDOF 3
ENDMDL
MODEL 10
REMARK VINA RESULT:      -5.5     12.376     16.355
REMARK  Name = 75536952
REMARK  3 active torsions:
REMARK  status: ('A' for Active; 'I' for Inactive)
REMARK    1  A    between atoms: O_2  and  C_7
REMARK    2  A    between atoms: N_5  and  C_9
REMARK    3  A    between atoms: C_9  and  C_12
REMARK                            x       y       z     vdW  Elec       q    Type
REMARK                         _______ _______ _______ _____ _____    ______ ____
ROOT
ATOM      9  C   UNL     1      10.180   5.421   3.548  0.00  0.00    +0.123 C 
ENDROOT
BRANCH   9  12
ATOM      3  O   UNL     1      12.497   7.135   2.813  0.00  0.00    -0.452 OA
ATOM      4  O   UNL     1      14.466   6.383   1.643  0.00  0.00    -0.453 OA
ATOM     12  C   UNL     1      11.411   4.950   2.819  0.00  0.00    +0.012 A 
ATOM     13  C   UNL     1      12.445   5.809   2.513  0.00  0.00    +0.171 A 
ATOM     14  C   UNL     1      11.537   3.614   2.428  0.00  0.00    +0.009 A 
ATOM     15  C   UNL     1      13.569   5.379   1.845  0.00  0.00    +0.167 A 
ATOM     16  C   UNL     1      12.686   3.175   1.744  0.00  0.00    +0.004 A 
ATOM     17  C   UNL     1      13.720   4.066   1.447  0.00  0.00    +0.049 A 
ATOM     18  C   UNL     1      13.780   7.492   2.258  0.00  0.00    +0.466 C 
ENDBRANCH   9  12
BRANCH   9   5
ATOM      1  O   UNL     1      10.564   7.350   7.634  0.00  0.00    -0.376 OA
ATOM      5  N   UNL     1      10.476   5.797   4.932  0.00  0.00    -0.293 NA
ATOM      6  C   UNL     1      10.135   4.696   5.838  0.00  0.00    +0.118 C 
ATOM      7  C   UNL     1       9.999   5.015   7.335  0.00  0.00    +0.154 C 
ATOM      8  C   UNL     1       9.862   7.079   5.280  0.00  0.00    +0.113 C 
ATOM     10  C   UNL     1      11.017   6.019   7.858  0.00  0.00    +0.192 C 
ATOM     11  C   UNL     1      10.731   7.813   6.302  0.00  0.00    +0.175 C 
BRANCH   7   2
ATOM      2  O   UNL     1      10.162   3.798   8.065  0.00  0.00    -0.388 OA
ATOM     19  H   UNL     1       9.275   3.459   8.271  0.00  0.00    +0.210 HD
ENDBRANCH   7   2
ENDBRANCH   9   5
TORSDOF 3
ENDMDL
