MODEL 1
REMARK VINA RESULT:      -7.6      0.000      0.000
REMARK  Name = 7663774
REMARK  5 active torsions:
REMARK  status: ('A' for Active; 'I' for Inactive)
REMARK    1  A    between atoms: S_2  and  N_7
REMARK    2  A    between atoms: S_2  and  C_20
REMARK    3  A    between atoms: O_6  and  C_30
REMARK    4  A    between atoms: O_6  and  C_32
REMARK    5  A    between atoms: C_16  and  C_21
REMARK                            x       y       z     vdW  Elec       q    Type
REMARK                         _______ _______ _______ _____ _____    ______ ____
ROOT
ATOM      5  O   UNL     1      11.219   8.868  17.068  0.00  0.00    -0.268 OA
ATOM      7  N   UNL     1      12.210   9.843  21.821  0.00  0.00    -0.176 NA
ATOM      8  N   UNL     1      12.240   8.274  19.091  0.00  0.00    -0.311 N 
ATOM      9  C   UNL     1      10.867   7.837  21.211  0.00  0.00    +0.025 C 
ATOM     10  C   UNL     1      13.315   7.679  21.284  0.00  0.00    +0.053 C 
ATOM     11  C   UNL     1      12.022   6.929  21.597  0.00  0.00    +0.017 C 
ATOM     12  C   UNL     1      10.907   9.146  22.014  0.00  0.00    +0.114 C 
ATOM     13  C   UNL     1      13.377   8.966  22.130  0.00  0.00    +0.119 C 
ATOM     14  C   UNL     1      10.918   8.079  19.702  0.00  0.00    +0.130 C 
ATOM     15  C   UNL     1      13.431   8.003  19.793  0.00  0.00    +0.034 A 
ATOM     16  C   UNL     1      14.625   8.055  19.144  0.00  0.00    +0.002 A 
ATOM     17  C   UNL     1      12.230   8.635  17.732  0.00  0.00    +0.252 A 
ATOM     18  C   UNL     1      14.654   8.428  17.742  0.00  0.00    +0.015 A 
ATOM     19  C   UNL     1      13.547   8.718  17.059  0.00  0.00    +0.071 A 
ENDROOT
BRANCH  16  21
ATOM      1 CL   UNL     1      19.782   6.859  21.931  0.00  0.00    -0.084 Cl
ATOM     21  C   UNL     1      15.900   7.759  19.832  0.00  0.00    -0.016 A 
ATOM     24  C   UNL     1      16.448   6.483  19.754  0.00  0.00    +0.010 A 
ATOM     25  C   UNL     1      16.543   8.759  20.555  0.00  0.00    +0.010 A 
ATOM     28  C   UNL     1      17.651   6.203  20.403  0.00  0.00    +0.020 A 
ATOM     29  C   UNL     1      17.746   8.480  21.205  0.00  0.00    +0.020 A 
ATOM     31  C   UNL     1      18.299   7.202  21.129  0.00  0.00    +0.041 A 
ENDBRANCH  16  21
BRANCH   7   2
ATOM      2  S   UNL     1      12.297  11.436  22.439  0.00  0.00    +0.061 S 
ATOM      3  O   UNL     1      13.456  11.550  23.297  0.00  0.00    -0.153 OA
ATOM      4  O   UNL     1      10.984  11.833  22.904  0.00  0.00    -0.153 OA
BRANCH   2  20
ATOM     20  C   UNL     1      12.636  12.326  20.952  0.00  0.00    +0.106 A 
ATOM     22  C   UNL     1      13.310  11.692  19.921  0.00  0.00    +0.032 A 
ATOM     23  C   UNL     1      12.223  13.644  20.842  0.00  0.00    +0.032 A 
ATOM     26  C   UNL     1      13.577  12.396  18.746  0.00  0.00    +0.047 A 
ATOM     27  C   UNL     1      12.491  14.348  19.667  0.00  0.00    +0.047 A 
ATOM     30  C   UNL     1      13.168  13.723  18.620  0.00  0.00    +0.120 A 
BRANCH  30   6
ATOM      6  O   UNL     1      13.429  14.409  17.473  0.00  0.00    -0.495 OA
ATOM     32  C   UNL     1      14.274  13.775  16.515  0.00  0.00    +0.277 C 
ENDBRANCH  30   6
ENDBRANCH   2  20
ENDBRANCH   7   2
TORSDOF 4
ENDMDL
MODEL 2
REMARK VINA RESULT:      -7.2      3.530      5.887
REMARK  Name = 7663774
REMARK  5 active torsions:
REMARK  status: ('A' for Active; 'I' for Inactive)
REMARK    1  A    between atoms: S_2  and  N_7
REMARK    2  A    between atoms: S_2  and  C_20
REMARK    3  A    between atoms: O_6  and  C_30
REMARK    4  A    between atoms: O_6  and  C_32
REMARK    5  A    between atoms: C_16  and  C_21
REMARK                            x       y       z     vdW  Elec       q    Type
REMARK                         _______ _______ _______ _____ _____    ______ ____
ROOT
ATOM      5  O   UNL     1      16.393   8.488  21.579  0.00  0.00    -0.268 OA
ATOM      7  N   UNL     1      11.877   8.207  19.567  0.00  0.00    -0.176 NA
ATOM      8  N   UNL     1      14.085   8.860  21.715  0.00  0.00    -0.311 N 
ATOM      9  C   UNL     1      12.406   6.924  21.635  0.00  0.00    +0.025 C 
ATOM     10  C   UNL     1      11.601   9.237  21.816  0.00  0.00    +0.053 C 
ATOM     11  C   UNL     1      11.520   7.851  22.451  0.00  0.00    +0.017 C 
ATOM     12  C   UNL     1      11.923   6.849  20.179  0.00  0.00    +0.114 C 
ATOM     13  C   UNL     1      11.068   9.168  20.372  0.00  0.00    +0.119 C 
ATOM     14  C   UNL     1      13.852   7.409  21.743  0.00  0.00    +0.130 C 
ATOM     15  C   UNL     1      13.030   9.785  21.841  0.00  0.00    +0.034 A 
ATOM     16  C   UNL     1      13.305  11.111  21.959  0.00  0.00    +0.002 A 
ATOM     17  C   UNL     1      15.434   9.255  21.673  0.00  0.00    +0.252 A 
ATOM     18  C   UNL     1      14.685  11.556  21.915  0.00  0.00    +0.015 A 
ATOM     19  C   UNL     1      15.702  10.707  21.768  0.00  0.00    +0.071 A 
ENDROOT
BRANCH  16  21
ATOM      1 CL   UNL     1       8.968  15.186  22.582  0.00  0.00    -0.084 Cl
ATOM     21  C   UNL     1      12.233  12.119  22.114  0.00  0.00    -0.016 A 
ATOM     24  C   UNL     1      11.641  12.314  23.358  0.00  0.00    +0.010 A 
ATOM     25  C   UNL     1      11.823  12.865  21.013  0.00  0.00    +0.010 A 
ATOM     28  C   UNL     1      10.630  13.264  23.504  0.00  0.00    +0.020 A 
ATOM     29  C   UNL     1      10.812  13.815  21.158  0.00  0.00    +0.020 A 
ATOM     31  C   UNL     1      10.215  14.014  22.404  0.00  0.00    +0.041 A 
ENDBRANCH  16  21
BRANCH   7   2
ATOM      2  S   UNL     1      11.615   8.250  17.877  0.00  0.00    +0.061 S 
ATOM      3  O   UNL     1      10.302   8.800  17.615  0.00  0.00    -0.153 OA
ATOM      4  O   UNL     1      12.019   6.983  17.305  0.00  0.00    -0.153 OA
BRANCH   2  20
ATOM     20  C   UNL     1      12.811   9.462  17.409  0.00  0.00    +0.106 A 
ATOM     22  C   UNL     1      13.040   9.704  16.065  0.00  0.00    +0.032 A 
ATOM     23  C   UNL     1      13.500  10.150  18.395  0.00  0.00    +0.032 A 
ATOM     26  C   UNL     1      13.985  10.662  15.696  0.00  0.00    +0.047 A 
ATOM     27  C   UNL     1      14.446  11.107  18.026  0.00  0.00    +0.047 A 
ATOM     30  C   UNL     1      14.687  11.363  16.676  0.00  0.00    +0.120 A 
BRANCH  30   6
ATOM      6  O   UNL     1      15.609  12.298  16.316  0.00  0.00    -0.495 OA
ATOM     32  C   UNL     1      16.412  12.010  15.172  0.00  0.00    +0.277 C 
ENDBRANCH  30   6
ENDBRANCH   2  20
ENDBRANCH   7   2
TORSDOF 4
ENDMDL
MODEL 3
REMARK VINA RESULT:      -6.7      3.133      6.166
REMARK  Name = 7663774
REMARK  5 active torsions:
REMARK  status: ('A' for Active; 'I' for Inactive)
REMARK    1  A    between atoms: S_2  and  N_7
REMARK    2  A    between atoms: S_2  and  C_20
REMARK    3  A    between atoms: O_6  and  C_30
REMARK    4  A    between atoms: O_6  and  C_32
REMARK    5  A    between atoms: C_16  and  C_21
REMARK                            x       y       z     vdW  Elec       q    Type
REMARK                         _______ _______ _______ _____ _____    ______ ____
ROOT
ATOM      5  O   UNL     1      14.732  11.205  25.247  0.00  0.00    -0.268 OA
ATOM      7  N   UNL     1      11.871   9.516  21.574  0.00  0.00    -0.176 NA
ATOM      8  N   UNL     1      13.603  11.562  23.226  0.00  0.00    -0.311 N 
ATOM      9  C   UNL     1      11.055  11.345  23.053  0.00  0.00    +0.025 C 
ATOM     10  C   UNL     1      12.374  11.898  21.058  0.00  0.00    +0.053 C 
ATOM     11  C   UNL     1      11.192  12.343  21.916  0.00  0.00    +0.017 C 
ATOM     12  C   UNL     1      10.791   9.932  22.512  0.00  0.00    +0.114 C 
ATOM     13  C   UNL     1      12.083  10.502  20.474  0.00  0.00    +0.119 C 
ATOM     14  C   UNL     1      12.316  11.410  23.917  0.00  0.00    +0.130 C 
ATOM     15  C   UNL     1      13.680  11.891  21.858  0.00  0.00    +0.034 A 
ATOM     16  C   UNL     1      14.886  12.167  21.295  0.00  0.00    +0.002 A 
ATOM     17  C   UNL     1      14.743  11.473  24.044  0.00  0.00    +0.252 A 
ATOM     18  C   UNL     1      16.084  12.081  22.109  0.00  0.00    +0.015 A 
ATOM     19  C   UNL     1      16.046  11.745  23.398  0.00  0.00    +0.071 A 
ENDROOT
BRANCH  16  21
ATOM      1 CL   UNL     1      15.406  13.664  15.526  0.00  0.00    -0.084 Cl
ATOM     21  C   UNL     1      15.014  12.536  19.869  0.00  0.00    -0.016 A 
ATOM     24  C   UNL     1      15.304  11.557  18.924  0.00  0.00    +0.010 A 
ATOM     25  C   UNL     1      14.844  13.862  19.480  0.00  0.00    +0.010 A 
ATOM     28  C   UNL     1      15.426  11.905  17.578  0.00  0.00    +0.020 A 
ATOM     29  C   UNL     1      14.965  14.211  18.135  0.00  0.00    +0.020 A 
ATOM     31  C   UNL     1      15.257  13.233  17.184  0.00  0.00    +0.041 A 
ENDBRANCH  16  21
BRANCH   7   2
ATOM      2  S   UNL     1      11.850   7.872  21.102  0.00  0.00    +0.061 S 
ATOM      3  O   UNL     1      11.204   7.757  19.812  0.00  0.00    -0.153 OA
ATOM      4  O   UNL     1      11.419   7.064  22.224  0.00  0.00    -0.153 OA
BRANCH   2  20
ATOM     20  C   UNL     1      13.578   7.595  20.867  0.00  0.00    +0.106 A 
ATOM     22  C   UNL     1      14.004   6.858  19.775  0.00  0.00    +0.032 A 
ATOM     23  C   UNL     1      14.479   8.120  21.780  0.00  0.00    +0.032 A 
ATOM     26  C   UNL     1      15.370   6.640  19.588  0.00  0.00    +0.047 A 
ATOM     27  C   UNL     1      15.844   7.901  21.595  0.00  0.00    +0.047 A 
ATOM     30  C   UNL     1      16.289   7.162  20.499  0.00  0.00    +0.120 A 
BRANCH  30   6
ATOM      6  O   UNL     1      17.621   6.949  20.317  0.00  0.00    -0.495 OA
ATOM     32  C   UNL     1      17.996   5.890  19.437  0.00  0.00    +0.277 C 
ENDBRANCH  30   6
ENDBRANCH   2  20
ENDBRANCH   7   2
TORSDOF 4
ENDMDL
MODEL 4
REMARK VINA RESULT:      -6.7      3.532      5.821
REMARK  Name = 7663774
REMARK  5 active torsions:
REMARK  status: ('A' for Active; 'I' for Inactive)
REMARK    1  A    between atoms: S_2  and  N_7
REMARK    2  A    between atoms: S_2  and  C_20
REMARK    3  A    between atoms: O_6  and  C_30
REMARK    4  A    between atoms: O_6  and  C_32
REMARK    5  A    between atoms: C_16  and  C_21
REMARK                            x       y       z     vdW  Elec       q    Type
REMARK                         _______ _______ _______ _____ _____    ______ ____
ROOT
ATOM      5  O   UNL     1      16.927   8.088  20.482  0.00  0.00    -0.268 OA
ATOM      7  N   UNL     1      12.958   8.715  17.587  0.00  0.00    -0.176 NA
ATOM      8  N   UNL     1      14.651   8.587  20.239  0.00  0.00    -0.311 N 
ATOM      9  C   UNL     1      12.998   6.882  19.271  0.00  0.00    +0.025 C 
ATOM     10  C   UNL     1      12.213   9.113  19.927  0.00  0.00    +0.053 C 
ATOM     11  C   UNL     1      11.971   7.618  20.115  0.00  0.00    +0.017 C 
ATOM     12  C   UNL     1      12.846   7.243  17.787  0.00  0.00    +0.114 C 
ATOM     13  C   UNL     1      12.008   9.481  18.445  0.00  0.00    +0.119 C 
ATOM     14  C   UNL     1      14.394   7.206  19.808  0.00  0.00    +0.130 C 
ATOM     15  C   UNL     1      13.610   9.522  20.400  0.00  0.00    +0.034 A 
ATOM     16  C   UNL     1      13.874  10.741  20.941  0.00  0.00    +0.002 A 
ATOM     17  C   UNL     1      15.983   8.873  20.588  0.00  0.00    +0.252 A 
ATOM     18  C   UNL     1      15.238  11.072  21.310  0.00  0.00    +0.015 A 
ATOM     19  C   UNL     1      16.248  10.219  21.143  0.00  0.00    +0.071 A 
ENDROOT
BRANCH  16  21
ATOM      1 CL   UNL     1       9.575  14.816  21.785  0.00  0.00    -0.084 Cl
ATOM     21  C   UNL     1      12.812  11.748  21.149  0.00  0.00    -0.016 A 
ATOM     24  C   UNL     1      12.696  12.823  20.273  0.00  0.00    +0.010 A 
ATOM     25  C   UNL     1      11.933  11.615  22.220  0.00  0.00    +0.010 A 
ATOM     28  C   UNL     1      11.694  13.773  20.469  0.00  0.00    +0.020 A 
ATOM     29  C   UNL     1      10.931  12.565  22.417  0.00  0.00    +0.020 A 
ATOM     31  C   UNL     1      10.812  13.644  21.542  0.00  0.00    +0.041 A 
ENDBRANCH  16  21
BRANCH   7   2
ATOM      2  S   UNL     1      13.074   9.236  15.961  0.00  0.00    +0.061 S 
ATOM      3  O   UNL     1      11.755   9.580  15.478  0.00  0.00    -0.153 OA
ATOM      4  O   UNL     1      13.917   8.314  15.230  0.00  0.00    -0.153 OA
BRANCH   2  20
ATOM     20  C   UNL     1      13.977  10.737  16.181  0.00  0.00    +0.106 A 
ATOM     22  C   UNL     1      14.728  10.915  17.331  0.00  0.00    +0.032 A 
ATOM     23  C   UNL     1      13.919  11.713  15.198  0.00  0.00    +0.032 A 
ATOM     26  C   UNL     1      15.443  12.101  17.503  0.00  0.00    +0.047 A 
ATOM     27  C   UNL     1      14.632  12.900  15.372  0.00  0.00    +0.047 A 
ATOM     30  C   UNL     1      15.394  13.093  16.524  0.00  0.00    +0.120 A 
BRANCH  30   6
ATOM      6  O   UNL     1      16.091  14.251  16.692  0.00  0.00    -0.495 OA
ATOM     32  C   UNL     1      15.550  15.207  17.603  0.00  0.00    +0.277 C 
ENDBRANCH  30   6
ENDBRANCH   2  20
ENDBRANCH   7   2
TORSDOF 4
ENDMDL
MODEL 5
REMARK VINA RESULT:      -6.5      3.504      5.729
REMARK  Name = 7663774
REMARK  5 active torsions:
REMARK  status: ('A' for Active; 'I' for Inactive)
REMARK    1  A    between atoms: S_2  and  N_7
REMARK    2  A    between atoms: S_2  and  C_20
REMARK    3  A    between atoms: O_6  and  C_30
REMARK    4  A    between atoms: O_6  and  C_32
REMARK    5  A    between atoms: C_16  and  C_21
REMARK                            x       y       z     vdW  Elec       q    Type
REMARK                         _______ _______ _______ _____ _____    ______ ____
ROOT
ATOM      5  O   UNL     1      16.074   6.183  18.768  0.00  0.00    -0.268 OA
ATOM      7  N   UNL     1      14.393  10.718  17.707  0.00  0.00    -0.176 NA
ATOM      8  N   UNL     1      14.398   7.811  18.917  0.00  0.00    -0.311 N 
ATOM      9  C   UNL     1      13.208   8.710  16.832  0.00  0.00    +0.025 C 
ATOM     10  C   UNL     1      12.626   9.590  19.048  0.00  0.00    +0.053 C 
ATOM     11  C   UNL     1      12.049   8.964  17.781  0.00  0.00    +0.017 C 
ATOM     12  C   UNL     1      13.922  10.022  16.476  0.00  0.00    +0.114 C 
ATOM     13  C   UNL     1      13.296  10.932  18.696  0.00  0.00    +0.119 C 
ATOM     14  C   UNL     1      14.152   7.691  17.474  0.00  0.00    +0.130 C 
ATOM     15  C   UNL     1      13.620   8.652  19.738  0.00  0.00    +0.034 A 
ATOM     16  C   UNL     1      13.784   8.621  21.087  0.00  0.00    +0.002 A 
ATOM     17  C   UNL     1      15.378   6.948  19.437  0.00  0.00    +0.252 A 
ATOM     18  C   UNL     1      14.790   7.745  21.658  0.00  0.00    +0.015 A 
ATOM     19  C   UNL     1      15.560   6.959  20.906  0.00  0.00    +0.071 A 
ENDROOT
BRANCH  16  21
ATOM      1 CL   UNL     1      10.521  12.056  24.740  0.00  0.00    -0.084 Cl
ATOM     21  C   UNL     1      12.977   9.469  21.990  0.00  0.00    -0.016 A 
ATOM     24  C   UNL     1      11.663   9.117  22.281  0.00  0.00    +0.010 A 
ATOM     25  C   UNL     1      13.538  10.616  22.545  0.00  0.00    +0.010 A 
ATOM     28  C   UNL     1      10.901   9.917  23.132  0.00  0.00    +0.020 A 
ATOM     29  C   UNL     1      12.777  11.417  23.396  0.00  0.00    +0.020 A 
ATOM     31  C   UNL     1      11.459  11.068  23.690  0.00  0.00    +0.041 A 
ENDBRANCH  16  21
BRANCH   7   2
ATOM      2  S   UNL     1      15.433  12.052  17.452  0.00  0.00    +0.061 S 
ATOM      3  O   UNL     1      14.698  13.277  17.682  0.00  0.00    -0.153 OA
ATOM      4  O   UNL     1      16.171  11.847  16.224  0.00  0.00    -0.153 OA
BRANCH   2  20
ATOM     20  C   UNL     1      16.552  11.833  18.800  0.00  0.00    +0.106 A 
ATOM     22  C   UNL     1      16.259  10.901  19.781  0.00  0.00    +0.032 A 
ATOM     23  C   UNL     1      17.707  12.599  18.853  0.00  0.00    +0.032 A 
ATOM     26  C   UNL     1      17.145  10.727  20.845  0.00  0.00    +0.047 A 
ATOM     27  C   UNL     1      18.591  12.427  19.918  0.00  0.00    +0.047 A 
ATOM     30  C   UNL     1      18.311  11.491  20.913  0.00  0.00    +0.120 A 
BRANCH  30   6
ATOM      6  O   UNL     1      19.174  11.321  21.952  0.00  0.00    -0.495 OA
ATOM     32  C   UNL     1      19.377   9.988  22.417  0.00  0.00    +0.277 C 
ENDBRANCH  30   6
ENDBRANCH   2  20
ENDBRANCH   7   2
TORSDOF 4
ENDMDL
MODEL 6
REMARK VINA RESULT:      -6.4     14.820     17.496
REMARK  Name = 7663774
REMARK  5 active torsions:
REMARK  status: ('A' for Active; 'I' for Inactive)
REMARK    1  A    between atoms: S_2  and  N_7
REMARK    2  A    between atoms: S_2  and  C_20
REMARK    3  A    between atoms: O_6  and  C_30
REMARK    4  A    between atoms: O_6  and  C_32
REMARK    5  A    between atoms: C_16  and  C_21
REMARK                            x       y       z     vdW  Elec       q    Type
REMARK                         _______ _______ _______ _____ _____    ______ ____
ROOT
ATOM      5  O   UNL     1       7.269   9.233   4.465  0.00  0.00    -0.268 OA
ATOM      7  N   UNL     1      11.321   6.831   5.993  0.00  0.00    -0.176 NA
ATOM      8  N   UNL     1       8.687   7.372   4.355  0.00  0.00    -0.311 N 
ATOM      9  C   UNL     1       9.066   5.850   6.383  0.00  0.00    +0.025 C 
ATOM     10  C   UNL     1      10.237   5.394   4.274  0.00  0.00    +0.053 C 
ATOM     11  C   UNL     1       9.338   4.777   5.343  0.00  0.00    +0.017 C 
ATOM     12  C   UNL     1      10.374   6.331   7.028  0.00  0.00    +0.114 C 
ATOM     13  C   UNL     1      11.569   5.828   4.915  0.00  0.00    +0.119 C 
ATOM     14  C   UNL     1       8.293   6.991   5.718  0.00  0.00    +0.130 C 
ATOM     15  C   UNL     1       9.556   6.578   3.582  0.00  0.00    +0.034 A 
ATOM     16  C   UNL     1       9.777   6.890   2.277  0.00  0.00    +0.002 A 
ATOM     17  C   UNL     1       8.049   8.514   3.839  0.00  0.00    +0.252 A 
ATOM     18  C   UNL     1       9.138   8.063   1.712  0.00  0.00    +0.015 A 
ATOM     19  C   UNL     1       8.334   8.850   2.426  0.00  0.00    +0.071 A 
ENDROOT
BRANCH  16  21
ATOM      1 CL   UNL     1      13.367   3.593  -1.192  0.00  0.00    -0.084 Cl
ATOM     21  C   UNL     1      10.665   6.075   1.420  0.00  0.00    -0.016 A 
ATOM     24  C   UNL     1      12.018   6.386   1.333  0.00  0.00    +0.010 A 
ATOM     25  C   UNL     1      10.141   5.002   0.706  0.00  0.00    +0.010 A 
ATOM     28  C   UNL     1      12.856   5.617   0.525  0.00  0.00    +0.020 A 
ATOM     29  C   UNL     1      10.978   4.233  -0.103  0.00  0.00    +0.020 A 
ATOM     31  C   UNL     1      12.335   4.541  -0.194  0.00  0.00    +0.041 A 
ENDBRANCH  16  21
BRANCH   7   2
ATOM      2  S   UNL     1      12.707   7.641   6.584  0.00  0.00    +0.061 S 
ATOM      3  O   UNL     1      13.516   6.708   7.339  0.00  0.00    -0.153 OA
ATOM      4  O   UNL     1      12.304   8.908   7.157  0.00  0.00    -0.153 OA
BRANCH   2  20
ATOM     20  C   UNL     1      13.543   7.974   5.065  0.00  0.00    +0.106 A 
ATOM     22  C   UNL     1      14.737   7.328   4.792  0.00  0.00    +0.032 A 
ATOM     23  C   UNL     1      12.989   8.877   4.171  0.00  0.00    +0.032 A 
ATOM     26  C   UNL     1      15.397   7.591   3.591  0.00  0.00    +0.047 A 
ATOM     27  C   UNL     1      13.650   9.141   2.971  0.00  0.00    +0.047 A 
ATOM     30  C   UNL     1      14.853   8.498   2.681  0.00  0.00    +0.120 A 
BRANCH  30   6
ATOM      6  O   UNL     1      15.497   8.754   1.509  0.00  0.00    -0.495 OA
ATOM     32  C   UNL     1      16.059   7.639   0.820  0.00  0.00    +0.277 C 
ENDBRANCH  30   6
ENDBRANCH   2  20
ENDBRANCH   7   2
TORSDOF 4
ENDMDL
MODEL 7
REMARK VINA RESULT:      -6.3     13.449     16.702
REMARK  Name = 7663774
REMARK  5 active torsions:
REMARK  status: ('A' for Active; 'I' for Inactive)
REMARK    1  A    between atoms: S_2  and  N_7
REMARK    2  A    between atoms: S_2  and  C_20
REMARK    3  A    between atoms: O_6  and  C_30
REMARK    4  A    between atoms: O_6  and  C_32
REMARK    5  A    between atoms: C_16  and  C_21
REMARK                            x       y       z     vdW  Elec       q    Type
REMARK                         _______ _______ _______ _____ _____    ______ ____
ROOT
ATOM      5  O   UNL     1      19.501  -5.071  21.278  0.00  0.00    -0.268 OA
ATOM      7  N   UNL     1      18.936  -2.006  25.127  0.00  0.00    -0.176 NA
ATOM      8  N   UNL     1      18.223  -4.289  23.078  0.00  0.00    -0.311 N 
ATOM      9  C   UNL     1      17.388  -1.867  23.182  0.00  0.00    +0.025 C 
ATOM     10  C   UNL     1      16.887  -3.414  25.020  0.00  0.00    +0.053 C 
ATOM     11  C   UNL     1      16.261  -2.445  24.021  0.00  0.00    +0.017 C 
ATOM     12  C   UNL     1      18.395  -1.114  24.063  0.00  0.00    +0.114 C 
ATOM     13  C   UNL     1      17.858  -2.646  25.937  0.00  0.00    +0.119 C 
ATOM     14  C   UNL     1      18.042  -3.002  22.392  0.00  0.00    +0.130 C 
ATOM     15  C   UNL     1      17.604  -4.567  24.313  0.00  0.00    +0.034 A 
ATOM     16  C   UNL     1      17.678  -5.818  24.840  0.00  0.00    +0.002 A 
ATOM     17  C   UNL     1      18.954  -5.256  22.367  0.00  0.00    +0.252 A 
ATOM     18  C   UNL     1      18.428  -6.840  24.135  0.00  0.00    +0.015 A 
ATOM     19  C   UNL     1      19.047  -6.600  22.980  0.00  0.00    +0.071 A 
ENDROOT
BRANCH  16  21
ATOM      1 CL   UNL     1      15.051  -7.213  30.031  0.00  0.00    -0.084 Cl
ATOM     21  C   UNL     1      17.028  -6.163  26.123  0.00  0.00    -0.016 A 
ATOM     24  C   UNL     1      15.735  -6.677  26.127  0.00  0.00    +0.010 A 
ATOM     25  C   UNL     1      17.714  -5.972  27.318  0.00  0.00    +0.010 A 
ATOM     28  C   UNL     1      15.122  -7.003  27.337  0.00  0.00    +0.020 A 
ATOM     29  C   UNL     1      17.102  -6.297  28.528  0.00  0.00    +0.020 A 
ATOM     31  C   UNL     1      15.806  -6.812  28.538  0.00  0.00    +0.041 A 
ENDBRANCH  16  21
BRANCH   7   2
ATOM      2  S   UNL     1      20.260  -1.384  26.014  0.00  0.00    +0.061 S 
ATOM      3  O   UNL     1      19.934  -1.397  27.424  0.00  0.00    -0.153 OA
ATOM      4  O   UNL     1      20.733  -0.177  25.371  0.00  0.00    -0.153 OA
BRANCH   2  20
ATOM     20  C   UNL     1      21.451  -2.655  25.724  0.00  0.00    +0.106 A 
ATOM     22  C   UNL     1      22.773  -2.437  26.072  0.00  0.00    +0.032 A 
ATOM     23  C   UNL     1      21.042  -3.849  25.152  0.00  0.00    +0.032 A 
ATOM     26  C   UNL     1      23.715  -3.441  25.844  0.00  0.00    +0.047 A 
ATOM     27  C   UNL     1      21.983  -4.853  24.923  0.00  0.00    +0.047 A 
ATOM     30  C   UNL     1      23.319  -4.649  25.269  0.00  0.00    +0.120 A 
BRANCH  30   6
ATOM      6  O   UNL     1      24.237  -5.629  25.046  0.00  0.00    -0.495 OA
ATOM     32  C   UNL     1      23.867  -6.673  24.146  0.00  0.00    +0.277 C 
ENDBRANCH  30   6
ENDBRANCH   2  20
ENDBRANCH   7   2
TORSDOF 4
ENDMDL
MODEL 8
REMARK VINA RESULT:      -6.3     26.925     29.844
REMARK  Name = 7663774
REMARK  5 active torsions:
REMARK  status: ('A' for Active; 'I' for Inactive)
REMARK    1  A    between atoms: S_2  and  N_7
REMARK    2  A    between atoms: S_2  and  C_20
REMARK    3  A    between atoms: O_6  and  C_30
REMARK    4  A    between atoms: O_6  and  C_32
REMARK    5  A    between atoms: C_16  and  C_21
REMARK                            x       y       z     vdW  Elec       q    Type
REMARK                         _______ _______ _______ _____ _____    ______ ____
ROOT
ATOM      5  O   UNL     1      -1.771 -10.611  16.347  0.00  0.00    -0.268 OA
ATOM      7  N   UNL     1      -5.789 -12.924  14.606  0.00  0.00    -0.176 NA
ATOM      8  N   UNL     1      -3.640 -10.645  14.937  0.00  0.00    -0.311 N 
ATOM      9  C   UNL     1      -6.024 -10.791  15.869  0.00  0.00    +0.025 C 
ATOM     10  C   UNL     1      -5.660 -10.728  13.442  0.00  0.00    +0.053 C 
ATOM     11  C   UNL     1      -6.411 -10.063  14.593  0.00  0.00    +0.017 C 
ATOM     12  C   UNL     1      -6.414 -12.274  15.792  0.00  0.00    +0.114 C 
ATOM     13  C   UNL     1      -6.092 -12.203  13.335  0.00  0.00    +0.119 C 
ATOM     14  C   UNL     1      -4.526 -10.595  16.108  0.00  0.00    +0.130 C 
ATOM     15  C   UNL     1      -4.144 -10.618  13.621  0.00  0.00    +0.034 A 
ATOM     16  C   UNL     1      -3.287 -10.516  12.571  0.00  0.00    +0.002 A 
ATOM     17  C   UNL     1      -2.263 -10.605  15.218  0.00  0.00    +0.252 A 
ATOM     18  C   UNL     1      -1.858 -10.476  12.823  0.00  0.00    +0.015 A 
ATOM     19  C   UNL     1      -1.351 -10.529  14.054  0.00  0.00    +0.071 A 
ENDROOT
BRANCH  16  21
ATOM      1 CL   UNL     1      -5.235 -10.300   6.918  0.00  0.00    -0.084 Cl
ATOM     21  C   UNL     1      -3.768 -10.463  11.174  0.00  0.00    -0.016 A 
ATOM     24  C   UNL     1      -3.923 -11.642  10.450  0.00  0.00    +0.010 A 
ATOM     25  C   UNL     1      -4.064  -9.235  10.591  0.00  0.00    +0.010 A 
ATOM     28  C   UNL     1      -4.378 -11.592   9.132  0.00  0.00    +0.020 A 
ATOM     29  C   UNL     1      -4.518  -9.184   9.273  0.00  0.00    +0.020 A 
ATOM     31  C   UNL     1      -4.674 -10.363   8.544  0.00  0.00    +0.041 A 
ENDBRANCH  16  21
BRANCH   7   2
ATOM      2  S   UNL     1      -5.917 -14.628  14.540  0.00  0.00    +0.061 S 
ATOM      3  O   UNL     1      -6.888 -14.992  13.531  0.00  0.00    -0.153 OA
ATOM      4  O   UNL     1      -6.015 -15.146  15.888  0.00  0.00    -0.153 OA
BRANCH   2  20
ATOM     20  C   UNL     1      -4.315 -15.036  13.918  0.00  0.00    +0.106 A 
ATOM     22  C   UNL     1      -4.153 -16.186  13.165  0.00  0.00    +0.032 A 
ATOM     23  C   UNL     1      -3.247 -14.196  14.195  0.00  0.00    +0.032 A 
ATOM     26  C   UNL     1      -2.887 -16.507  12.673  0.00  0.00    +0.047 A 
ATOM     27  C   UNL     1      -1.982 -14.518  13.704  0.00  0.00    +0.047 A 
ATOM     30  C   UNL     1      -1.802 -15.673  12.943  0.00  0.00    +0.120 A 
BRANCH  30   6
ATOM      6  O   UNL     1      -0.567 -15.986  12.463  0.00  0.00    -0.495 OA
ATOM     32  C   UNL     1      -0.512 -16.835  11.317  0.00  0.00    +0.277 C 
ENDBRANCH  30   6
ENDBRANCH   2  20
ENDBRANCH   7   2
TORSDOF 4
ENDMDL
MODEL 9
REMARK VINA RESULT:      -6.2     15.559     18.703
REMARK  Name = 7663774
REMARK  5 active torsions:
REMARK  status: ('A' for Active; 'I' for Inactive)
REMARK    1  A    between atoms: S_2  and  N_7
REMARK    2  A    between atoms: S_2  and  C_20
REMARK    3  A    between atoms: O_6  and  C_30
REMARK    4  A    between atoms: O_6  and  C_32
REMARK    5  A    between atoms: C_16  and  C_21
REMARK                            x       y       z     vdW  Elec       q    Type
REMARK                         _______ _______ _______ _____ _____    ______ ____
ROOT
ATOM      5  O   UNL     1       8.590   9.641   1.233  0.00  0.00    -0.268 OA
ATOM      7  N   UNL     1      11.646   5.856   2.158  0.00  0.00    -0.176 NA
ATOM      8  N   UNL     1      10.009   8.492   2.699  0.00  0.00    -0.311 N 
ATOM      9  C   UNL     1      12.505   8.193   2.194  0.00  0.00    +0.025 C 
ATOM     10  C   UNL     1      11.544   7.224   4.235  0.00  0.00    +0.053 C 
ATOM     11  C   UNL     1      12.654   8.129   3.705  0.00  0.00    +0.017 C 
ATOM     12  C   UNL     1      12.642   6.796   1.571  0.00  0.00    +0.114 C 
ATOM     13  C   UNL     1      11.715   5.809   3.648  0.00  0.00    +0.119 C 
ATOM     14  C   UNL     1      11.163   8.848   1.862  0.00  0.00    +0.130 C 
ATOM     15  C   UNL     1      10.157   7.783   3.908  0.00  0.00    +0.034 A 
ATOM     16  C   UNL     1       9.083   7.604   4.722  0.00  0.00    +0.002 A 
ATOM     17  C   UNL     1       8.772   9.004   2.271  0.00  0.00    +0.252 A 
ATOM     18  C   UNL     1       7.789   8.116   4.311  0.00  0.00    +0.015 A 
ATOM     19  C   UNL     1       7.613   8.764   3.160  0.00  0.00    +0.071 A 
ENDROOT
BRANCH  16  21
ATOM      1 CL   UNL     1       9.526   4.699   9.934  0.00  0.00    -0.084 Cl
ATOM     21  C   UNL     1       9.193   6.886   6.010  0.00  0.00    -0.016 A 
ATOM     24  C   UNL     1       9.438   5.516   6.020  0.00  0.00    +0.010 A 
ATOM     25  C   UNL     1       9.051   7.584   7.205  0.00  0.00    +0.010 A 
ATOM     28  C   UNL     1       9.541   4.838   7.234  0.00  0.00    +0.020 A 
ATOM     29  C   UNL     1       9.154   6.907   8.420  0.00  0.00    +0.020 A 
ATOM     31  C   UNL     1       9.398   5.534   8.435  0.00  0.00    +0.041 A 
ENDBRANCH  16  21
BRANCH   7   2
ATOM      2  S   UNL     1      11.503   4.342   1.375  0.00  0.00    +0.061 S 
ATOM      3  O   UNL     1      10.590   4.468   0.260  0.00  0.00    -0.153 OA
ATOM      4  O   UNL     1      11.319   3.310   2.374  0.00  0.00    -0.153 OA
BRANCH   2  20
ATOM     20  C   UNL     1      13.135   4.177   0.721  0.00  0.00    +0.106 A 
ATOM     22  C   UNL     1      14.172   3.822   1.567  0.00  0.00    +0.032 A 
ATOM     23  C   UNL     1      13.350   4.404  -0.629  0.00  0.00    +0.032 A 
ATOM     26  C   UNL     1      15.461   3.691   1.050  0.00  0.00    +0.047 A 
ATOM     27  C   UNL     1      14.639   4.274  -1.146  0.00  0.00    +0.047 A 
ATOM     30  C   UNL     1      15.694   3.917  -0.307  0.00  0.00    +0.120 A 
BRANCH  30   6
ATOM      6  O   UNL     1      16.952   3.789  -0.812  0.00  0.00    -0.495 OA
ATOM     32  C   UNL     1      17.344   4.718  -1.821  0.00  0.00    +0.277 C 
ENDBRANCH  30   6
ENDBRANCH   2  20
ENDBRANCH   7   2
TORSDOF 4
ENDMDL
MODEL 10
REMARK VINA RESULT:      -6.1     14.189     17.232
REMARK  Name = 7663774
REMARK  5 active torsions:
REMARK  status: ('A' for Active; 'I' for Inactive)
REMARK    1  A    between atoms: S_2  and  N_7
REMARK    2  A    between atoms: S_2  and  C_20
REMARK    3  A    between atoms: O_6  and  C_30
REMARK    4  A    between atoms: O_6  and  C_32
REMARK    5  A    between atoms: C_16  and  C_21
REMARK                            x       y       z     vdW  Elec       q    Type
REMARK                         _______ _______ _______ _____ _____    ______ ____
ROOT
ATOM      5  O   UNL     1       9.705   9.791   1.459  0.00  0.00    -0.268 OA
ATOM      7  N   UNL     1      13.545   8.670   4.380  0.00  0.00    -0.176 NA
ATOM      8  N   UNL     1      10.589   9.425   3.597  0.00  0.00    -0.311 N 
ATOM      9  C   UNL     1      12.455  10.902   4.550  0.00  0.00    +0.025 C 
ATOM     10  C   UNL     1      11.584   9.025   5.871  0.00  0.00    +0.053 C 
ATOM     11  C   UNL     1      11.865  10.526   5.899  0.00  0.00    +0.017 C 
ATOM     12  C   UNL     1      13.764  10.141   4.294  0.00  0.00    +0.114 C 
ATOM     13  C   UNL     1      12.907   8.262   5.666  0.00  0.00    +0.119 C 
ATOM     14  C   UNL     1      11.408  10.638   3.467  0.00  0.00    +0.130 C 
ATOM     15  C   UNL     1      10.573   8.661   4.781  0.00  0.00    +0.034 A 
ATOM     16  C   UNL     1       9.692   7.634   4.911  0.00  0.00    +0.002 A 
ATOM     17  C   UNL     1       9.743   9.148   2.509  0.00  0.00    +0.252 A 
ATOM     18  C   UNL     1       8.806   7.317   3.807  0.00  0.00    +0.015 A 
ATOM     19  C   UNL     1       8.818   8.002   2.664  0.00  0.00    +0.071 A 
ENDROOT
BRANCH  16  21
ATOM      1 CL   UNL     1       9.412   4.330   9.891  0.00  0.00    -0.084 Cl
ATOM     21  C   UNL     1       9.624   6.817   6.142  0.00  0.00    -0.016 A 
ATOM     24  C   UNL     1      10.081   5.503   6.127  0.00  0.00    +0.010 A 
ATOM     25  C   UNL     1       9.102   7.368   7.308  0.00  0.00    +0.010 A 
ATOM     28  C   UNL     1      10.016   4.732   7.287  0.00  0.00    +0.020 A 
ATOM     29  C   UNL     1       9.036   6.598   8.469  0.00  0.00    +0.020 A 
ATOM     31  C   UNL     1       9.493   5.280   8.459  0.00  0.00    +0.041 A 
ENDBRANCH  16  21
BRANCH   7   2
ATOM      2  S   UNL     1      14.849   7.694   3.856  0.00  0.00    +0.061 S 
ATOM      3  O   UNL     1      15.365   6.949   4.984  0.00  0.00    -0.153 OA
ATOM      4  O   UNL     1      15.727   8.488   3.024  0.00  0.00    -0.153 OA
BRANCH   2  20
ATOM     20  C   UNL     1      13.988   6.562   2.810  0.00  0.00    +0.106 A 
ATOM     22  C   UNL     1      12.625   6.717   2.618  0.00  0.00    +0.032 A 
ATOM     23  C   UNL     1      14.691   5.536   2.197  0.00  0.00    +0.032 A 
ATOM     26  C   UNL     1      11.946   5.823   1.790  0.00  0.00    +0.047 A 
ATOM     27  C   UNL     1      14.011   4.642   1.371  0.00  0.00    +0.047 A 
ATOM     30  C   UNL     1      12.639   4.785   1.167  0.00  0.00    +0.120 A 
BRANCH  30   6
ATOM      6  O   UNL     1      11.976   3.913   0.359  0.00  0.00    -0.495 OA
ATOM     32  C   UNL     1      12.732   3.279  -0.671  0.00  0.00    +0.277 C 
ENDBRANCH  30   6
ENDBRANCH   2  20
ENDBRANCH   7   2
TORSDOF 4
ENDMDL
