MODEL 1
REMARK VINA RESULT:      -6.4      0.000      0.000
REMARK  Name = 28962876
REMARK  7 active torsions:
REMARK  status: ('A' for Active; 'I' for Inactive)
REMARK    1  A    between atoms: O_4  and  C_22
REMARK    2  A    between atoms: O_4  and  C_23
REMARK    3  A    between atoms: N_5  and  C_14
REMARK    4  A    between atoms: C_7  and  C_17
REMARK    5  A    between atoms: C_10  and  C_18
REMARK    6  A    between atoms: C_16  and  C_20
REMARK    7  A    between atoms: C_21  and  C_22
REMARK                            x       y       z     vdW  Elec       q    Type
REMARK                         _______ _______ _______ _____ _____    ______ ____
ROOT
ATOM      1  O   UNL     1      16.171   9.286  21.903  0.00  0.00    -0.461 OA
ATOM      2  O   UNL     1      18.433   8.873  21.891  0.00  0.00    -0.251 OA
ATOM      6  C   UNL     1      13.679   8.957  21.648  0.00  0.00    +0.041 C 
ATOM      7  C   UNL     1      12.655   8.364  20.608  0.00  0.00    -0.025 C 
ATOM      8  C   UNL     1      15.093   8.914  21.040  0.00  0.00    +0.184 C 
ATOM      9  C   UNL     1      15.467   7.483  20.696  0.00  0.00    +0.044 C 
ATOM     10  C   UNL     1      13.213  10.340  22.196  0.00  0.00    +0.013 C 
ATOM     11  C   UNL     1      13.111   6.950  20.135  0.00  0.00    +0.007 C 
ATOM     12  C   UNL     1      11.282   8.229  21.305  0.00  0.00    +0.009 C 
ATOM     13  C   UNL     1      14.561   6.902  19.631  0.00  0.00    +0.008 C 
ATOM     14  C   UNL     1      11.793  10.214  22.815  0.00  0.00    +0.076 C 
ATOM     15  C   UNL     1      10.778   9.548  21.880  0.00  0.00    +0.023 C 
ATOM     16  C   UNL     1      16.943   7.644  20.389  0.00  0.00    +0.101 C 
ATOM     17  C   UNL     1      12.498   9.255  19.349  0.00  0.00    +0.011 C 
ATOM     18  C   UNL     1      14.183  10.922  23.236  0.00  0.00    +0.010 C 
ATOM     19  C   UNL     1      17.311   8.648  21.466  0.00  0.00    +0.311 C 
ATOM     20  C   UNL     1      17.727   6.351  20.503  0.00  0.00    +0.019 C 
ENDROOT
BRANCH  14   5
ATOM      3  O   UNL     1      11.088  11.039  25.496  0.00  0.00    -0.273 OA
ATOM      5  N   UNL     1      11.274  11.500  23.224  0.00  0.00    -0.310 N 
ATOM     21  C   UNL     1      10.964  11.800  24.540  0.00  0.00    +0.239 C 
ATOM     24  H   UNL     1      11.072  12.185  22.501  0.00  0.00    +0.149 HD
BRANCH  21  22
ATOM     22  C   UNL     1      10.441  13.214  24.682  0.00  0.00    +0.255 C 
BRANCH  22   4
ATOM      4  O   UNL     1      10.489  13.890  23.444  0.00  0.00    -0.374 OA
ATOM     23  C   UNL     1       9.285  14.608  23.183  0.00  0.00    +0.194 C 
ENDBRANCH  22   4
ENDBRANCH  21  22
ENDBRANCH  14   5
TORSDOF 3
ENDMDL
MODEL 2
REMARK VINA RESULT:      -6.3     29.751     31.260
REMARK  Name = 28962876
REMARK  7 active torsions:
REMARK  status: ('A' for Active; 'I' for Inactive)
REMARK    1  A    between atoms: O_4  and  C_22
REMARK    2  A    between atoms: O_4  and  C_23
REMARK    3  A    between atoms: N_5  and  C_14
REMARK    4  A    between atoms: C_7  and  C_17
REMARK    5  A    between atoms: C_10  and  C_18
REMARK    6  A    between atoms: C_16  and  C_20
REMARK    7  A    between atoms: C_21  and  C_22
REMARK                            x       y       z     vdW  Elec       q    Type
REMARK                         _______ _______ _______ _____ _____    ______ ____
ROOT
ATOM      1  O   UNL     1     -15.126   5.205  31.804  0.00  0.00    -0.461 OA
ATOM      2  O   UNL     1     -14.862   6.889  33.347  0.00  0.00    -0.251 OA
ATOM      6  C   UNL     1     -15.457   2.909  30.804  0.00  0.00    +0.041 C 
ATOM      7  C   UNL     1     -14.904   1.444  30.974  0.00  0.00    -0.025 C 
ATOM      8  C   UNL     1     -14.665   3.854  31.725  0.00  0.00    +0.184 C 
ATOM      9  C   UNL     1     -14.804   3.407  33.171  0.00  0.00    +0.044 C 
ATOM     10  C   UNL     1     -15.539   3.327  29.304  0.00  0.00    +0.013 C 
ATOM     11  C   UNL     1     -14.904   1.029  32.477  0.00  0.00    +0.007 C 
ATOM     12  C   UNL     1     -15.835   0.482  30.199  0.00  0.00    +0.009 C 
ATOM     13  C   UNL     1     -14.202   2.037  33.399  0.00  0.00    +0.008 C 
ATOM     14  C   UNL     1     -16.403   2.305  28.515  0.00  0.00    +0.076 C 
ATOM     15  C   UNL     1     -15.972   0.850  28.726  0.00  0.00    +0.023 C 
ATOM     16  C   UNL     1     -14.201   4.597  33.892  0.00  0.00    +0.101 C 
ATOM     17  C   UNL     1     -13.457   1.285  30.441  0.00  0.00    +0.011 C 
ATOM     18  C   UNL     1     -16.105   4.743  29.115  0.00  0.00    +0.010 C 
ATOM     19  C   UNL     1     -14.756   5.715  33.029  0.00  0.00    +0.311 C 
ATOM     20  C   UNL     1     -14.636   4.707  35.340  0.00  0.00    +0.019 C 
ENDROOT
BRANCH  14   5
ATOM      3  O   UNL     1     -18.639   2.094  26.692  0.00  0.00    -0.273 OA
ATOM      5  N   UNL     1     -16.403   2.588  27.097  0.00  0.00    -0.310 N 
ATOM     21  C   UNL     1     -17.531   2.456  26.305  0.00  0.00    +0.239 C 
ATOM     24  H   UNL     1     -15.519   2.834  26.660  0.00  0.00    +0.149 HD
BRANCH  21  22
ATOM     22  C   UNL     1     -17.245   2.818  24.863  0.00  0.00    +0.255 C 
BRANCH  22   4
ATOM      4  O   UNL     1     -15.863   2.739  24.593  0.00  0.00    -0.374 OA
ATOM     23  C   UNL     1     -15.362   3.947  24.025  0.00  0.00    +0.194 C 
ENDBRANCH  22   4
ENDBRANCH  21  22
ENDBRANCH  14   5
TORSDOF 3
ENDMDL
MODEL 3
REMARK VINA RESULT:      -6.2     27.188     29.696
REMARK  Name = 28962876
REMARK  7 active torsions:
REMARK  status: ('A' for Active; 'I' for Inactive)
REMARK    1  A    between atoms: O_4  and  C_22
REMARK    2  A    between atoms: O_4  and  C_23
REMARK    3  A    between atoms: N_5  and  C_14
REMARK    4  A    between atoms: C_7  and  C_17
REMARK    5  A    between atoms: C_10  and  C_18
REMARK    6  A    between atoms: C_16  and  C_20
REMARK    7  A    between atoms: C_21  and  C_22
REMARK                            x       y       z     vdW  Elec       q    Type
REMARK                         _______ _______ _______ _____ _____    ______ ____
ROOT
ATOM      1  O   UNL     1      -8.505  -8.945  16.282  0.00  0.00    -0.461 OA
ATOM      2  O   UNL     1     -10.310  -7.658  15.674  0.00  0.00    -0.251 OA
ATOM      6  C   UNL     1      -7.115 -10.749  17.375  0.00  0.00    +0.041 C 
ATOM      7  C   UNL     1      -6.927 -11.416  18.789  0.00  0.00    -0.025 C 
ATOM      8  C   UNL     1      -8.108  -9.579  17.500  0.00  0.00    +0.184 C 
ATOM      9  C   UNL     1      -9.442 -10.085  18.022  0.00  0.00    +0.044 C 
ATOM     10  C   UNL     1      -5.747 -10.415  16.705  0.00  0.00    +0.013 C 
ATOM     11  C   UNL     1      -8.307 -11.806  19.400  0.00  0.00    +0.007 C 
ATOM     12  C   UNL     1      -6.089 -12.703  18.609  0.00  0.00    +0.009 C 
ATOM     13  C   UNL     1      -9.324 -10.655  19.420  0.00  0.00    +0.008 C 
ATOM     14  C   UNL     1      -4.876 -11.698  16.610  0.00  0.00    +0.076 C 
ATOM     15  C   UNL     1      -4.744 -12.445  17.941  0.00  0.00    +0.023 C 
ATOM     16  C   UNL     1     -10.311  -8.861  17.804  0.00  0.00    +0.101 C 
ATOM     17  C   UNL     1      -6.210 -10.484  19.800  0.00  0.00    +0.011 C 
ATOM     18  C   UNL     1      -5.908  -9.791  15.310  0.00  0.00    +0.010 C 
ATOM     19  C   UNL     1      -9.756  -8.399  16.469  0.00  0.00    +0.311 C 
ATOM     20  C   UNL     1     -11.792  -9.178  17.743  0.00  0.00    +0.019 C 
ENDROOT
BRANCH  14   5
ATOM      3  O   UNL     1      -3.464 -13.088  14.502  0.00  0.00    -0.273 OA
ATOM      5  N   UNL     1      -3.551 -11.407  16.107  0.00  0.00    -0.310 N 
ATOM     21  C   UNL     1      -2.958 -12.135  15.089  0.00  0.00    +0.239 C 
ATOM     24  H   UNL     1      -3.016 -10.676  16.567  0.00  0.00    +0.149 HD
BRANCH  21  22
ATOM     22  C   UNL     1      -1.575 -11.613  14.763  0.00  0.00    +0.255 C 
BRANCH  22   4
ATOM      4  O   UNL     1      -1.650 -10.338  14.166  0.00  0.00    -0.374 OA
ATOM     23  C   UNL     1      -1.951 -10.418  12.775  0.00  0.00    +0.194 C 
ENDBRANCH  22   4
ENDBRANCH  21  22
ENDBRANCH  14   5
TORSDOF 3
ENDMDL
MODEL 4
REMARK VINA RESULT:      -6.1     27.077     28.831
REMARK  Name = 28962876
REMARK  7 active torsions:
REMARK  status: ('A' for Active; 'I' for Inactive)
REMARK    1  A    between atoms: O_4  and  C_22
REMARK    2  A    between atoms: O_4  and  C_23
REMARK    3  A    between atoms: N_5  and  C_14
REMARK    4  A    between atoms: C_7  and  C_17
REMARK    5  A    between atoms: C_10  and  C_18
REMARK    6  A    between atoms: C_16  and  C_20
REMARK    7  A    between atoms: C_21  and  C_22
REMARK                            x       y       z     vdW  Elec       q    Type
REMARK                         _______ _______ _______ _____ _____    ______ ____
ROOT
ATOM      1  O   UNL     1      -5.806 -10.443  12.205  0.00  0.00    -0.461 OA
ATOM      2  O   UNL     1      -6.484  -9.881  10.081  0.00  0.00    -0.251 OA
ATOM      6  C   UNL     1      -4.374 -10.684  14.272  0.00  0.00    +0.041 C 
ATOM      7  C   UNL     1      -2.905 -11.098  14.662  0.00  0.00    -0.025 C 
ATOM      8  C   UNL     1      -4.570 -10.900  12.760  0.00  0.00    +0.184 C 
ATOM      9  C   UNL     1      -3.567 -10.064  11.982  0.00  0.00    +0.044 C 
ATOM     10  C   UNL     1      -5.431 -11.356  15.200  0.00  0.00    +0.013 C 
ATOM     11  C   UNL     1      -1.869 -10.353  13.765  0.00  0.00    +0.007 C 
ATOM     12  C   UNL     1      -2.663 -10.689  16.134  0.00  0.00    +0.009 C 
ATOM     13  C   UNL     1      -2.141 -10.489  12.260  0.00  0.00    +0.008 C 
ATOM     14  C   UNL     1      -5.127 -11.012  16.684  0.00  0.00    +0.076 C 
ATOM     15  C   UNL     1      -3.678 -11.300  17.092  0.00  0.00    +0.023 C 
ATOM     16  C   UNL     1      -4.111 -10.212  10.574  0.00  0.00    +0.101 C 
ATOM     17  C   UNL     1      -2.651 -12.620  14.512  0.00  0.00    +0.011 C 
ATOM     18  C   UNL     1      -6.870 -10.941  14.855  0.00  0.00    +0.010 C 
ATOM     19  C   UNL     1      -5.597 -10.147  10.875  0.00  0.00    +0.311 C 
ATOM     20  C   UNL     1      -3.657  -9.112   9.635  0.00  0.00    +0.019 C 
ENDROOT
BRANCH  14   5
ATOM      3  O   UNL     1      -6.114 -10.085  19.241  0.00  0.00    -0.273 OA
ATOM      5  N   UNL     1      -6.012 -11.717  17.587  0.00  0.00    -0.310 N 
ATOM     21  C   UNL     1      -6.429 -11.185  18.795  0.00  0.00    +0.239 C 
ATOM     24  H   UNL     1      -6.284 -12.665  17.344  0.00  0.00    +0.149 HD
BRANCH  21  22
ATOM     22  C   UNL     1      -7.349 -12.134  19.534  0.00  0.00    +0.255 C 
BRANCH  22   4
ATOM      4  O   UNL     1      -8.479 -11.450  20.029  0.00  0.00    -0.374 OA
ATOM     23  C   UNL     1      -9.459 -11.239  19.016  0.00  0.00    +0.194 C 
ENDBRANCH  22   4
ENDBRANCH  21  22
ENDBRANCH  14   5
TORSDOF 3
ENDMDL
MODEL 5
REMARK VINA RESULT:      -5.8     24.783     27.980
REMARK  Name = 28962876
REMARK  7 active torsions:
REMARK  status: ('A' for Active; 'I' for Inactive)
REMARK    1  A    between atoms: O_4  and  C_22
REMARK    2  A    between atoms: O_4  and  C_23
REMARK    3  A    between atoms: N_5  and  C_14
REMARK    4  A    between atoms: C_7  and  C_17
REMARK    5  A    between atoms: C_10  and  C_18
REMARK    6  A    between atoms: C_16  and  C_20
REMARK    7  A    between atoms: C_21  and  C_22
REMARK                            x       y       z     vdW  Elec       q    Type
REMARK                         _______ _______ _______ _____ _____    ______ ____
ROOT
ATOM      1  O   UNL     1     -16.332   7.041  18.671  0.00  0.00    -0.461 OA
ATOM      2  O   UNL     1     -18.482   6.368  18.212  0.00  0.00    -0.251 OA
ATOM      6  C   UNL     1     -14.023   7.137  19.692  0.00  0.00    +0.041 C 
ATOM      7  C   UNL     1     -13.342   7.055  21.110  0.00  0.00    -0.025 C 
ATOM      8  C   UNL     1     -15.552   7.114  19.868  0.00  0.00    +0.184 C 
ATOM      9  C   UNL     1     -15.974   5.839  20.577  0.00  0.00    +0.044 C 
ATOM     10  C   UNL     1     -13.450   8.313  18.842  0.00  0.00    +0.013 C 
ATOM     11  C   UNL     1     -13.882   5.827  21.906  0.00  0.00    +0.007 C 
ATOM     12  C   UNL     1     -11.820   6.877  20.906  0.00  0.00    +0.009 C 
ATOM     13  C   UNL     1     -15.414   5.761  21.981  0.00  0.00    +0.008 C 
ATOM     14  C   UNL     1     -11.908   8.174  18.717  0.00  0.00    +0.076 C 
ATOM     15  C   UNL     1     -11.202   7.987  20.064  0.00  0.00    +0.023 C 
ATOM     16  C   UNL     1     -17.479   5.901  20.395  0.00  0.00    +0.101 C 
ATOM     17  C   UNL     1     -13.593   8.321  21.969  0.00  0.00    +0.011 C 
ATOM     18  C   UNL     1     -14.080   8.392  17.442  0.00  0.00    +0.010 C 
ATOM     19  C   UNL     1     -17.533   6.440  18.977  0.00  0.00    +0.311 C 
ATOM     20  C   UNL     1     -18.157   4.552  20.533  0.00  0.00    +0.019 C 
ENDROOT
BRANCH  14   5
ATOM      3  O   UNL     1     -10.319   8.140  16.301  0.00  0.00    -0.273 OA
ATOM      5  N   UNL     1     -11.324   9.311  18.040  0.00  0.00    -0.310 N 
ATOM     21  C   UNL     1     -10.574   9.191  16.882  0.00  0.00    +0.239 C 
ATOM     24  H   UNL     1     -11.420  10.225  18.474  0.00  0.00    +0.149 HD
BRANCH  21  22
ATOM     22  C   UNL     1     -10.088  10.538  16.391  0.00  0.00    +0.255 C 
BRANCH  22   4
ATOM      4  O   UNL     1      -9.757  11.375  17.477  0.00  0.00    -0.374 OA
ATOM     23  C   UNL     1      -9.376  12.679  17.046  0.00  0.00    +0.194 C 
ENDBRANCH  22   4
ENDBRANCH  21  22
ENDBRANCH  14   5
TORSDOF 3
ENDMDL
MODEL 6
REMARK VINA RESULT:      -5.8     27.507     28.922
REMARK  Name = 28962876
REMARK  7 active torsions:
REMARK  status: ('A' for Active; 'I' for Inactive)
REMARK    1  A    between atoms: O_4  and  C_22
REMARK    2  A    between atoms: O_4  and  C_23
REMARK    3  A    between atoms: N_5  and  C_14
REMARK    4  A    between atoms: C_7  and  C_17
REMARK    5  A    between atoms: C_10  and  C_18
REMARK    6  A    between atoms: C_16  and  C_20
REMARK    7  A    between atoms: C_21  and  C_22
REMARK                            x       y       z     vdW  Elec       q    Type
REMARK                         _______ _______ _______ _____ _____    ______ ____
ROOT
ATOM      1  O   UNL     1      -5.280 -10.345  12.868  0.00  0.00    -0.461 OA
ATOM      2  O   UNL     1      -4.550 -10.111  10.700  0.00  0.00    -0.251 OA
ATOM      6  C   UNL     1      -5.279 -10.462  15.392  0.00  0.00    +0.041 C 
ATOM      7  C   UNL     1      -4.440 -11.115  16.554  0.00  0.00    -0.025 C 
ATOM      8  C   UNL     1      -4.725 -10.947  14.039  0.00  0.00    +0.184 C 
ATOM      9  C   UNL     1      -3.262 -10.559  13.909  0.00  0.00    +0.044 C 
ATOM     10  C   UNL     1      -6.812 -10.650  15.608  0.00  0.00    +0.013 C 
ATOM     11  C   UNL     1      -2.918 -10.846  16.348  0.00  0.00    +0.007 C 
ATOM     12  C   UNL     1      -4.877 -10.466  17.888  0.00  0.00    +0.009 C 
ATOM     13  C   UNL     1      -2.402 -11.237  14.955  0.00  0.00    +0.008 C 
ATOM     14  C   UNL     1      -7.227 -10.075  16.990  0.00  0.00    +0.076 C 
ATOM     15  C   UNL     1      -6.372 -10.600  18.149  0.00  0.00    +0.023 C 
ATOM     16  C   UNL     1      -3.016 -10.876  12.447  0.00  0.00    +0.101 C 
ATOM     17  C   UNL     1      -4.640 -12.649  16.648  0.00  0.00    +0.011 C 
ATOM     18  C   UNL     1      -7.651  -9.994  14.500  0.00  0.00    +0.010 C 
ATOM     19  C   UNL     1      -4.336 -10.400  11.867  0.00  0.00    +0.311 C 
ATOM     20  C   UNL     1      -1.824 -10.142  11.864  0.00  0.00    +0.019 C 
ENDROOT
BRANCH  14   5
ATOM      3  O   UNL     1      -9.317  -8.128  17.440  0.00  0.00    -0.273 OA
ATOM      5  N   UNL     1      -8.618 -10.340  17.283  0.00  0.00    -0.310 N 
ATOM     21  C   UNL     1      -9.547  -9.334  17.484  0.00  0.00    +0.239 C 
ATOM     24  H   UNL     1      -8.904 -11.307  17.405  0.00  0.00    +0.149 HD
BRANCH  21  22
ATOM     22  C   UNL     1     -10.924  -9.894  17.770  0.00  0.00    +0.255 C 
BRANCH  22   4
ATOM      4  O   UNL     1     -11.374  -9.487  19.044  0.00  0.00    -0.374 OA
ATOM     23  C   UNL     1     -10.860 -10.319  20.080  0.00  0.00    +0.194 C 
ENDBRANCH  22   4
ENDBRANCH  21  22
ENDBRANCH  14   5
TORSDOF 3
ENDMDL
MODEL 7
REMARK VINA RESULT:      -5.5     24.939     27.437
REMARK  Name = 28962876
REMARK  7 active torsions:
REMARK  status: ('A' for Active; 'I' for Inactive)
REMARK    1  A    between atoms: O_4  and  C_22
REMARK    2  A    between atoms: O_4  and  C_23
REMARK    3  A    between atoms: N_5  and  C_14
REMARK    4  A    between atoms: C_7  and  C_17
REMARK    5  A    between atoms: C_10  and  C_18
REMARK    6  A    between atoms: C_16  and  C_20
REMARK    7  A    between atoms: C_21  and  C_22
REMARK                            x       y       z     vdW  Elec       q    Type
REMARK                         _______ _______ _______ _____ _____    ______ ____
ROOT
ATOM      1  O   UNL     1     -13.899  11.097  18.417  0.00  0.00    -0.461 OA
ATOM      2  O   UNL     1     -14.268  13.148  17.443  0.00  0.00    -0.251 OA
ATOM      6  C   UNL     1     -12.744   9.179  19.587  0.00  0.00    +0.041 C 
ATOM      7  C   UNL     1     -11.384   8.388  19.520  0.00  0.00    -0.025 C 
ATOM      8  C   UNL     1     -12.792  10.193  18.429  0.00  0.00    +0.184 C 
ATOM      9  C   UNL     1     -11.622  11.156  18.533  0.00  0.00    +0.044 C 
ATOM     10  C   UNL     1     -13.968   8.219  19.705  0.00  0.00    +0.013 C 
ATOM     11  C   UNL     1     -10.177   9.375  19.476  0.00  0.00    +0.007 C 
ATOM     12  C   UNL     1     -11.265   7.523  20.796  0.00  0.00    +0.009 C 
ATOM     13  C   UNL     1     -10.292  10.447  18.383  0.00  0.00    +0.008 C 
ATOM     14  C   UNL     1     -13.796   7.293  20.940  0.00  0.00    +0.076 C 
ATOM     15  C   UNL     1     -12.443   6.574  20.979  0.00  0.00    +0.023 C 
ATOM     16  C   UNL     1     -12.016  12.191  17.497  0.00  0.00    +0.101 C 
ATOM     17  C   UNL     1     -11.287   7.469  18.275  0.00  0.00    +0.011 C 
ATOM     18  C   UNL     1     -15.303   8.974  19.803  0.00  0.00    +0.010 C 
ATOM     19  C   UNL     1     -13.510  12.244  17.760  0.00  0.00    +0.311 C 
ATOM     20  C   UNL     1     -11.340  13.533  17.700  0.00  0.00    +0.019 C 
ENDROOT
BRANCH  14   5
ATOM      3  O   UNL     1     -15.161   6.374  23.319  0.00  0.00    -0.273 OA
ATOM      5  N   UNL     1     -14.849   6.304  21.016  0.00  0.00    -0.310 N 
ATOM     21  C   UNL     1     -15.443   5.930  22.209  0.00  0.00    +0.239 C 
ATOM     24  H   UNL     1     -15.116   5.825  20.160  0.00  0.00    +0.149 HD
BRANCH  21  22
ATOM     22  C   UNL     1     -16.513   4.881  21.995  0.00  0.00    +0.255 C 
BRANCH  22   4
ATOM      4  O   UNL     1     -16.094   3.631  22.497  0.00  0.00    -0.374 OA
ATOM     23  C   UNL     1     -17.042   3.077  23.406  0.00  0.00    +0.194 C 
ENDBRANCH  22   4
ENDBRANCH  21  22
ENDBRANCH  14   5
TORSDOF 3
ENDMDL
MODEL 8
REMARK VINA RESULT:      -5.5     25.342     27.872
REMARK  Name = 28962876
REMARK  7 active torsions:
REMARK  status: ('A' for Active; 'I' for Inactive)
REMARK    1  A    between atoms: O_4  and  C_22
REMARK    2  A    between atoms: O_4  and  C_23
REMARK    3  A    between atoms: N_5  and  C_14
REMARK    4  A    between atoms: C_7  and  C_17
REMARK    5  A    between atoms: C_10  and  C_18
REMARK    6  A    between atoms: C_16  and  C_20
REMARK    7  A    between atoms: C_21  and  C_22
REMARK                            x       y       z     vdW  Elec       q    Type
REMARK                         _______ _______ _______ _____ _____    ______ ____
ROOT
ATOM      1  O   UNL     1     -13.487   8.134  16.852  0.00  0.00    -0.461 OA
ATOM      2  O   UNL     1     -13.029   8.483  14.626  0.00  0.00    -0.251 OA
ATOM      6  C   UNL     1     -13.394   8.319  19.370  0.00  0.00    +0.041 C 
ATOM      7  C   UNL     1     -12.321   8.363  20.522  0.00  0.00    -0.025 C 
ATOM      8  C   UNL     1     -12.679   8.066  18.029  0.00  0.00    +0.184 C 
ATOM      9  C   UNL     1     -11.671   9.170  17.763  0.00  0.00    +0.044 C 
ATOM     10  C   UNL     1     -14.570   7.352  19.709  0.00  0.00    +0.013 C 
ATOM     11  C   UNL     1     -11.198   9.391  20.186  0.00  0.00    +0.007 C 
ATOM     12  C   UNL     1     -13.027   8.814  21.822  0.00  0.00    +0.009 C 
ATOM     13  C   UNL     1     -10.568   9.192  18.801  0.00  0.00    +0.008 C 
ATOM     14  C   UNL     1     -15.216   7.760  21.062  0.00  0.00    +0.076 C 
ATOM     15  C   UNL     1     -14.201   7.918  22.199  0.00  0.00    +0.023 C 
ATOM     16  C   UNL     1     -11.308   8.877  16.320  0.00  0.00    +0.101 C 
ATOM     17  C   UNL     1     -11.645   6.989  20.764  0.00  0.00    +0.011 C 
ATOM     18  C   UNL     1     -15.643   7.318  18.610  0.00  0.00    +0.010 C 
ATOM     19  C   UNL     1     -12.678   8.490  15.795  0.00  0.00    +0.311 C 
ATOM     20  C   UNL     1     -10.720  10.071  15.593  0.00  0.00    +0.019 C 
ENDROOT
BRANCH  14   5
ATOM      3  O   UNL     1     -14.864   4.937  21.589  0.00  0.00    -0.273 OA
ATOM      5  N   UNL     1     -16.231   6.815  21.474  0.00  0.00    -0.310 N 
ATOM     21  C   UNL     1     -15.962   5.476  21.702  0.00  0.00    +0.239 C 
ATOM     24  H   UNL     1     -17.191   7.143  21.536  0.00  0.00    +0.149 HD
BRANCH  21  22
ATOM     22  C   UNL     1     -17.205   4.721  22.122  0.00  0.00    +0.255 C 
BRANCH  22   4
ATOM      4  O   UNL     1     -17.583   3.791  21.130  0.00  0.00    -0.374 OA
ATOM     23  C   UNL     1     -18.989   3.805  20.897  0.00  0.00    +0.194 C 
ENDBRANCH  22   4
ENDBRANCH  21  22
ENDBRANCH  14   5
TORSDOF 3
ENDMDL
MODEL 9
REMARK VINA RESULT:      -5.5     28.063     29.697
REMARK  Name = 28962876
REMARK  7 active torsions:
REMARK  status: ('A' for Active; 'I' for Inactive)
REMARK    1  A    between atoms: O_4  and  C_22
REMARK    2  A    between atoms: O_4  and  C_23
REMARK    3  A    between atoms: N_5  and  C_14
REMARK    4  A    between atoms: C_7  and  C_17
REMARK    5  A    between atoms: C_10  and  C_18
REMARK    6  A    between atoms: C_16  and  C_20
REMARK    7  A    between atoms: C_21  and  C_22
REMARK                            x       y       z     vdW  Elec       q    Type
REMARK                         _______ _______ _______ _____ _____    ______ ____
ROOT
ATOM      1  O   UNL     1      -5.907  -9.875  13.587  0.00  0.00    -0.461 OA
ATOM      2  O   UNL     1      -6.241 -10.128  15.848  0.00  0.00    -0.251 OA
ATOM      6  C   UNL     1      -5.074 -10.269  11.235  0.00  0.00    +0.041 C 
ATOM      7  C   UNL     1      -3.727 -10.598  10.487  0.00  0.00    -0.025 C 
ATOM      8  C   UNL     1      -4.776 -10.048  12.729  0.00  0.00    +0.184 C 
ATOM      9  C   UNL     1      -4.140 -11.294  13.322  0.00  0.00    +0.044 C 
ATOM     10  C   UNL     1      -5.870  -9.133  10.522  0.00  0.00    +0.013 C 
ATOM     11  C   UNL     1      -2.992 -11.786  11.180  0.00  0.00    +0.007 C 
ATOM     12  C   UNL     1      -4.069 -11.012   9.037  0.00  0.00    +0.009 C 
ATOM     13  C   UNL     1      -2.797 -11.597  12.692  0.00  0.00    +0.008 C 
ATOM     14  C   UNL     1      -6.131  -9.520   9.040  0.00  0.00    +0.076 C 
ATOM     15  C   UNL     1      -4.866  -9.949   8.290  0.00  0.00    +0.023 C 
ATOM     16  C   UNL     1      -4.193 -10.961  14.800  0.00  0.00    +0.101 C 
ATOM     17  C   UNL     1      -2.752  -9.394  10.452  0.00  0.00    +0.011 C 
ATOM     18  C   UNL     1      -7.203  -8.818  11.219  0.00  0.00    +0.010 C 
ATOM     19  C   UNL     1      -5.554 -10.290  14.853  0.00  0.00    +0.311 C 
ATOM     20  C   UNL     1      -4.109 -12.181  15.696  0.00  0.00    +0.019 C 
ENDROOT
BRANCH  14   5
ATOM      3  O   UNL     1      -8.503  -9.675   7.392  0.00  0.00    -0.273 OA
ATOM      5  N   UNL     1      -6.760  -8.440   8.310  0.00  0.00    -0.310 N 
ATOM     21  C   UNL     1      -7.900  -8.616   7.544  0.00  0.00    +0.239 C 
ATOM     24  H   UNL     1      -6.304  -7.532   8.316  0.00  0.00    +0.149 HD
BRANCH  21  22
ATOM     22  C   UNL     1      -8.340  -7.321   6.894  0.00  0.00    +0.255 C 
BRANCH  22   4
ATOM      4  O   UNL     1      -8.040  -6.220   7.723  0.00  0.00    -0.374 OA
ATOM     23  C   UNL     1      -9.210  -5.674   8.326  0.00  0.00    +0.194 C 
ENDBRANCH  22   4
ENDBRANCH  21  22
ENDBRANCH  14   5
TORSDOF 3
ENDMDL
MODEL 10
REMARK VINA RESULT:      -5.4     24.997     27.549
REMARK  Name = 28962876
REMARK  7 active torsions:
REMARK  status: ('A' for Active; 'I' for Inactive)
REMARK    1  A    between atoms: O_4  and  C_22
REMARK    2  A    between atoms: O_4  and  C_23
REMARK    3  A    between atoms: N_5  and  C_14
REMARK    4  A    between atoms: C_7  and  C_17
REMARK    5  A    between atoms: C_10  and  C_18
REMARK    6  A    between atoms: C_16  and  C_20
REMARK    7  A    between atoms: C_21  and  C_22
REMARK                            x       y       z     vdW  Elec       q    Type
REMARK                         _______ _______ _______ _____ _____    ______ ____
ROOT
ATOM      1  O   UNL     1     -15.262   7.328  18.958  0.00  0.00    -0.461 OA
ATOM      2  O   UNL     1     -17.031   6.446  20.131  0.00  0.00    -0.251 OA
ATOM      6  C   UNL     1     -12.902   7.896  18.259  0.00  0.00    +0.041 C 
ATOM      7  C   UNL     1     -11.552   8.385  18.908  0.00  0.00    -0.025 C 
ATOM      8  C   UNL     1     -14.000   7.880  19.339  0.00  0.00    +0.184 C 
ATOM      9  C   UNL     1     -13.599   6.953  20.473  0.00  0.00    +0.044 C 
ATOM     10  C   UNL     1     -13.237   8.683  16.955  0.00  0.00    +0.013 C 
ATOM     11  C   UNL     1     -11.207   7.530  20.165  0.00  0.00    +0.007 C 
ATOM     12  C   UNL     1     -10.423   8.204  17.867  0.00  0.00    +0.009 C 
ATOM     13  C   UNL     1     -12.352   7.436  21.184  0.00  0.00    +0.008 C 
ATOM     14  C   UNL     1     -12.058   8.570  15.950  0.00  0.00    +0.076 C 
ATOM     15  C   UNL     1     -10.700   8.936  16.559  0.00  0.00    +0.023 C 
ATOM     16  C   UNL     1     -14.900   6.881  21.250  0.00  0.00    +0.101 C 
ATOM     17  C   UNL     1     -11.602   9.871  19.346  0.00  0.00    +0.011 C 
ATOM     18  C   UNL     1     -14.535   8.200  16.290  0.00  0.00    +0.010 C 
ATOM     19  C   UNL     1     -15.877   6.840  20.090  0.00  0.00    +0.311 C 
ATOM     20  C   UNL     1     -15.000   5.660  22.142  0.00  0.00    +0.019 C 
ENDROOT
BRANCH  14   5
ATOM      3  O   UNL     1     -11.141   8.042  13.258  0.00  0.00    -0.273 OA
ATOM      5  N   UNL     1     -12.276   9.387  14.777  0.00  0.00    -0.310 N 
ATOM     21  C   UNL     1     -11.793   9.047  13.525  0.00  0.00    +0.239 C 
ATOM     24  H   UNL     1     -12.751  10.277  14.898  0.00  0.00    +0.149 HD
BRANCH  21  22
ATOM     22  C   UNL     1     -12.170  10.080  12.483  0.00  0.00    +0.255 C 
BRANCH  22   4
ATOM      4  O   UNL     1     -11.582   9.769  11.238  0.00  0.00    -0.374 OA
ATOM     23  C   UNL     1     -11.947  10.707  10.229  0.00  0.00    +0.194 C 
ENDBRANCH  22   4
ENDBRANCH  21  22
ENDBRANCH  14   5
TORSDOF 3
ENDMDL
