MODEL 1
REMARK VINA RESULT:      -5.9      0.000      0.000
REMARK  Name = 75367633
REMARK  4 active torsions:
REMARK  status: ('A' for Active; 'I' for Inactive)
REMARK    1  A    between atoms: O_3  and  C_12
REMARK    2  A    between atoms: O_3  and  C_15
REMARK    3  A    between atoms: C_6  and  C_9
REMARK    4  A    between atoms: C_17  and  C_20
REMARK                            x       y       z     vdW  Elec       q    Type
REMARK                         _______ _______ _______ _____ _____    ______ ____
ROOT
ATOM      1  O   UNL     1      14.873   8.446  20.945  0.00  0.00    -0.375 OA
ATOM      2  O   UNL     1      10.337   8.718  18.535  0.00  0.00    -0.275 OA
ATOM      4  N   UNL     1      12.355   7.882  19.367  0.00  0.00    -0.295 N 
ATOM      9  C   UNL     1      11.484   8.318  18.353  0.00  0.00    +0.219 C 
ATOM     10  C   UNL     1      11.893   7.918  20.756  0.00  0.00    +0.154 C 
ATOM     11  C   UNL     1      13.717   7.417  19.079  0.00  0.00    +0.136 C 
ATOM     12  C   UNL     1      12.559   9.041  21.552  0.00  0.00    +0.218 C 
ATOM     13  C   UNL     1      14.632   7.210  20.278  0.00  0.00    +0.179 C 
ATOM     14  C   UNL     1      13.972   8.694  22.017  0.00  0.00    +0.206 C 
ENDROOT
BRANCH   9   6
ATOM      6  C   UNL     1      12.010   8.312  16.953  0.00  0.00    +0.075 C 
ATOM      7  C   UNL     1      12.570   9.579  16.402  0.00  0.00    +0.013 C 
ATOM      8  C   UNL     1      11.253   9.060  15.908  0.00  0.00    +0.013 C 
ENDBRANCH   9   6
BRANCH  12   3
ATOM      3  O   UNL     1      11.755   9.302  22.700  0.00  0.00    -0.469 OA
BRANCH   3  15
ATOM      5  N   UNL     1      11.503  11.452  21.872  0.00  0.00    -0.218 NA
ATOM     15  C   UNL     1      11.409  10.607  22.923  0.00  0.00    +0.215 A 
ATOM     16  C   UNL     1      10.991  10.985  24.189  0.00  0.00    +0.067 A 
ATOM     17  C   UNL     1      11.160  12.740  22.105  0.00  0.00    +0.042 A 
ATOM     18  C   UNL     1      10.647  12.317  24.388  0.00  0.00    +0.007 A 
ATOM     19  C   UNL     1      10.731  13.218  23.333  0.00  0.00    +0.023 A 
ATOM     20  C   UNL     1      11.265  13.679  20.950  0.00  0.00    +0.066 C 
ENDBRANCH   3  15
ENDBRANCH  12   3
TORSDOF 3
ENDMDL
MODEL 2
REMARK VINA RESULT:      -5.8      2.848      5.892
REMARK  Name = 75367633
REMARK  4 active torsions:
REMARK  status: ('A' for Active; 'I' for Inactive)
REMARK    1  A    between atoms: O_3  and  C_12
REMARK    2  A    between atoms: O_3  and  C_15
REMARK    3  A    between atoms: C_6  and  C_9
REMARK    4  A    between atoms: C_17  and  C_20
REMARK                            x       y       z     vdW  Elec       q    Type
REMARK                         _______ _______ _______ _____ _____    ______ ____
ROOT
ATOM      1  O   UNL     1      14.121  10.350  21.525  0.00  0.00    -0.375 OA
ATOM      2  O   UNL     1      15.907   6.123  19.201  0.00  0.00    -0.275 OA
ATOM      4  N   UNL     1      15.261   7.626  20.870  0.00  0.00    -0.295 N 
ATOM      9  C   UNL     1      16.192   6.896  20.112  0.00  0.00    +0.219 C 
ATOM     10  C   UNL     1      13.837   7.491  20.556  0.00  0.00    +0.154 C 
ATOM     11  C   UNL     1      15.672   8.535  21.947  0.00  0.00    +0.136 C 
ATOM     12  C   UNL     1      13.283   8.736  19.862  0.00  0.00    +0.218 C 
ATOM     13  C   UNL     1      14.593   9.444  22.518  0.00  0.00    +0.179 C 
ATOM     14  C   UNL     1      12.975   9.879  20.827  0.00  0.00    +0.206 C 
ENDROOT
BRANCH   9   6
ATOM      6  C   UNL     1      17.640   7.098  20.430  0.00  0.00    +0.075 C 
ATOM      7  C   UNL     1      18.616   6.066  19.977  0.00  0.00    +0.013 C 
ATOM      8  C   UNL     1      18.279   6.197  21.432  0.00  0.00    +0.013 C 
ENDBRANCH   9   6
BRANCH  12   3
ATOM      3  O   UNL     1      12.077   8.367  19.197  0.00  0.00    -0.469 OA
BRANCH   3  15
ATOM      5  N   UNL     1      13.008   9.399  17.342  0.00  0.00    -0.218 NA
ATOM     15  C   UNL     1      11.953   8.757  17.891  0.00  0.00    +0.215 A 
ATOM     16  C   UNL     1      10.776   8.480  17.215  0.00  0.00    +0.067 A 
ATOM     17  C   UNL     1      12.873   9.781  16.051  0.00  0.00    +0.042 A 
ATOM     18  C   UNL     1      10.675   8.889  15.891  0.00  0.00    +0.007 A 
ATOM     19  C   UNL     1      11.738   9.553  15.290  0.00  0.00    +0.023 A 
ATOM     20  C   UNL     1      14.033  10.494  15.440  0.00  0.00    +0.066 C 
ENDBRANCH   3  15
ENDBRANCH  12   3
TORSDOF 3
ENDMDL
MODEL 3
REMARK VINA RESULT:      -5.8      2.087      6.337
REMARK  Name = 75367633
REMARK  4 active torsions:
REMARK  status: ('A' for Active; 'I' for Inactive)
REMARK    1  A    between atoms: O_3  and  C_12
REMARK    2  A    between atoms: O_3  and  C_15
REMARK    3  A    between atoms: C_6  and  C_9
REMARK    4  A    between atoms: C_17  and  C_20
REMARK                            x       y       z     vdW  Elec       q    Type
REMARK                         _______ _______ _______ _____ _____    ______ ____
ROOT
ATOM      1  O   UNL     1      10.692   8.023  20.075  0.00  0.00    -0.375 OA
ATOM      2  O   UNL     1      13.003  11.576  22.990  0.00  0.00    -0.275 OA
ATOM      4  N   UNL     1      12.008   9.571  22.316  0.00  0.00    -0.295 N 
ATOM      9  C   UNL     1      12.067  10.781  23.028  0.00  0.00    +0.219 C 
ATOM     10  C   UNL     1      13.124   9.216  21.436  0.00  0.00    +0.154 C 
ATOM     11  C   UNL     1      10.856   8.667  22.407  0.00  0.00    +0.136 C 
ATOM     12  C   UNL     1      12.758   9.362  19.959  0.00  0.00    +0.218 C 
ATOM     13  C   UNL     1      10.809   7.522  21.404  0.00  0.00    +0.179 C 
ATOM     14  C   UNL     1      11.944   8.187  19.421  0.00  0.00    +0.206 C 
ENDROOT
BRANCH   9   6
ATOM      6  C   UNL     1      10.886  11.132  23.877  0.00  0.00    +0.075 C 
ATOM      7  C   UNL     1      10.586  12.572  24.113  0.00  0.00    +0.013 C 
ATOM      8  C   UNL     1      11.131  11.725  25.223  0.00  0.00    +0.013 C 
ENDBRANCH   9   6
BRANCH  12   3
ATOM      3  O   UNL     1      13.970   9.453  19.214  0.00  0.00    -0.469 OA
BRANCH   3  15
ATOM      5  N   UNL     1      15.949   9.049  20.351  0.00  0.00    -0.218 NA
ATOM     15  C   UNL     1      14.966   8.578  19.551  0.00  0.00    +0.215 A 
ATOM     16  C   UNL     1      14.917   7.282  19.064  0.00  0.00    +0.067 A 
ATOM     17  C   UNL     1      16.929   8.175  20.676  0.00  0.00    +0.042 A 
ATOM     18  C   UNL     1      15.942   6.414  19.420  0.00  0.00    +0.007 A 
ATOM     19  C   UNL     1      16.971   6.860  20.241  0.00  0.00    +0.023 A 
ATOM     20  C   UNL     1      18.019   8.689  21.556  0.00  0.00    +0.066 C 
ENDBRANCH   3  15
ENDBRANCH  12   3
TORSDOF 3
ENDMDL
MODEL 4
REMARK VINA RESULT:      -5.6      1.961      6.065
REMARK  Name = 75367633
REMARK  4 active torsions:
REMARK  status: ('A' for Active; 'I' for Inactive)
REMARK    1  A    between atoms: O_3  and  C_12
REMARK    2  A    between atoms: O_3  and  C_15
REMARK    3  A    between atoms: C_6  and  C_9
REMARK    4  A    between atoms: C_17  and  C_20
REMARK                            x       y       z     vdW  Elec       q    Type
REMARK                         _______ _______ _______ _____ _____    ______ ____
ROOT
ATOM      1  O   UNL     1      10.581   7.704  20.516  0.00  0.00    -0.375 OA
ATOM      2  O   UNL     1      13.021  11.493  22.997  0.00  0.00    -0.275 OA
ATOM      4  N   UNL     1      11.910   9.480  22.572  0.00  0.00    -0.295 N 
ATOM      9  C   UNL     1      12.027  10.778  23.100  0.00  0.00    +0.219 C 
ATOM     10  C   UNL     1      13.033   8.923  21.817  0.00  0.00    +0.154 C 
ATOM     11  C   UNL     1      10.690   8.680  22.733  0.00  0.00    +0.136 C 
ATOM     12  C   UNL     1      12.744   8.868  20.317  0.00  0.00    +0.218 C 
ATOM     13  C   UNL     1      10.601   7.403  21.909  0.00  0.00    +0.179 C 
ATOM     14  C   UNL     1      11.868   7.683  19.914  0.00  0.00    +0.206 C 
ENDROOT
BRANCH   9   6
ATOM      6  C   UNL     1      10.840  11.331  23.823  0.00  0.00    +0.075 C 
ATOM      7  C   UNL     1      10.744  12.808  24.002  0.00  0.00    +0.013 C 
ATOM      8  C   UNL     1      11.046  11.925  25.175  0.00  0.00    +0.013 C 
ENDBRANCH   9   6
BRANCH  12   3
ATOM      3  O   UNL     1      13.991   8.764  19.633  0.00  0.00    -0.469 OA
BRANCH   3  15
ATOM      5  N   UNL     1      14.128  10.652  18.295  0.00  0.00    -0.218 NA
ATOM     15  C   UNL     1      14.049   9.305  18.377  0.00  0.00    +0.215 A 
ATOM     16  C   UNL     1      14.022   8.460  17.279  0.00  0.00    +0.067 A 
ATOM     17  C   UNL     1      14.182  11.175  17.048  0.00  0.00    +0.042 A 
ATOM     18  C   UNL     1      14.080   9.036  16.015  0.00  0.00    +0.007 A 
ATOM     19  C   UNL     1      14.162  10.418  15.888  0.00  0.00    +0.023 A 
ATOM     20  C   UNL     1      14.266  12.662  16.951  0.00  0.00    +0.066 C 
ENDBRANCH   3  15
ENDBRANCH  12   3
TORSDOF 3
ENDMDL
MODEL 5
REMARK VINA RESULT:      -5.6      2.884      6.368
REMARK  Name = 75367633
REMARK  4 active torsions:
REMARK  status: ('A' for Active; 'I' for Inactive)
REMARK    1  A    between atoms: O_3  and  C_12
REMARK    2  A    between atoms: O_3  and  C_15
REMARK    3  A    between atoms: C_6  and  C_9
REMARK    4  A    between atoms: C_17  and  C_20
REMARK                            x       y       z     vdW  Elec       q    Type
REMARK                         _______ _______ _______ _____ _____    ______ ____
ROOT
ATOM      1  O   UNL     1      11.421   7.349  20.462  0.00  0.00    -0.375 OA
ATOM      2  O   UNL     1      14.753  11.262  20.682  0.00  0.00    -0.275 OA
ATOM      4  N   UNL     1      12.848   9.955  21.033  0.00  0.00    -0.295 N 
ATOM      9  C   UNL     1      13.558  11.044  20.499  0.00  0.00    +0.219 C 
ATOM     10  C   UNL     1      13.567   8.978  21.853  0.00  0.00    +0.154 C 
ATOM     11  C   UNL     1      11.418   9.754  20.773  0.00  0.00    +0.136 C 
ATOM     12  C   UNL     1      13.778   7.656  21.116  0.00  0.00    +0.218 C 
ATOM     13  C   UNL     1      10.831   8.416  21.200  0.00  0.00    +0.179 C 
ATOM     14  C   UNL     1      12.540   6.761  21.115  0.00  0.00    +0.206 C 
ENDROOT
BRANCH   9   6
ATOM      6  C   UNL     1      12.799  11.992  19.626  0.00  0.00    +0.075 C 
ATOM      7  C   UNL     1      13.538  13.128  19.004  0.00  0.00    +0.013 C 
ATOM      8  C   UNL     1      12.569  13.381  20.119  0.00  0.00    +0.013 C 
ENDBRANCH   9   6
BRANCH  12   3
ATOM      3  O   UNL     1      14.841   6.958  21.762  0.00  0.00    -0.469 OA
BRANCH   3  15
ATOM      5  N   UNL     1      17.137   6.693  21.586  0.00  0.00    -0.218 NA
ATOM     15  C   UNL     1      15.924   6.640  20.989  0.00  0.00    +0.215 A 
ATOM     16  C   UNL     1      15.726   6.288  19.664  0.00  0.00    +0.067 A 
ATOM     17  C   UNL     1      18.200   6.379  20.811  0.00  0.00    +0.042 A 
ATOM     18  C   UNL     1      16.844   5.972  18.901  0.00  0.00    +0.007 A 
ATOM     19  C   UNL     1      18.108   6.016  19.477  0.00  0.00    +0.023 A 
ATOM     20  C   UNL     1      19.542   6.439  21.462  0.00  0.00    +0.066 C 
ENDBRANCH   3  15
ENDBRANCH  12   3
TORSDOF 3
ENDMDL
MODEL 6
REMARK VINA RESULT:      -5.4     13.837     18.288
REMARK  Name = 75367633
REMARK  4 active torsions:
REMARK  status: ('A' for Active; 'I' for Inactive)
REMARK    1  A    between atoms: O_3  and  C_12
REMARK    2  A    between atoms: O_3  and  C_15
REMARK    3  A    between atoms: C_6  and  C_9
REMARK    4  A    between atoms: C_17  and  C_20
REMARK                            x       y       z     vdW  Elec       q    Type
REMARK                         _______ _______ _______ _____ _____    ______ ____
ROOT
ATOM      1  O   UNL     1      13.676   7.532   5.064  0.00  0.00    -0.375 OA
ATOM      2  O   UNL     1       9.328   4.923   5.932  0.00  0.00    -0.275 OA
ATOM      4  N   UNL     1      10.927   6.628   5.944  0.00  0.00    -0.295 N 
ATOM      9  C   UNL     1      10.160   5.604   6.527  0.00  0.00    +0.219 C 
ATOM     10  C   UNL     1      10.759   6.909   4.517  0.00  0.00    +0.154 C 
ATOM     11  C   UNL     1      11.905   7.404   6.715  0.00  0.00    +0.136 C 
ATOM     12  C   UNL     1      11.952   6.424   3.694  0.00  0.00    +0.218 C 
ATOM     13  C   UNL     1      12.838   8.305   5.918  0.00  0.00    +0.179 C 
ATOM     14  C   UNL     1      13.150   7.369   3.752  0.00  0.00    +0.206 C 
ENDROOT
BRANCH   9   6
ATOM      6  C   UNL     1      10.396   5.314   7.975  0.00  0.00    +0.075 C 
ATOM      7  C   UNL     1       9.667   4.171   8.596  0.00  0.00    +0.013 C 
ATOM      8  C   UNL     1       9.291   5.581   8.941  0.00  0.00    +0.013 C 
ENDBRANCH   9   6
BRANCH  12   3
ATOM      3  O   UNL     1      11.530   6.310   2.336  0.00  0.00    -0.469 OA
BRANCH   3  15
ATOM      5  N   UNL     1      12.523   5.703   0.332  0.00  0.00    -0.218 NA
ATOM     15  C   UNL     1      12.147   5.349   1.581  0.00  0.00    +0.215 A 
ATOM     16  C   UNL     1      12.347   4.091   2.126  0.00  0.00    +0.067 A 
ATOM     17  C   UNL     1      13.130   4.745  -0.406  0.00  0.00    +0.042 A 
ATOM     18  C   UNL     1      12.974   3.134   1.336  0.00  0.00    +0.007 A 
ATOM     19  C   UNL     1      13.375   3.458   0.046  0.00  0.00    +0.023 A 
ATOM     20  C   UNL     1      13.545   5.127  -1.787  0.00  0.00    +0.066 C 
ENDBRANCH   3  15
ENDBRANCH  12   3
TORSDOF 3
ENDMDL
MODEL 7
REMARK VINA RESULT:      -5.3     22.954     24.127
REMARK  Name = 75367633
REMARK  4 active torsions:
REMARK  status: ('A' for Active; 'I' for Inactive)
REMARK    1  A    between atoms: O_3  and  C_12
REMARK    2  A    between atoms: O_3  and  C_15
REMARK    3  A    between atoms: C_6  and  C_9
REMARK    4  A    between atoms: C_17  and  C_20
REMARK                            x       y       z     vdW  Elec       q    Type
REMARK                         _______ _______ _______ _____ _____    ______ ____
ROOT
ATOM      1  O   UNL     1     -11.734  12.568  17.574  0.00  0.00    -0.375 OA
ATOM      2  O   UNL     1     -10.409   7.703  16.550  0.00  0.00    -0.275 OA
ATOM      4  N   UNL     1     -10.355  10.038  16.652  0.00  0.00    -0.295 N 
ATOM      9  C   UNL     1     -10.491   8.799  16.001  0.00  0.00    +0.219 C 
ATOM     10  C   UNL     1     -10.122  10.053  18.097  0.00  0.00    +0.154 C 
ATOM     11  C   UNL     1     -10.465  11.313  15.933  0.00  0.00    +0.136 C 
ATOM     12  C   UNL     1     -11.360  10.506  18.872  0.00  0.00    +0.218 C 
ATOM     13  C   UNL     1     -10.547  12.570  16.787  0.00  0.00    +0.179 C 
ATOM     14  C   UNL     1     -11.550  12.021  18.874  0.00  0.00    +0.206 C 
ENDROOT
BRANCH   9   6
ATOM      6  C   UNL     1     -10.777   8.827  14.533  0.00  0.00    +0.075 C 
ATOM      7  C   UNL     1     -11.880   7.971  14.011  0.00  0.00    +0.013 C 
ATOM      8  C   UNL     1     -10.452   7.617  13.725  0.00  0.00    +0.013 C 
ENDBRANCH   9   6
BRANCH  12   3
ATOM      3  O   UNL     1     -11.219  10.065  20.221  0.00  0.00    -0.469 OA
BRANCH   3  15
ATOM      5  N   UNL     1     -13.202   9.198  21.051  0.00  0.00    -0.218 NA
ATOM     15  C   UNL     1     -11.952   8.969  20.588  0.00  0.00    +0.215 A 
ATOM     16  C   UNL     1     -11.386   7.710  20.471  0.00  0.00    +0.067 A 
ATOM     17  C   UNL     1     -13.916   8.108  21.413  0.00  0.00    +0.042 A 
ATOM     18  C   UNL     1     -12.152   6.615  20.853  0.00  0.00    +0.007 A 
ATOM     19  C   UNL     1     -13.442   6.808  21.334  0.00  0.00    +0.023 A 
ATOM     20  C   UNL     1     -15.295   8.353  21.928  0.00  0.00    +0.066 C 
ENDBRANCH   3  15
ENDBRANCH  12   3
TORSDOF 3
ENDMDL
MODEL 8
REMARK VINA RESULT:      -5.3     26.585     28.003
REMARK  Name = 75367633
REMARK  4 active torsions:
REMARK  status: ('A' for Active; 'I' for Inactive)
REMARK    1  A    between atoms: O_3  and  C_12
REMARK    2  A    between atoms: O_3  and  C_15
REMARK    3  A    between atoms: C_6  and  C_9
REMARK    4  A    between atoms: C_17  and  C_20
REMARK                            x       y       z     vdW  Elec       q    Type
REMARK                         _______ _______ _______ _____ _____    ______ ____
ROOT
ATOM      1  O   UNL     1      -4.996 -14.089  14.147  0.00  0.00    -0.375 OA
ATOM      2  O   UNL     1      -4.448  -9.954  17.159  0.00  0.00    -0.275 OA
ATOM      4  N   UNL     1      -4.397 -12.166  16.405  0.00  0.00    -0.295 N 
ATOM      9  C   UNL     1      -4.869 -11.107  17.200  0.00  0.00    +0.219 C 
ATOM     10  C   UNL     1      -3.338 -11.897  15.429  0.00  0.00    +0.154 C 
ATOM     11  C   UNL     1      -4.948 -13.523  16.505  0.00  0.00    +0.136 C 
ATOM     12  C   UNL     1      -3.866 -11.903  13.995  0.00  0.00    +0.218 C 
ATOM     13  C   UNL     1      -4.525 -14.509  15.425  0.00  0.00    +0.179 C 
ATOM     14  C   UNL     1      -4.051 -13.308  13.426  0.00  0.00    +0.206 C 
ENDROOT
BRANCH   9   6
ATOM      6  C   UNL     1      -5.985 -11.411  18.149  0.00  0.00    +0.075 C 
ATOM      7  C   UNL     1      -6.428 -10.341  19.087  0.00  0.00    +0.013 C 
ATOM      8  C   UNL     1      -5.669 -11.527  19.601  0.00  0.00    +0.013 C 
ENDBRANCH   9   6
BRANCH  12   3
ATOM      3  O   UNL     1      -2.929 -11.203  13.180  0.00  0.00    -0.469 OA
BRANCH   3  15
ATOM      5  N   UNL     1      -4.753 -10.085  12.288  0.00  0.00    -0.218 NA
ATOM     15  C   UNL     1      -3.447 -10.418  12.186  0.00  0.00    +0.215 A 
ATOM     16  C   UNL     1      -2.622 -10.016  11.147  0.00  0.00    +0.067 A 
ATOM     17  C   UNL     1      -5.254  -9.310  11.298  0.00  0.00    +0.042 A 
ATOM     18  C   UNL     1      -3.174  -9.220  10.150  0.00  0.00    +0.007 A 
ATOM     19  C   UNL     1      -4.514  -8.856  10.218  0.00  0.00    +0.023 A 
ATOM     20  C   UNL     1      -6.696  -8.941  11.403  0.00  0.00    +0.066 C 
ENDBRANCH   3  15
ENDBRANCH  12   3
TORSDOF 3
ENDMDL
MODEL 9
REMARK VINA RESULT:      -5.2     26.367     28.338
REMARK  Name = 75367633
REMARK  4 active torsions:
REMARK  status: ('A' for Active; 'I' for Inactive)
REMARK    1  A    between atoms: O_3  and  C_12
REMARK    2  A    between atoms: O_3  and  C_15
REMARK    3  A    between atoms: C_6  and  C_9
REMARK    4  A    between atoms: C_17  and  C_20
REMARK                            x       y       z     vdW  Elec       q    Type
REMARK                         _______ _______ _______ _____ _____    ______ ____
ROOT
ATOM      1  O   UNL     1      -6.929 -13.319  17.850  0.00  0.00    -0.375 OA
ATOM      2  O   UNL     1      -8.479  -8.456  17.204  0.00  0.00    -0.275 OA
ATOM      4  N   UNL     1      -8.166 -10.574  18.143  0.00  0.00    -0.295 N 
ATOM      9  C   UNL     1      -8.918  -9.555  17.533  0.00  0.00    +0.219 C 
ATOM     10  C   UNL     1      -6.743 -10.342  18.397  0.00  0.00    +0.154 C 
ATOM     11  C   UNL     1      -8.756 -11.867  18.509  0.00  0.00    +0.136 C 
ATOM     12  C   UNL     1      -5.853 -11.139  17.443  0.00  0.00    +0.218 C 
ATOM     13  C   UNL     1      -7.786 -12.961  18.931  0.00  0.00    +0.179 C 
ATOM     14  C   UNL     1      -5.699 -12.605  17.843  0.00  0.00    +0.206 C 
ENDROOT
BRANCH   9   6
ATOM      6  C   UNL     1     -10.357  -9.848  17.244  0.00  0.00    +0.075 C 
ATOM      7  C   UNL     1     -11.232  -8.727  16.799  0.00  0.00    +0.013 C 
ATOM      8  C   UNL     1     -11.391  -9.307  18.173  0.00  0.00    +0.013 C 
ENDBRANCH   9   6
BRANCH  12   3
ATOM      3  O   UNL     1      -4.563 -10.532  17.437  0.00  0.00    -0.469 OA
BRANCH   3  15
ATOM      5  N   UNL     1      -4.601 -10.543  15.119  0.00  0.00    -0.218 NA
ATOM     15  C   UNL     1      -3.871 -10.574  16.257  0.00  0.00    +0.215 A 
ATOM     16  C   UNL     1      -2.488 -10.646  16.290  0.00  0.00    +0.067 A 
ATOM     17  C   UNL     1      -3.906 -10.586  13.959  0.00  0.00    +0.042 A 
ATOM     18  C   UNL     1      -1.810 -10.689  15.078  0.00  0.00    +0.007 A 
ATOM     19  C   UNL     1      -2.524 -10.659  13.885  0.00  0.00    +0.023 A 
ATOM     20  C   UNL     1      -4.705 -10.556  12.700  0.00  0.00    +0.066 C 
ENDBRANCH   3  15
ENDBRANCH  12   3
TORSDOF 3
ENDMDL
MODEL 10
REMARK VINA RESULT:      -5.1     12.668     14.662
REMARK  Name = 75367633
REMARK  4 active torsions:
REMARK  status: ('A' for Active; 'I' for Inactive)
REMARK    1  A    between atoms: O_3  and  C_12
REMARK    2  A    between atoms: O_3  and  C_15
REMARK    3  A    between atoms: C_6  and  C_9
REMARK    4  A    between atoms: C_17  and  C_20
REMARK                            x       y       z     vdW  Elec       q    Type
REMARK                         _______ _______ _______ _____ _____    ______ ____
ROOT
ATOM      1  O   UNL     1       9.934  11.376   5.674  0.00  0.00    -0.375 OA
ATOM      2  O   UNL     1      13.228   7.704   7.133  0.00  0.00    -0.275 OA
ATOM      4  N   UNL     1      12.194   9.789   6.907  0.00  0.00    -0.295 N 
ATOM      9  C   UNL     1      13.221   8.852   6.696  0.00  0.00    +0.219 C 
ATOM     10  C   UNL     1      11.022   9.384   7.685  0.00  0.00    +0.154 C 
ATOM     11  C   UNL     1      12.251  11.146   6.353  0.00  0.00    +0.136 C 
ATOM     12  C   UNL     1       9.788   9.190   6.803  0.00  0.00    +0.218 C 
ATOM     13  C   UNL     1      10.975  11.971   6.445  0.00  0.00    +0.179 C 
ATOM     14  C   UNL     1       9.103  10.502   6.426  0.00  0.00    +0.206 C 
ENDROOT
BRANCH   9   6
ATOM      6  C   UNL     1      14.380   9.287   5.855  0.00  0.00    +0.075 C 
ATOM      7  C   UNL     1      15.043   8.274   4.985  0.00  0.00    +0.013 C 
ATOM      8  C   UNL     1      15.740   8.790   6.209  0.00  0.00    +0.013 C 
ENDBRANCH   9   6
BRANCH  12   3
ATOM      3  O   UNL     1       8.858   8.382   7.520  0.00  0.00    -0.469 OA
BRANCH   3  15
ATOM      5  N   UNL     1       8.996   6.504   8.871  0.00  0.00    -0.218 NA
ATOM     15  C   UNL     1       9.170   7.056   7.650  0.00  0.00    +0.215 A 
ATOM     16  C   UNL     1       9.641   6.364   6.545  0.00  0.00    +0.067 A 
ATOM     17  C   UNL     1       9.310   5.193   8.988  0.00  0.00    +0.042 A 
ATOM     18  C   UNL     1       9.952   5.019   6.705  0.00  0.00    +0.007 A 
ATOM     19  C   UNL     1       9.787   4.414   7.946  0.00  0.00    +0.023 A 
ATOM     20  C   UNL     1       9.123   4.578  10.335  0.00  0.00    +0.066 C 
ENDBRANCH   3  15
ENDBRANCH  12   3
TORSDOF 3
ENDMDL
