MODEL 1
REMARK VINA RESULT:      -6.5      0.000      0.000
REMARK  Name = 26742081
REMARK  7 active torsions:
REMARK  status: ('A' for Active; 'I' for Inactive)
REMARK    1  A    between atoms: O_4  and  C_12
REMARK    2  A    between atoms: O_7  and  C_28
REMARK    3  A    between atoms: O_7  and  C_32
REMARK    4  A    between atoms: N_9  and  C_11
REMARK    5  A    between atoms: N_10  and  C_20
REMARK    6  A    between atoms: C_18  and  C_19
REMARK    7  A    between atoms: C_25  and  C_31
REMARK                            x       y       z     vdW  Elec       q    Type
REMARK                         _______ _______ _______ _____ _____    ______ ____
ROOT
ATOM      5  O   UNL     1      -2.533  -9.749  11.468  0.00  0.00    -0.252 OA
ATOM      8  N   UNL     1      -4.398 -10.748  10.538  0.00  0.00    -0.284 N 
ATOM     10  N   UNL     1      -3.922 -11.009  12.838  0.00  0.00    -0.269 N 
ATOM     11  C   UNL     1      -6.875 -10.636  10.985  0.00  0.00    +0.119 C 
ATOM     12  C   UNL     1      -6.916  -9.218  10.388  0.00  0.00    +0.136 C 
ATOM     13  C   UNL     1      -6.377  -9.079   8.961  0.00  0.00    +0.035 C 
ATOM     14  C   UNL     1      -5.659 -11.497  10.616  0.00  0.00    +0.134 C 
ATOM     15  C   UNL     1      -4.854  -8.930   8.901  0.00  0.00    +0.022 C 
ATOM     16  C   UNL     1      -4.082 -10.206   9.214  0.00  0.00    +0.109 C 
ATOM     17  C   UNL     1      -3.535 -10.450  11.620  0.00  0.00    +0.307 C 
ATOM     35  H   UNL     1      -4.777 -11.552  12.869  0.00  0.00    +0.156 HD
ENDROOT
BRANCH  10  20
ATOM     20  C   UNL     1      -3.273 -10.895  14.094  0.00  0.00    +0.035 A 
ATOM     23  C   UNL     1      -3.973 -11.170  15.268  0.00  0.00    +0.035 A 
ATOM     24  C   UNL     1      -1.935 -10.508  14.154  0.00  0.00    +0.023 A 
ATOM     25  C   UNL     1      -3.334 -11.058  16.503  0.00  0.00    +0.057 A 
ATOM     29  C   UNL     1      -1.296 -10.396  15.389  0.00  0.00    +0.002 A 
ATOM     30  C   UNL     1      -1.995 -10.672  16.563  0.00  0.00    +0.012 A 
BRANCH  25  31
ATOM      1  F   UNL     1      -3.279 -11.698  18.808  0.00  0.00    -0.166 F 
ATOM      2  F   UNL     1      -4.964 -12.383  17.617  0.00  0.00    -0.166 F 
ATOM      3  F   UNL     1      -4.822 -10.297  18.214  0.00  0.00    -0.166 F 
ATOM     31  C   UNL     1      -4.082 -11.351  17.760  0.00  0.00    +0.417 C 
ENDBRANCH  25  31
ENDBRANCH  10  20
BRANCH  11   9
ATOM      6  O   UNL     1      -8.157 -12.546  12.701  0.00  0.00    -0.270 OA
ATOM      9  N   UNL     1      -7.018 -10.546  12.425  0.00  0.00    -0.305 N 
ATOM     18  C   UNL     1      -7.656 -11.524  13.164  0.00  0.00    +0.244 C 
ATOM     33  H   UNL     1      -6.531  -9.788  12.893  0.00  0.00    +0.149 HD
BRANCH  18  19
ATOM     19  C   UNL     1      -7.743 -11.270  14.625  0.00  0.00    +0.037 A 
ATOM     21  C   UNL     1      -8.040 -12.317  15.498  0.00  0.00    +0.016 A 
ATOM     22  C   UNL     1      -7.531  -9.984  15.124  0.00  0.00    +0.016 A 
ATOM     26  C   UNL     1      -8.125 -12.078  16.870  0.00  0.00    +0.046 A 
ATOM     27  C   UNL     1      -7.614  -9.746  16.496  0.00  0.00    +0.046 A 
ATOM     28  C   UNL     1      -7.911 -10.793  17.368  0.00  0.00    +0.120 A 
BRANCH  28   7
ATOM      7  O   UNL     1      -7.993 -10.559  18.707  0.00  0.00    -0.495 OA
ATOM     32  C   UNL     1      -7.656 -11.639  19.577  0.00  0.00    +0.277 C 
ENDBRANCH  28   7
ENDBRANCH  18  19
ENDBRANCH  11   9
BRANCH  12   4
ATOM      4  O   UNL     1      -8.287  -8.797  10.360  0.00  0.00    -0.390 OA
ATOM     34  H   UNL     1      -8.380  -8.053  10.979  0.00  0.00    +0.210 HD
ENDBRANCH  12   4
TORSDOF 6
ENDMDL
MODEL 2
REMARK VINA RESULT:      -6.4      3.435      7.683
REMARK  Name = 26742081
REMARK  7 active torsions:
REMARK  status: ('A' for Active; 'I' for Inactive)
REMARK    1  A    between atoms: O_4  and  C_12
REMARK    2  A    between atoms: O_7  and  C_28
REMARK    3  A    between atoms: O_7  and  C_32
REMARK    4  A    between atoms: N_9  and  C_11
REMARK    5  A    between atoms: N_10  and  C_20
REMARK    6  A    between atoms: C_18  and  C_19
REMARK    7  A    between atoms: C_25  and  C_31
REMARK                            x       y       z     vdW  Elec       q    Type
REMARK                         _______ _______ _______ _____ _____    ______ ____
ROOT
ATOM      5  O   UNL     1      -8.489 -10.467  18.270  0.00  0.00    -0.252 OA
ATOM      8  N   UNL     1      -6.920 -12.102  17.814  0.00  0.00    -0.284 N 
ATOM     10  N   UNL     1      -8.115 -11.067  16.057  0.00  0.00    -0.269 N 
ATOM     11  C   UNL     1      -4.819 -12.202  16.428  0.00  0.00    +0.119 C 
ATOM     12  C   UNL     1      -4.097 -11.319  17.461  0.00  0.00    +0.136 C 
ATOM     13  C   UNL     1      -4.104 -11.838  18.902  0.00  0.00    +0.035 C 
ATOM     14  C   UNL     1      -6.095 -12.909  16.905  0.00  0.00    +0.134 C 
ATOM     15  C   UNL     1      -5.381 -11.483  19.668  0.00  0.00    +0.022 C 
ATOM     16  C   UNL     1      -6.614 -12.267  19.237  0.00  0.00    +0.109 C 
ATOM     17  C   UNL     1      -7.898 -11.151  17.433  0.00  0.00    +0.307 C 
ATOM     35  H   UNL     1      -7.563 -11.655  15.445  0.00  0.00    +0.156 HD
ENDROOT
BRANCH  10  20
ATOM     20  C   UNL     1      -9.020 -10.219  15.369  0.00  0.00    +0.035 A 
ATOM     23  C   UNL     1      -9.412  -9.007  15.938  0.00  0.00    +0.035 A 
ATOM     24  C   UNL     1      -9.520 -10.599  14.123  0.00  0.00    +0.023 A 
ATOM     25  C   UNL     1     -10.302  -8.174  15.260  0.00  0.00    +0.057 A 
ATOM     29  C   UNL     1     -10.410  -9.765  13.446  0.00  0.00    +0.002 A 
ATOM     30  C   UNL     1     -10.801  -8.553  14.014  0.00  0.00    +0.012 A 
BRANCH  25  31
ATOM      1  F   UNL     1     -10.557  -6.831  17.223  0.00  0.00    -0.166 F 
ATOM      2  F   UNL     1     -12.039  -6.598  15.649  0.00  0.00    -0.166 F 
ATOM      3  F   UNL     1     -10.032  -5.801  15.389  0.00  0.00    -0.166 F 
ATOM     31  C   UNL     1     -10.721  -6.878  15.869  0.00  0.00    +0.417 C 
ENDBRANCH  25  31
ENDBRANCH  10  20
BRANCH  11   9
ATOM      6  O   UNL     1      -3.153 -11.998  14.100  0.00  0.00    -0.270 OA
ATOM      9  N   UNL     1      -5.086 -11.415  15.239  0.00  0.00    -0.305 N 
ATOM     18  C   UNL     1      -4.215 -11.385  14.166  0.00  0.00    +0.244 C 
ATOM     33  H   UNL     1      -5.996 -10.971  15.172  0.00  0.00    +0.149 HD
BRANCH  18  19
ATOM     19  C   UNL     1      -4.620 -10.509  13.036  0.00  0.00    +0.037 A 
ATOM     21  C   UNL     1      -5.856  -9.865  13.062  0.00  0.00    +0.016 A 
ATOM     22  C   UNL     1      -3.764 -10.334  11.948  0.00  0.00    +0.016 A 
ATOM     26  C   UNL     1      -6.238  -9.044  12.000  0.00  0.00    +0.046 A 
ATOM     27  C   UNL     1      -4.145  -9.512  10.887  0.00  0.00    +0.046 A 
ATOM     28  C   UNL     1      -5.382  -8.868  10.913  0.00  0.00    +0.120 A 
BRANCH  28   7
ATOM      7  O   UNL     1      -5.754  -8.068   9.876  0.00  0.00    -0.495 OA
ATOM     32  C   UNL     1      -6.988  -8.375   9.229  0.00  0.00    +0.277 C 
ENDBRANCH  28   7
ENDBRANCH  18  19
ENDBRANCH  11   9
BRANCH  12   4
ATOM      4  O   UNL     1      -2.724 -11.211  17.060  0.00  0.00    -0.390 OA
ATOM     34  H   UNL     1      -2.341 -10.446  17.523  0.00  0.00    +0.210 HD
ENDBRANCH  12   4
TORSDOF 6
ENDMDL
MODEL 3
REMARK VINA RESULT:      -6.3     24.657     27.264
REMARK  Name = 26742081
REMARK  7 active torsions:
REMARK  status: ('A' for Active; 'I' for Inactive)
REMARK    1  A    between atoms: O_4  and  C_12
REMARK    2  A    between atoms: O_7  and  C_28
REMARK    3  A    between atoms: O_7  and  C_32
REMARK    4  A    between atoms: N_9  and  C_11
REMARK    5  A    between atoms: N_10  and  C_20
REMARK    6  A    between atoms: C_18  and  C_19
REMARK    7  A    between atoms: C_25  and  C_31
REMARK                            x       y       z     vdW  Elec       q    Type
REMARK                         _______ _______ _______ _____ _____    ______ ____
ROOT
ATOM      5  O   UNL     1      16.148   6.843   1.183  0.00  0.00    -0.252 OA
ATOM      8  N   UNL     1      15.259   4.715   1.033  0.00  0.00    -0.284 N 
ATOM     10  N   UNL     1      14.951   6.005   2.989  0.00  0.00    -0.269 N 
ATOM     11  C   UNL     1      12.939   3.749   1.214  0.00  0.00    +0.119 C 
ATOM     12  C   UNL     1      12.578   4.364  -0.150  0.00  0.00    +0.136 C 
ATOM     13  C   UNL     1      13.492   3.980  -1.317  0.00  0.00    +0.035 C 
ATOM     14  C   UNL     1      14.435   3.602   1.523  0.00  0.00    +0.134 C 
ATOM     15  C   UNL     1      14.759   4.835  -1.401  0.00  0.00    +0.022 C 
ATOM     16  C   UNL     1      15.792   4.541  -0.321  0.00  0.00    +0.109 C 
ATOM     17  C   UNL     1      15.502   5.936   1.709  0.00  0.00    +0.307 C 
ATOM     35  H   UNL     1      14.415   5.215   3.327  0.00  0.00    +0.156 HD
ENDROOT
BRANCH  10  20
ATOM     20  C   UNL     1      15.020   7.083   3.909  0.00  0.00    +0.035 A 
ATOM     23  C   UNL     1      13.895   7.437   4.654  0.00  0.00    +0.035 A 
ATOM     24  C   UNL     1      16.212   7.789   4.068  0.00  0.00    +0.023 A 
ATOM     25  C   UNL     1      13.963   8.497   5.558  0.00  0.00    +0.057 A 
ATOM     29  C   UNL     1      16.280   8.848   4.972  0.00  0.00    +0.002 A 
ATOM     30  C   UNL     1      15.156   9.202   5.718  0.00  0.00    +0.012 A 
BRANCH  25  31
ATOM      1  F   UNL     1      12.166   7.822   6.985  0.00  0.00    -0.166 F 
ATOM      2  F   UNL     1      11.783   9.444   5.590  0.00  0.00    -0.166 F 
ATOM      3  F   UNL     1      13.023   9.780   7.345  0.00  0.00    -0.166 F 
ATOM     31  C   UNL     1      12.761   8.877   6.355  0.00  0.00    +0.417 C 
ENDBRANCH  25  31
ENDBRANCH  10  20
BRANCH  11   9
ATOM      6  O   UNL     1      10.181   3.543   1.980  0.00  0.00    -0.270 OA
ATOM      9  N   UNL     1      12.274   4.499   2.261  0.00  0.00    -0.305 N 
ATOM     18  C   UNL     1      10.934   4.325   2.554  0.00  0.00    +0.244 C 
ATOM     33  H   UNL     1      12.854   5.083   2.855  0.00  0.00    +0.149 HD
BRANCH  18  19
ATOM     19  C   UNL     1      10.395   5.189   3.636  0.00  0.00    +0.037 A 
ATOM     21  C   UNL     1      10.200   4.665   4.913  0.00  0.00    +0.016 A 
ATOM     22  C   UNL     1      10.083   6.523   3.373  0.00  0.00    +0.016 A 
ATOM     26  C   UNL     1       9.692   5.475   5.930  0.00  0.00    +0.046 A 
ATOM     27  C   UNL     1       9.576   7.333   4.390  0.00  0.00    +0.046 A 
ATOM     28  C   UNL     1       9.381   6.809   5.667  0.00  0.00    +0.120 A 
BRANCH  28   7
ATOM      7  O   UNL     1       8.886   7.600   6.658  0.00  0.00    -0.495 OA
ATOM     32  C   UNL     1       8.985   7.107   7.994  0.00  0.00    +0.277 C 
ENDBRANCH  28   7
ENDBRANCH  18  19
ENDBRANCH  11   9
BRANCH  12   4
ATOM      4  O   UNL     1      11.256   3.925  -0.490  0.00  0.00    -0.390 OA
ATOM     34  H   UNL     1      10.701   4.018   0.303  0.00  0.00    +0.210 HD
ENDBRANCH  12   4
TORSDOF 6
ENDMDL
MODEL 4
REMARK VINA RESULT:      -6.2     24.444     27.589
REMARK  Name = 26742081
REMARK  7 active torsions:
REMARK  status: ('A' for Active; 'I' for Inactive)
REMARK    1  A    between atoms: O_4  and  C_12
REMARK    2  A    between atoms: O_7  and  C_28
REMARK    3  A    between atoms: O_7  and  C_32
REMARK    4  A    between atoms: N_9  and  C_11
REMARK    5  A    between atoms: N_10  and  C_20
REMARK    6  A    between atoms: C_18  and  C_19
REMARK    7  A    between atoms: C_25  and  C_31
REMARK                            x       y       z     vdW  Elec       q    Type
REMARK                         _______ _______ _______ _____ _____    ______ ____
ROOT
ATOM      5  O   UNL     1       9.419   4.328   0.527  0.00  0.00    -0.252 OA
ATOM      8  N   UNL     1      11.105   5.119  -0.842  0.00  0.00    -0.284 N 
ATOM     10  N   UNL     1      10.538   6.268   1.144  0.00  0.00    -0.269 N 
ATOM     11  C   UNL     1      13.553   5.623  -0.526  0.00  0.00    +0.119 C 
ATOM     12  C   UNL     1      13.852   4.115  -0.455  0.00  0.00    +0.136 C 
ATOM     13  C   UNL     1      13.378   3.285  -1.652  0.00  0.00    +0.035 C 
ATOM     14  C   UNL     1      12.216   6.025  -1.163  0.00  0.00    +0.134 C 
ATOM     15  C   UNL     1      11.905   2.875  -1.559  0.00  0.00    +0.022 C 
ATOM     16  C   UNL     1      10.918   4.013  -1.785  0.00  0.00    +0.109 C 
ATOM     17  C   UNL     1      10.281   5.181   0.308  0.00  0.00    +0.307 C 
ATOM     35  H   UNL     1      11.285   6.904   0.892  0.00  0.00    +0.156 HD
ENDROOT
BRANCH  10  20
ATOM     20  C   UNL     1       9.890   6.604   2.359  0.00  0.00    +0.035 A 
ATOM     23  C   UNL     1      10.176   5.891   3.523  0.00  0.00    +0.035 A 
ATOM     24  C   UNL     1       8.965   7.647   2.390  0.00  0.00    +0.023 A 
ATOM     25  C   UNL     1       9.537   6.222   4.719  0.00  0.00    +0.057 A 
ATOM     29  C   UNL     1       8.327   7.979   3.586  0.00  0.00    +0.002 A 
ATOM     30  C   UNL     1       8.614   7.266   4.750  0.00  0.00    +0.012 A 
BRANCH  25  31
ATOM      1  F   UNL     1       9.792   4.105   5.802  0.00  0.00    -0.166 F 
ATOM      2  F   UNL     1       8.973   5.740   6.978  0.00  0.00    -0.166 F 
ATOM      3  F   UNL     1      11.087   5.711   6.468  0.00  0.00    -0.166 F 
ATOM     31  C   UNL     1       9.843   5.460   5.964  0.00  0.00    +0.417 C 
ENDBRANCH  25  31
ENDBRANCH  10  20
BRANCH  11   9
ATOM      6  O   UNL     1      15.930   6.711   0.658  0.00  0.00    -0.270 OA
ATOM      9  N   UNL     1      13.676   6.190   0.803  0.00  0.00    -0.305 N 
ATOM     18  C   UNL     1      14.873   6.691   1.282  0.00  0.00    +0.244 C 
ATOM     33  H   UNL     1      12.821   6.313   1.336  0.00  0.00    +0.149 HD
BRANCH  18  19
ATOM     19  C   UNL     1      14.839   7.213   2.672  0.00  0.00    +0.037 A 
ATOM     21  C   UNL     1      13.642   7.214   3.387  0.00  0.00    +0.016 A 
ATOM     22  C   UNL     1      16.005   7.704   3.261  0.00  0.00    +0.016 A 
ATOM     26  C   UNL     1      13.610   7.707   4.693  0.00  0.00    +0.046 A 
ATOM     27  C   UNL     1      15.973   8.195   4.567  0.00  0.00    +0.046 A 
ATOM     28  C   UNL     1      14.775   8.196   5.282  0.00  0.00    +0.120 A 
BRANCH  28   7
ATOM      7  O   UNL     1      14.745   8.677   6.555  0.00  0.00    -0.495 OA
ATOM     32  C   UNL     1      14.314  10.026   6.730  0.00  0.00    +0.277 C 
ENDBRANCH  28   7
ENDBRANCH  18  19
ENDBRANCH  11   9
BRANCH  12   4
ATOM      4  O   UNL     1      15.276   3.956  -0.373  0.00  0.00    -0.390 OA
ATOM     34  H   UNL     1      15.571   3.518  -1.190  0.00  0.00    +0.210 HD
ENDBRANCH  12   4
TORSDOF 6
ENDMDL
MODEL 5
REMARK VINA RESULT:      -6.2      2.902      6.386
REMARK  Name = 26742081
REMARK  7 active torsions:
REMARK  status: ('A' for Active; 'I' for Inactive)
REMARK    1  A    between atoms: O_4  and  C_12
REMARK    2  A    between atoms: O_7  and  C_28
REMARK    3  A    between atoms: O_7  and  C_32
REMARK    4  A    between atoms: N_9  and  C_11
REMARK    5  A    between atoms: N_10  and  C_20
REMARK    6  A    between atoms: C_18  and  C_19
REMARK    7  A    between atoms: C_25  and  C_31
REMARK                            x       y       z     vdW  Elec       q    Type
REMARK                         _______ _______ _______ _____ _____    ______ ____
ROOT
ATOM      5  O   UNL     1      -4.959 -12.150  18.117  0.00  0.00    -0.252 OA
ATOM      8  N   UNL     1      -6.716 -10.648  18.105  0.00  0.00    -0.284 N 
ATOM     10  N   UNL     1      -4.997 -10.491  16.491  0.00  0.00    -0.269 N 
ATOM     11  C   UNL     1      -8.465  -9.983  16.418  0.00  0.00    +0.119 C 
ATOM     12  C   UNL     1      -9.174 -11.334  16.624  0.00  0.00    +0.136 C 
ATOM     13  C   UNL     1      -9.571 -11.666  18.065  0.00  0.00    +0.035 C 
ATOM     14  C   UNL     1      -7.494  -9.547  17.523  0.00  0.00    +0.134 C 
ATOM     15  C   UNL     1      -8.429 -12.277  18.882  0.00  0.00    +0.022 C 
ATOM     16  C   UNL     1      -7.332 -11.293  19.268  0.00  0.00    +0.109 C 
ATOM     17  C   UNL     1      -5.501 -11.171  17.599  0.00  0.00    +0.307 C 
ATOM     35  H   UNL     1      -5.528  -9.711  16.122  0.00  0.00    +0.156 HD
ENDROOT
BRANCH  10  20
ATOM     20  C   UNL     1      -3.812 -10.768  15.764  0.00  0.00    +0.035 A 
ATOM     23  C   UNL     1      -3.888 -11.190  14.437  0.00  0.00    +0.035 A 
ATOM     24  C   UNL     1      -2.568 -10.620  16.378  0.00  0.00    +0.023 A 
ATOM     25  C   UNL     1      -2.721 -11.462  13.723  0.00  0.00    +0.057 A 
ATOM     29  C   UNL     1      -1.401 -10.892  15.664  0.00  0.00    +0.002 A 
ATOM     30  C   UNL     1      -1.478 -11.313  14.336  0.00  0.00    +0.012 A 
BRANCH  25  31
ATOM      1  F   UNL     1      -2.208 -13.122  12.078  0.00  0.00    -0.166 F 
ATOM      2  F   UNL     1      -2.203 -11.044  11.441  0.00  0.00    -0.166 F 
ATOM      3  F   UNL     1      -4.083 -12.058  11.849  0.00  0.00    -0.166 F 
ATOM     31  C   UNL     1      -2.803 -11.914  12.304  0.00  0.00    +0.417 C 
ENDBRANCH  25  31
ENDBRANCH  10  20
BRANCH  11   9
ATOM      6  O   UNL     1      -9.593  -9.172  13.907  0.00  0.00    -0.270 OA
ATOM      9  N   UNL     1      -7.802  -9.991  15.129  0.00  0.00    -0.305 N 
ATOM     18  C   UNL     1      -8.435  -9.577  13.972  0.00  0.00    +0.244 C 
ATOM     33  H   UNL     1      -6.809 -10.205  15.119  0.00  0.00    +0.149 HD
BRANCH  18  19
ATOM     19  C   UNL     1      -7.628  -9.671  12.729  0.00  0.00    +0.037 A 
ATOM     21  C   UNL     1      -6.327  -9.169  12.704  0.00  0.00    +0.016 A 
ATOM     22  C   UNL     1      -8.171 -10.258  11.586  0.00  0.00    +0.016 A 
ATOM     26  C   UNL     1      -5.568  -9.254  11.536  0.00  0.00    +0.046 A 
ATOM     27  C   UNL     1      -7.412 -10.344  10.419  0.00  0.00    +0.046 A 
ATOM     28  C   UNL     1      -6.111  -9.842  10.394  0.00  0.00    +0.120 A 
BRANCH  28   7
ATOM      7  O   UNL     1      -5.372  -9.926   9.254  0.00  0.00    -0.495 OA
ATOM     32  C   UNL     1      -4.157  -9.178   9.212  0.00  0.00    +0.277 C 
ENDBRANCH  28   7
ENDBRANCH  18  19
ENDBRANCH  11   9
BRANCH  12   4
ATOM      4  O   UNL     1     -10.383 -11.314  15.850  0.00  0.00    -0.390 OA
ATOM     34  H   UNL     1     -11.051 -11.828  16.335  0.00  0.00    +0.210 HD
ENDBRANCH  12   4
TORSDOF 6
ENDMDL
MODEL 6
REMARK VINA RESULT:      -6.1     25.060     28.118
REMARK  Name = 26742081
REMARK  7 active torsions:
REMARK  status: ('A' for Active; 'I' for Inactive)
REMARK    1  A    between atoms: O_4  and  C_12
REMARK    2  A    between atoms: O_7  and  C_28
REMARK    3  A    between atoms: O_7  and  C_32
REMARK    4  A    between atoms: N_9  and  C_11
REMARK    5  A    between atoms: N_10  and  C_20
REMARK    6  A    between atoms: C_18  and  C_19
REMARK    7  A    between atoms: C_25  and  C_31
REMARK                            x       y       z     vdW  Elec       q    Type
REMARK                         _______ _______ _______ _____ _____    ______ ____
ROOT
ATOM      5  O   UNL     1      11.936   9.164   6.587  0.00  0.00    -0.252 OA
ATOM      8  N   UNL     1      10.196   7.829   5.856  0.00  0.00    -0.284 N 
ATOM     10  N   UNL     1      12.053   8.250   4.455  0.00  0.00    -0.269 N 
ATOM     11  C   UNL     1      10.012   5.457   5.028  0.00  0.00    +0.119 C 
ATOM     12  C   UNL     1      10.257   4.941   6.457  0.00  0.00    +0.136 C 
ATOM     13  C   UNL     1       9.298   5.467   7.530  0.00  0.00    +0.035 C 
ATOM     14  C   UNL     1       9.558   6.918   4.897  0.00  0.00    +0.134 C 
ATOM     15  C   UNL     1       9.702   6.837   8.083  0.00  0.00    +0.022 C 
ATOM     16  C   UNL     1       9.477   7.997   7.122  0.00  0.00    +0.109 C 
ATOM     17  C   UNL     1      11.447   8.472   5.692  0.00  0.00    +0.307 C 
ATOM     35  H   UNL     1      11.584   7.646   3.791  0.00  0.00    +0.156 HD
ENDROOT
BRANCH  10  20
ATOM     20  C   UNL     1      13.296   8.750   3.992  0.00  0.00    +0.035 A 
ATOM     23  C   UNL     1      14.470   8.454   4.684  0.00  0.00    +0.035 A 
ATOM     24  C   UNL     1      13.344   9.540   2.843  0.00  0.00    +0.023 A 
ATOM     25  C   UNL     1      15.692   8.947   4.227  0.00  0.00    +0.057 A 
ATOM     29  C   UNL     1      14.567  10.032   2.386  0.00  0.00    +0.002 A 
ATOM     30  C   UNL     1      15.741   9.735   3.078  0.00  0.00    +0.012 A 
BRANCH  25  31
ATOM      1  F   UNL     1      17.777   9.704   5.124  0.00  0.00    -0.166 F 
ATOM      2  F   UNL     1      17.698   7.676   4.345  0.00  0.00    -0.166 F 
ATOM      3  F   UNL     1      16.733   8.161   6.232  0.00  0.00    -0.166 F 
ATOM     31  C   UNL     1      16.948   8.630   4.968  0.00  0.00    +0.417 C 
ENDBRANCH  25  31
ENDBRANCH  10  20
BRANCH  11   9
ATOM      6  O   UNL     1      10.102   4.934   2.207  0.00  0.00    -0.270 OA
ATOM      9  N   UNL     1      11.199   5.218   4.230  0.00  0.00    -0.305 N 
ATOM     18  C   UNL     1      11.136   4.975   2.870  0.00  0.00    +0.244 C 
ATOM     33  H   UNL     1      12.097   5.348   4.685  0.00  0.00    +0.149 HD
BRANCH  18  19
ATOM     19  C   UNL     1      12.438   4.723   2.202  0.00  0.00    +0.037 A 
ATOM     21  C   UNL     1      13.368   5.755   2.078  0.00  0.00    +0.016 A 
ATOM     22  C   UNL     1      12.729   3.455   1.698  0.00  0.00    +0.016 A 
ATOM     26  C   UNL     1      14.591   5.519   1.448  0.00  0.00    +0.046 A 
ATOM     27  C   UNL     1      13.952   3.220   1.069  0.00  0.00    +0.046 A 
ATOM     28  C   UNL     1      14.882   4.251   0.944  0.00  0.00    +0.120 A 
BRANCH  28   7
ATOM      7  O   UNL     1      16.075   4.020   0.330  0.00  0.00    -0.495 OA
ATOM     32  C   UNL     1      16.195   4.433  -1.031  0.00  0.00    +0.277 C 
ENDBRANCH  28   7
ENDBRANCH  18  19
ENDBRANCH  11   9
BRANCH  12   4
ATOM      4  O   UNL     1      10.119   3.514   6.435  0.00  0.00    -0.390 OA
ATOM     34  H   UNL     1      11.013   3.131   6.420  0.00  0.00    +0.210 HD
ENDBRANCH  12   4
TORSDOF 6
ENDMDL
MODEL 7
REMARK VINA RESULT:      -6.1     21.124     24.774
REMARK  Name = 26742081
REMARK  7 active torsions:
REMARK  status: ('A' for Active; 'I' for Inactive)
REMARK    1  A    between atoms: O_4  and  C_12
REMARK    2  A    between atoms: O_7  and  C_28
REMARK    3  A    between atoms: O_7  and  C_32
REMARK    4  A    between atoms: N_9  and  C_11
REMARK    5  A    between atoms: N_10  and  C_20
REMARK    6  A    between atoms: C_18  and  C_19
REMARK    7  A    between atoms: C_25  and  C_31
REMARK                            x       y       z     vdW  Elec       q    Type
REMARK                         _______ _______ _______ _____ _____    ______ ____
ROOT
ATOM      5  O   UNL     1      11.969  -5.683  34.564  0.00  0.00    -0.252 OA
ATOM      8  N   UNL     1       9.771  -4.995  34.370  0.00  0.00    -0.284 N 
ATOM     10  N   UNL     1      10.767  -6.309  32.678  0.00  0.00    -0.269 N 
ATOM     11  C   UNL     1       7.563  -6.177  34.095  0.00  0.00    +0.119 C 
ATOM     12  C   UNL     1       7.641  -6.658  35.555  0.00  0.00    +0.136 C 
ATOM     13  C   UNL     1       7.809  -5.560  36.611  0.00  0.00    +0.035 C 
ATOM     14  C   UNL     1       8.454  -4.985  33.720  0.00  0.00    +0.134 C 
ATOM     15  C   UNL     1       9.263  -5.123  36.803  0.00  0.00    +0.022 C 
ATOM     16  C   UNL     1       9.831  -4.296  35.657  0.00  0.00    +0.109 C 
ATOM     17  C   UNL     1      10.925  -5.673  33.909  0.00  0.00    +0.307 C 
ATOM     35  H   UNL     1       9.862  -6.264  32.224  0.00  0.00    +0.156 HD
ENDROOT
BRANCH  10  20
ATOM     20  C   UNL     1      11.728  -7.063  31.957  0.00  0.00    +0.035 A 
ATOM     23  C   UNL     1      12.725  -6.411  31.232  0.00  0.00    +0.035 A 
ATOM     24  C   UNL     1      11.675  -8.457  31.973  0.00  0.00    +0.023 A 
ATOM     25  C   UNL     1      13.671  -7.153  30.523  0.00  0.00    +0.057 A 
ATOM     29  C   UNL     1      12.621  -9.198  31.264  0.00  0.00    +0.002 A 
ATOM     30  C   UNL     1      13.618  -8.546  30.540  0.00  0.00    +0.012 A 
BRANCH  25  31
ATOM      1  F   UNL     1      15.994  -6.925  30.001  0.00  0.00    -0.166 F 
ATOM      2  F   UNL     1      14.786  -5.118  30.009  0.00  0.00    -0.166 F 
ATOM      3  F   UNL     1      14.585  -6.560  28.394  0.00  0.00    -0.166 F 
ATOM     31  C   UNL     1      14.737  -6.456  29.747  0.00  0.00    +0.417 C 
ENDBRANCH  25  31
ENDBRANCH  10  20
BRANCH  11   9
ATOM      6  O   UNL     1       5.599  -7.890  32.894  0.00  0.00    -0.270 OA
ATOM      9  N   UNL     1       7.818  -7.301  33.215  0.00  0.00    -0.305 N 
ATOM     18  C   UNL     1       6.796  -8.067  32.685  0.00  0.00    +0.244 C 
ATOM     33  H   UNL     1       8.774  -7.440  32.905  0.00  0.00    +0.149 HD
BRANCH  18  19
ATOM     19  C   UNL     1       7.224  -9.199  31.823  0.00  0.00    +0.037 A 
ATOM     21  C   UNL     1       8.324  -9.975  32.187  0.00  0.00    +0.016 A 
ATOM     22  C   UNL     1       6.526  -9.483  30.648  0.00  0.00    +0.016 A 
ATOM     26  C   UNL     1       8.728 -11.036  31.376  0.00  0.00    +0.046 A 
ATOM     27  C   UNL     1       6.930 -10.545  29.838  0.00  0.00    +0.046 A 
ATOM     28  C   UNL     1       8.030 -11.321  30.202  0.00  0.00    +0.120 A 
BRANCH  28   7
ATOM      7  O   UNL     1       8.423 -12.357  29.411  0.00  0.00    -0.495 OA
ATOM     32  C   UNL     1       8.316 -12.172  28.000  0.00  0.00    +0.277 C 
ENDBRANCH  28   7
ENDBRANCH  18  19
ENDBRANCH  11   9
BRANCH  12   4
ATOM      4  O   UNL     1       6.416  -7.343  35.855  0.00  0.00    -0.390 OA
ATOM     34  H   UNL     1       6.355  -8.111  35.261  0.00  0.00    +0.210 HD
ENDBRANCH  12   4
TORSDOF 6
ENDMDL
MODEL 8
REMARK VINA RESULT:      -6.1      1.988      2.889
REMARK  Name = 26742081
REMARK  7 active torsions:
REMARK  status: ('A' for Active; 'I' for Inactive)
REMARK    1  A    between atoms: O_4  and  C_12
REMARK    2  A    between atoms: O_7  and  C_28
REMARK    3  A    between atoms: O_7  and  C_32
REMARK    4  A    between atoms: N_9  and  C_11
REMARK    5  A    between atoms: N_10  and  C_20
REMARK    6  A    between atoms: C_18  and  C_19
REMARK    7  A    between atoms: C_25  and  C_31
REMARK                            x       y       z     vdW  Elec       q    Type
REMARK                         _______ _______ _______ _____ _____    ______ ____
ROOT
ATOM      5  O   UNL     1      -2.293 -10.276  14.089  0.00  0.00    -0.252 OA
ATOM      8  N   UNL     1      -3.414 -11.034  12.215  0.00  0.00    -0.284 N 
ATOM     10  N   UNL     1      -4.387 -11.244  14.358  0.00  0.00    -0.269 N 
ATOM     11  C   UNL     1      -5.648 -10.533  11.165  0.00  0.00    +0.119 C 
ATOM     12  C   UNL     1      -5.126  -9.157  10.715  0.00  0.00    +0.136 C 
ATOM     13  C   UNL     1      -3.853  -9.174   9.863  0.00  0.00    +0.035 C 
ATOM     14  C   UNL     1      -4.587 -11.583  11.523  0.00  0.00    +0.134 C 
ATOM     15  C   UNL     1      -2.570  -9.256  10.694  0.00  0.00    +0.022 C 
ATOM     16  C   UNL     1      -2.319 -10.614  11.336  0.00  0.00    +0.109 C 
ATOM     17  C   UNL     1      -3.293 -10.812  13.608  0.00  0.00    +0.307 C 
ATOM     35  H   UNL     1      -5.175 -11.652  13.870  0.00  0.00    +0.156 HD
ENDROOT
BRANCH  10  20
ATOM     20  C   UNL     1      -4.566 -11.163  15.763  0.00  0.00    +0.035 A 
ATOM     23  C   UNL     1      -5.800 -10.779  16.288  0.00  0.00    +0.035 A 
ATOM     24  C   UNL     1      -3.508 -11.468  16.619  0.00  0.00    +0.023 A 
ATOM     25  C   UNL     1      -5.975 -10.700  17.670  0.00  0.00    +0.057 A 
ATOM     29  C   UNL     1      -3.684 -11.389  18.000  0.00  0.00    +0.002 A 
ATOM     30  C   UNL     1      -4.918 -11.005  18.526  0.00  0.00    +0.012 A 
BRANCH  25  31
ATOM      1  F   UNL     1      -8.295 -11.186  17.992  0.00  0.00    -0.166 F 
ATOM      2  F   UNL     1      -7.735  -9.103  17.721  0.00  0.00    -0.166 F 
ATOM      3  F   UNL     1      -7.283 -10.123  19.588  0.00  0.00    -0.166 F 
ATOM     31  C   UNL     1      -7.294 -10.289  18.232  0.00  0.00    +0.417 C 
ENDBRANCH  25  31
ENDBRANCH  10  20
BRANCH  11   9
ATOM      6  O   UNL     1      -8.193 -11.820  11.495  0.00  0.00    -0.270 OA
ATOM      9  N   UNL     1      -6.575 -10.349  12.265  0.00  0.00    -0.305 N 
ATOM     18  C   UNL     1      -7.782 -11.020  12.332  0.00  0.00    +0.244 C 
ATOM     33  H   UNL     1      -6.257  -9.790  13.051  0.00  0.00    +0.149 HD
BRANCH  18  19
ATOM     19  C   UNL     1      -8.630 -10.700  13.509  0.00  0.00    +0.037 A 
ATOM     21  C   UNL     1      -8.833  -9.372  13.881  0.00  0.00    +0.016 A 
ATOM     22  C   UNL     1      -9.220 -11.729  14.244  0.00  0.00    +0.016 A 
ATOM     26  C   UNL     1      -9.627  -9.071  14.988  0.00  0.00    +0.046 A 
ATOM     27  C   UNL     1     -10.015 -11.428  15.350  0.00  0.00    +0.046 A 
ATOM     28  C   UNL     1     -10.218 -10.099  15.722  0.00  0.00    +0.120 A 
BRANCH  28   7
ATOM      7  O   UNL     1     -10.993  -9.807  16.802  0.00  0.00    -0.495 OA
ATOM     32  C   UNL     1     -10.965  -8.461  17.276  0.00  0.00    +0.277 C 
ENDBRANCH  28   7
ENDBRANCH  18  19
ENDBRANCH  11   9
BRANCH  12   4
ATOM      4  O   UNL     1      -6.151  -8.539   9.924  0.00  0.00    -0.390 OA
ATOM     34  H   UNL     1      -6.054  -7.576  10.016  0.00  0.00    +0.210 HD
ENDBRANCH  12   4
TORSDOF 6
ENDMDL
MODEL 9
REMARK VINA RESULT:      -6.1     28.703     30.712
REMARK  Name = 26742081
REMARK  7 active torsions:
REMARK  status: ('A' for Active; 'I' for Inactive)
REMARK    1  A    between atoms: O_4  and  C_12
REMARK    2  A    between atoms: O_7  and  C_28
REMARK    3  A    between atoms: O_7  and  C_32
REMARK    4  A    between atoms: N_9  and  C_11
REMARK    5  A    between atoms: N_10  and  C_20
REMARK    6  A    between atoms: C_18  and  C_19
REMARK    7  A    between atoms: C_25  and  C_31
REMARK                            x       y       z     vdW  Elec       q    Type
REMARK                         _______ _______ _______ _____ _____    ______ ____
ROOT
ATOM      5  O   UNL     1      19.496  -9.055   0.615  0.00  0.00    -0.252 OA
ATOM      8  N   UNL     1      21.497  -7.898   0.596  0.00  0.00    -0.284 N 
ATOM     10  N   UNL     1      19.925  -7.599  -1.143  0.00  0.00    -0.269 N 
ATOM     11  C   UNL     1      22.132  -5.462   0.544  0.00  0.00    +0.119 C 
ATOM     12  C   UNL     1      21.667  -5.311   2.004  0.00  0.00    +0.136 C 
ATOM     13  C   UNL     1      22.318  -6.263   3.012  0.00  0.00    +0.035 C 
ATOM     14  C   UNL     1      22.422  -6.890   0.063  0.00  0.00    +0.134 C 
ATOM     15  C   UNL     1      21.647  -7.638   3.066  0.00  0.00    +0.022 C 
ATOM     16  C   UNL     1      21.918  -8.521   1.854  0.00  0.00    +0.109 C 
ATOM     17  C   UNL     1      20.236  -8.246   0.053  0.00  0.00    +0.307 C 
ATOM     35  H   UNL     1      20.588  -6.932  -1.517  0.00  0.00    +0.156 HD
ENDROOT
BRANCH  10  20
ATOM     20  C   UNL     1      18.750  -7.733  -1.925  0.00  0.00    +0.035 A 
ATOM     23  C   UNL     1      18.049  -6.598  -2.333  0.00  0.00    +0.035 A 
ATOM     24  C   UNL     1      18.294  -9.001  -2.287  0.00  0.00    +0.023 A 
ATOM     25  C   UNL     1      16.893  -6.731  -3.103  0.00  0.00    +0.057 A 
ATOM     29  C   UNL     1      17.138  -9.134  -3.057  0.00  0.00    +0.002 A 
ATOM     30  C   UNL     1      16.438  -7.998  -3.465  0.00  0.00    +0.012 A 
BRANCH  25  31
ATOM      1  F   UNL     1      16.232  -4.475  -2.661  0.00  0.00    -0.166 F 
ATOM      2  F   UNL     1      14.808  -5.753  -3.694  0.00  0.00    -0.166 F 
ATOM      3  F   UNL     1      16.568  -5.012  -4.734  0.00  0.00    -0.166 F 
ATOM     31  C   UNL     1      16.144  -5.517  -3.538  0.00  0.00    +0.417 C 
ENDBRANCH  25  31
ENDBRANCH  10  20
BRANCH  11   9
ATOM      6  O   UNL     1      22.601  -4.516  -2.125  0.00  0.00    -0.270 OA
ATOM      9  N   UNL     1      21.169  -4.815  -0.326  0.00  0.00    -0.305 N 
ATOM     18  C   UNL     1      21.496  -4.395  -1.602  0.00  0.00    +0.244 C 
ATOM     33  H   UNL     1      20.206  -4.781  -0.008  0.00  0.00    +0.149 HD
BRANCH  18  19
ATOM     19  C   UNL     1      20.405  -3.726  -2.357  0.00  0.00    +0.037 A 
ATOM     21  C   UNL     1      19.451  -2.970  -1.677  0.00  0.00    +0.016 A 
ATOM     22  C   UNL     1      20.334  -3.857  -3.744  0.00  0.00    +0.016 A 
ATOM     26  C   UNL     1      18.424  -2.343  -2.385  0.00  0.00    +0.046 A 
ATOM     27  C   UNL     1      19.308  -3.230  -4.451  0.00  0.00    +0.046 A 
ATOM     28  C   UNL     1      18.354  -2.473  -3.772  0.00  0.00    +0.120 A 
BRANCH  28   7
ATOM      7  O   UNL     1      17.353  -1.862  -4.463  0.00  0.00    -0.495 OA
ATOM     32  C   UNL     1      17.480  -1.815  -5.884  0.00  0.00    +0.277 C 
ENDBRANCH  28   7
ENDBRANCH  18  19
ENDBRANCH  11   9
BRANCH  12   4
ATOM      4  O   UNL     1      21.980  -3.976   2.426  0.00  0.00    -0.390 OA
ATOM     34  H   UNL     1      21.689  -3.883   3.349  0.00  0.00    +0.210 HD
ENDBRANCH  12   4
TORSDOF 6
ENDMDL
MODEL 10
REMARK VINA RESULT:      -6.0      3.363      6.517
REMARK  Name = 26742081
REMARK  7 active torsions:
REMARK  status: ('A' for Active; 'I' for Inactive)
REMARK    1  A    between atoms: O_4  and  C_12
REMARK    2  A    between atoms: O_7  and  C_28
REMARK    3  A    between atoms: O_7  and  C_32
REMARK    4  A    between atoms: N_9  and  C_11
REMARK    5  A    between atoms: N_10  and  C_20
REMARK    6  A    between atoms: C_18  and  C_19
REMARK    7  A    between atoms: C_25  and  C_31
REMARK                            x       y       z     vdW  Elec       q    Type
REMARK                         _______ _______ _______ _____ _____    ______ ____
ROOT
ATOM      5  O   UNL     1     -10.064  -9.157  11.789  0.00  0.00    -0.252 OA
ATOM      8  N   UNL     1     -10.667  -9.791  13.928  0.00  0.00    -0.284 N 
ATOM     10  N   UNL     1      -8.723 -10.679  12.920  0.00  0.00    -0.269 N 
ATOM     11  C   UNL     1      -9.548  -9.698  16.183  0.00  0.00    +0.119 C 
ATOM     12  C   UNL     1      -9.742  -8.172  16.215  0.00  0.00    +0.136 C 
ATOM     13  C   UNL     1     -11.181  -7.679  16.040  0.00  0.00    +0.035 C 
ATOM     14  C   UNL     1     -10.436 -10.480  15.205  0.00  0.00    +0.134 C 
ATOM     15  C   UNL     1     -11.615  -7.583  14.575  0.00  0.00    +0.022 C 
ATOM     16  C   UNL     1     -11.850  -8.928  13.898  0.00  0.00    +0.109 C 
ATOM     17  C   UNL     1      -9.822  -9.830  12.792  0.00  0.00    +0.307 C 
ATOM     35  H   UNL     1      -8.595 -11.174  13.795  0.00  0.00    +0.156 HD
ENDROOT
BRANCH  10  20
ATOM     20  C   UNL     1      -7.704 -10.933  11.967  0.00  0.00    +0.035 A 
ATOM     23  C   UNL     1      -6.654 -10.029  11.809  0.00  0.00    +0.035 A 
ATOM     24  C   UNL     1      -7.753 -12.089  11.187  0.00  0.00    +0.023 A 
ATOM     25  C   UNL     1      -5.652 -10.281  10.872  0.00  0.00    +0.057 A 
ATOM     29  C   UNL     1      -6.751 -12.340  10.250  0.00  0.00    +0.002 A 
ATOM     30  C   UNL     1      -5.700 -11.436  10.092  0.00  0.00    +0.012 A 
BRANCH  25  31
ATOM      1  F   UNL     1      -3.471  -9.552  11.531  0.00  0.00    -0.166 F 
ATOM      2  F   UNL     1      -4.905  -8.025  10.949  0.00  0.00    -0.166 F 
ATOM      3  F   UNL     1      -3.999  -9.306   9.443  0.00  0.00    -0.166 F 
ATOM     31  C   UNL     1      -4.529  -9.313  10.702  0.00  0.00    +0.417 C 
ENDBRANCH  25  31
ENDBRANCH  10  20
BRANCH  11   9
ATOM      6  O   UNL     1      -7.528 -10.121  18.178  0.00  0.00    -0.270 OA
ATOM      9  N   UNL     1      -8.148  -9.992  15.948  0.00  0.00    -0.305 N 
ATOM     18  C   UNL     1      -7.251 -10.180  16.983  0.00  0.00    +0.244 C 
ATOM     33  H   UNL     1      -7.866 -10.168  14.989  0.00  0.00    +0.149 HD
BRANCH  18  19
ATOM     19  C   UNL     1      -5.847 -10.446  16.575  0.00  0.00    +0.037 A 
ATOM     21  C   UNL     1      -5.478 -10.334  15.235  0.00  0.00    +0.016 A 
ATOM     22  C   UNL     1      -4.899 -10.809  17.533  0.00  0.00    +0.016 A 
ATOM     26  C   UNL     1      -4.160 -10.586  14.851  0.00  0.00    +0.046 A 
ATOM     27  C   UNL     1      -3.582 -11.059  17.149  0.00  0.00    +0.046 A 
ATOM     28  C   UNL     1      -3.213 -10.948  15.808  0.00  0.00    +0.120 A 
BRANCH  28   7
ATOM      7  O   UNL     1      -1.927 -11.194  15.435  0.00  0.00    -0.495 OA
ATOM     32  C   UNL     1      -0.964 -10.179  15.717  0.00  0.00    +0.277 C 
ENDBRANCH  28   7
ENDBRANCH  18  19
ENDBRANCH  11   9
BRANCH  12   4
ATOM      4  O   UNL     1      -9.289  -7.701  17.492  0.00  0.00    -0.390 OA
ATOM     34  H   UNL     1      -8.725  -8.393  17.879  0.00  0.00    +0.210 HD
ENDBRANCH  12   4
TORSDOF 6
ENDMDL
