MODEL 1
REMARK VINA RESULT:      -7.0      0.000      0.000
REMARK  Name = 45361389
REMARK  10 active torsions:
REMARK  status: ('A' for Active; 'I' for Inactive)
REMARK    1  A    between atoms: O_1  and  C_10
REMARK    2  A    between atoms: O_4  and  C_33
REMARK    3  A    between atoms: O_4  and  C_34
REMARK    4  A    between atoms: N_5  and  C_14
REMARK    5  A    between atoms: C_7  and  C_17
REMARK    6  A    between atoms: C_9  and  C_19
REMARK    7  A    between atoms: C_12  and  C_18
REMARK    8  A    between atoms: C_18  and  C_20
REMARK    9  A    between atoms: C_18  and  C_21
REMARK   10  A    between atoms: C_22  and  C_25
REMARK                            x       y       z     vdW  Elec       q    Type
REMARK                         _______ _______ _______ _____ _____    ______ ____
ROOT
ATOM      7  C   UNL     1      -5.159 -11.213  17.541  0.00  0.00    -0.027 C 
ATOM      8  C   UNL     1      -5.798 -10.525  16.290  0.00  0.00    +0.028 C 
ATOM      9  C   UNL     1      -7.367 -10.553  16.376  0.00  0.00    +0.012 C 
ATOM     10  C   UNL     1      -5.192 -11.083  14.970  0.00  0.00    +0.122 C 
ATOM     11  C   UNL     1      -3.620 -11.068  17.481  0.00  0.00    +0.007 C 
ATOM     12  C   UNL     1      -3.646 -11.030  14.957  0.00  0.00    +0.029 C 
ATOM     13  C   UNL     1      -5.650 -10.491  18.818  0.00  0.00    +0.009 C 
ATOM     14  C   UNL     1      -7.846  -9.893  17.699  0.00  0.00    +0.076 C 
ATOM     15  C   UNL     1      -3.019 -11.647  16.207  0.00  0.00    +0.007 C 
ATOM     16  C   UNL     1      -7.167 -10.463  18.943  0.00  0.00    +0.023 C 
ATOM     17  C   UNL     1      -5.514 -12.719  17.639  0.00  0.00    +0.011 C 
ATOM     19  C   UNL     1      -8.061  -9.868  15.187  0.00  0.00    +0.010 C 
ENDROOT
BRANCH  14   5
ATOM      3  O   UNL     1      -9.762  -7.761  17.538  0.00  0.00    -0.270 OA
ATOM      5  N   UNL     1      -9.279 -10.005  17.866  0.00  0.00    -0.308 N 
ATOM     22  C   UNL     1     -10.123  -8.911  17.770  0.00  0.00    +0.244 C 
ATOM     35  H   UNL     1      -9.636 -10.904  18.173  0.00  0.00    +0.149 HD
BRANCH  22  25
ATOM     25  C   UNL     1     -11.565  -9.188  17.993  0.00  0.00    +0.037 A 
ATOM     29  C   UNL     1     -12.508  -8.780  17.050  0.00  0.00    +0.016 A 
ATOM     30  C   UNL     1     -11.978  -9.855  19.147  0.00  0.00    +0.016 A 
ATOM     31  C   UNL     1     -13.863  -9.038  17.259  0.00  0.00    +0.046 A 
ATOM     32  C   UNL     1     -13.332 -10.113  19.357  0.00  0.00    +0.046 A 
ATOM     33  C   UNL     1     -14.275  -9.704  18.413  0.00  0.00    +0.120 A 
BRANCH  33   4
ATOM      4  O   UNL     1     -15.596  -9.957  18.619  0.00  0.00    -0.495 OA
ATOM     34  C   UNL     1     -15.933 -10.789  19.729  0.00  0.00    +0.277 C 
ENDBRANCH  33   4
ENDBRANCH  22  25
ENDBRANCH  14   5
BRANCH  10   1
ATOM      1  O   UNL     1      -5.635 -10.289  13.868  0.00  0.00    -0.391 OA
ATOM     36  H   UNL     1      -6.600 -10.194  13.933  0.00  0.00    +0.210 HD
ENDBRANCH  10   1
BRANCH  12  18
ATOM     18  C   UNL     1      -3.064 -11.702  13.707  0.00  0.00    +0.078 C 
ATOM     20  C   UNL     1      -1.968 -12.687  14.075  0.00  0.00    +0.017 C 
BRANCH  18  21
ATOM      2  O   UNL     1      -1.688  -9.832  13.237  0.00  0.00    -0.275 OA
ATOM      6  N   UNL     1      -2.995 -10.623  11.487  0.00  0.00    -0.301 N 
ATOM     21  C   UNL     1      -2.515 -10.634  12.797  0.00  0.00    +0.219 C 
ATOM     23  C   UNL     1      -3.945 -11.589  10.922  0.00  0.00    +0.108 C 
ATOM     24  C   UNL     1      -2.512  -9.614  10.542  0.00  0.00    +0.108 C 
ATOM     26  C   UNL     1      -5.137 -10.871  10.293  0.00  0.00    +0.019 C 
ATOM     27  C   UNL     1      -3.677  -8.858   9.907  0.00  0.00    +0.019 C 
ATOM     28  C   UNL     1      -4.683  -9.822   9.281  0.00  0.00    +0.003 C 
ENDBRANCH  18  21
ENDBRANCH  12  18
TORSDOF 6
ENDMDL
MODEL 2
REMARK VINA RESULT:      -6.9      1.824      2.082
REMARK  Name = 45361389
REMARK  10 active torsions:
REMARK  status: ('A' for Active; 'I' for Inactive)
REMARK    1  A    between atoms: O_1  and  C_10
REMARK    2  A    between atoms: O_4  and  C_33
REMARK    3  A    between atoms: O_4  and  C_34
REMARK    4  A    between atoms: N_5  and  C_14
REMARK    5  A    between atoms: C_7  and  C_17
REMARK    6  A    between atoms: C_9  and  C_19
REMARK    7  A    between atoms: C_12  and  C_18
REMARK    8  A    between atoms: C_18  and  C_20
REMARK    9  A    between atoms: C_18  and  C_21
REMARK   10  A    between atoms: C_22  and  C_25
REMARK                            x       y       z     vdW  Elec       q    Type
REMARK                         _______ _______ _______ _____ _____    ______ ____
ROOT
ATOM      7  C   UNL     1      -4.772 -11.330  17.224  0.00  0.00    -0.027 C 
ATOM      8  C   UNL     1      -5.750 -10.567  16.270  0.00  0.00    +0.028 C 
ATOM      9  C   UNL     1      -7.214 -10.581  16.842  0.00  0.00    +0.012 C 
ATOM     10  C   UNL     1      -5.603 -11.058  14.802  0.00  0.00    +0.122 C 
ATOM     11  C   UNL     1      -3.326 -11.200  16.691  0.00  0.00    +0.007 C 
ATOM     12  C   UNL     1      -4.137 -11.023  14.308  0.00  0.00    +0.029 C 
ATOM     13  C   UNL     1      -4.819 -10.673  18.623  0.00  0.00    +0.009 C 
ATOM     14  C   UNL     1      -7.237  -9.988  18.279  0.00  0.00    +0.076 C 
ATOM     15  C   UNL     1      -3.169 -11.715  15.267  0.00  0.00    +0.007 C 
ATOM     16  C   UNL     1      -6.220 -10.634  19.219  0.00  0.00    +0.023 C 
ATOM     17  C   UNL     1      -5.121 -12.834  17.355  0.00  0.00    +0.011 C 
ATOM     19  C   UNL     1      -8.225  -9.823  15.966  0.00  0.00    +0.010 C 
ENDROOT
BRANCH  14   5
ATOM      3  O   UNL     1      -8.553 -12.400  19.113  0.00  0.00    -0.270 OA
ATOM      5  N   UNL     1      -8.549 -10.093  18.881  0.00  0.00    -0.308 N 
ATOM     22  C   UNL     1      -9.099 -11.309  19.250  0.00  0.00    +0.244 C 
ATOM     35  H   UNL     1      -9.104  -9.245  18.919  0.00  0.00    +0.149 HD
BRANCH  22  25
ATOM     25  C   UNL     1     -10.465 -11.248  19.831  0.00  0.00    +0.037 A 
ATOM     29  C   UNL     1     -11.192 -10.059  19.783  0.00  0.00    +0.016 A 
ATOM     30  C   UNL     1     -11.021 -12.381  20.426  0.00  0.00    +0.016 A 
ATOM     31  C   UNL     1     -12.473 -10.001  20.330  0.00  0.00    +0.046 A 
ATOM     32  C   UNL     1     -12.303 -12.324  20.974  0.00  0.00    +0.046 A 
ATOM     33  C   UNL     1     -13.029 -11.133  20.925  0.00  0.00    +0.120 A 
BRANCH  33   4
ATOM      4  O   UNL     1     -14.280 -11.078  21.459  0.00  0.00    -0.495 OA
ATOM     34  C   UNL     1     -14.742 -12.239  22.150  0.00  0.00    +0.277 C 
ENDBRANCH  33   4
ENDBRANCH  22  25
ENDBRANCH  14   5
BRANCH  10   1
ATOM      1  O   UNL     1      -6.345 -10.200  13.934  0.00  0.00    -0.391 OA
ATOM     36  H   UNL     1      -6.526  -9.372  14.410  0.00  0.00    +0.210 HD
ENDBRANCH  10   1
BRANCH  12  18
ATOM     18  C   UNL     1      -3.994 -11.632  12.907  0.00  0.00    +0.078 C 
ATOM     20  C   UNL     1      -3.039 -12.812  12.919  0.00  0.00    +0.017 C 
BRANCH  18  21
ATOM      2  O   UNL     1      -2.401 -10.032  12.190  0.00  0.00    -0.275 OA
ATOM      6  N   UNL     1      -4.311 -10.249  10.885  0.00  0.00    -0.301 N 
ATOM     21  C   UNL     1      -3.490 -10.567  11.968  0.00  0.00    +0.219 C 
ATOM     23  C   UNL     1      -5.590 -10.898  10.571  0.00  0.00    +0.108 C 
ATOM     24  C   UNL     1      -3.892  -9.222   9.929  0.00  0.00    +0.108 C 
ATOM     26  C   UNL     1      -6.701  -9.860  10.421  0.00  0.00    +0.019 C 
ATOM     27  C   UNL     1      -4.970  -8.153   9.768  0.00  0.00    +0.019 C 
ATOM     28  C   UNL     1      -6.318  -8.778   9.414  0.00  0.00    +0.003 C 
ENDBRANCH  18  21
ENDBRANCH  12  18
TORSDOF 6
ENDMDL
MODEL 3
REMARK VINA RESULT:      -6.8     18.005     19.849
REMARK  Name = 45361389
REMARK  10 active torsions:
REMARK  status: ('A' for Active; 'I' for Inactive)
REMARK    1  A    between atoms: O_1  and  C_10
REMARK    2  A    between atoms: O_4  and  C_33
REMARK    3  A    between atoms: O_4  and  C_34
REMARK    4  A    between atoms: N_5  and  C_14
REMARK    5  A    between atoms: C_7  and  C_17
REMARK    6  A    between atoms: C_9  and  C_19
REMARK    7  A    between atoms: C_12  and  C_18
REMARK    8  A    between atoms: C_18  and  C_20
REMARK    9  A    between atoms: C_18  and  C_21
REMARK   10  A    between atoms: C_22  and  C_25
REMARK                            x       y       z     vdW  Elec       q    Type
REMARK                         _______ _______ _______ _____ _____    ______ ____
ROOT
ATOM      7  C   UNL     1     -15.644   7.792  21.004  0.00  0.00    -0.027 C 
ATOM      8  C   UNL     1     -14.334   6.961  21.210  0.00  0.00    +0.028 C 
ATOM      9  C   UNL     1     -14.440   6.059  22.492  0.00  0.00    +0.012 C 
ATOM     10  C   UNL     1     -13.073   7.870  21.135  0.00  0.00    +0.122 C 
ATOM     11  C   UNL     1     -15.552   8.580  19.676  0.00  0.00    +0.007 C 
ATOM     12  C   UNL     1     -13.038   8.733  19.851  0.00  0.00    +0.029 C 
ATOM     13  C   UNL     1     -16.843   6.822  20.893  0.00  0.00    +0.009 C 
ATOM     14  C   UNL     1     -15.692   5.142  22.404  0.00  0.00    +0.076 C 
ATOM     15  C   UNL     1     -14.339   9.500  19.614  0.00  0.00    +0.007 C 
ATOM     16  C   UNL     1     -16.982   5.902  22.098  0.00  0.00    +0.023 C 
ATOM     17  C   UNL     1     -15.903   8.792  22.159  0.00  0.00    +0.011 C 
ATOM     19  C   UNL     1     -13.194   5.193  22.740  0.00  0.00    +0.010 C 
ENDROOT
BRANCH  14   5
ATOM      3  O   UNL     1     -16.718   2.469  22.606  0.00  0.00    -0.270 OA
ATOM      5  N   UNL     1     -15.886   4.381  23.620  0.00  0.00    -0.308 N 
ATOM     22  C   UNL     1     -16.390   3.091  23.613  0.00  0.00    +0.244 C 
ATOM     35  H   UNL     1     -15.744   4.873  24.496  0.00  0.00    +0.149 HD
BRANCH  22  25
ATOM     25  C   UNL     1     -16.554   2.456  24.945  0.00  0.00    +0.037 A 
ATOM     29  C   UNL     1     -17.127   1.188  25.048  0.00  0.00    +0.016 A 
ATOM     30  C   UNL     1     -16.137   3.127  26.095  0.00  0.00    +0.016 A 
ATOM     31  C   UNL     1     -17.283   0.591  26.299  0.00  0.00    +0.046 A 
ATOM     32  C   UNL     1     -16.292   2.531  27.347  0.00  0.00    +0.046 A 
ATOM     33  C   UNL     1     -16.865   1.263  27.448  0.00  0.00    +0.120 A 
BRANCH  33   4
ATOM      4  O   UNL     1     -17.017   0.681  28.669  0.00  0.00    -0.495 OA
ATOM     34  C   UNL     1     -15.937   0.822  29.593  0.00  0.00    +0.277 C 
ENDBRANCH  33   4
ENDBRANCH  22  25
ENDBRANCH  14   5
BRANCH  10   1
ATOM      1  O   UNL     1     -11.899   7.056  21.110  0.00  0.00    -0.391 OA
ATOM     36  H   UNL     1     -11.472   7.116  21.981  0.00  0.00    +0.210 HD
ENDBRANCH  10   1
BRANCH  12  18
ATOM     18  C   UNL     1     -11.859   9.714  19.857  0.00  0.00    +0.078 C 
ATOM     20  C   UNL     1     -11.907  10.619  21.075  0.00  0.00    +0.017 C 
BRANCH  18  21
ATOM      2  O   UNL     1     -12.611  11.554  18.568  0.00  0.00    -0.275 OA
ATOM      6  N   UNL     1     -11.149  10.083  17.520  0.00  0.00    -0.301 N 
ATOM     21  C   UNL     1     -11.912  10.538  18.597  0.00  0.00    +0.219 C 
ATOM     23  C   UNL     1     -10.275   8.903  17.537  0.00  0.00    +0.108 C 
ATOM     24  C   UNL     1     -11.150  10.828  16.260  0.00  0.00    +0.108 C 
ATOM     26  C   UNL     1     -10.619   7.957  16.389  0.00  0.00    +0.019 C 
ATOM     27  C   UNL     1     -11.512   9.918  15.088  0.00  0.00    +0.019 C 
ATOM     28  C   UNL     1     -10.610   8.686  15.047  0.00  0.00    +0.003 C 
ENDBRANCH  18  21
ENDBRANCH  12  18
TORSDOF 6
ENDMDL
MODEL 4
REMARK VINA RESULT:      -6.7     29.132     32.863
REMARK  Name = 45361389
REMARK  10 active torsions:
REMARK  status: ('A' for Active; 'I' for Inactive)
REMARK    1  A    between atoms: O_1  and  C_10
REMARK    2  A    between atoms: O_4  and  C_33
REMARK    3  A    between atoms: O_4  and  C_34
REMARK    4  A    between atoms: N_5  and  C_14
REMARK    5  A    between atoms: C_7  and  C_17
REMARK    6  A    between atoms: C_9  and  C_19
REMARK    7  A    between atoms: C_12  and  C_18
REMARK    8  A    between atoms: C_18  and  C_20
REMARK    9  A    between atoms: C_18  and  C_21
REMARK   10  A    between atoms: C_22  and  C_25
REMARK                            x       y       z     vdW  Elec       q    Type
REMARK                         _______ _______ _______ _____ _____    ______ ____
ROOT
ATOM      7  C   UNL     1      18.091  10.696  21.749  0.00  0.00    -0.027 C 
ATOM      8  C   UNL     1      17.354   9.320  21.641  0.00  0.00    +0.028 C 
ATOM      9  C   UNL     1      18.334   8.199  21.139  0.00  0.00    +0.012 C 
ATOM     10  C   UNL     1      16.027   9.454  20.840  0.00  0.00    +0.122 C 
ATOM     11  C   UNL     1      17.131  11.749  22.352  0.00  0.00    +0.007 C 
ATOM     12  C   UNL     1      15.115  10.579  21.384  0.00  0.00    +0.029 C 
ATOM     13  C   UNL     1      19.292  10.549  22.712  0.00  0.00    +0.009 C 
ATOM     14  C   UNL     1      19.575   8.112  22.071  0.00  0.00    +0.076 C 
ATOM     15  C   UNL     1      15.848  11.911  21.549  0.00  0.00    +0.007 C 
ATOM     16  C   UNL     1      20.266   9.457  22.291  0.00  0.00    +0.023 C 
ATOM     17  C   UNL     1      18.597  11.211  20.377  0.00  0.00    +0.011 C 
ATOM     19  C   UNL     1      17.680   6.811  21.036  0.00  0.00    +0.010 C 
ENDROOT
BRANCH  14   5
ATOM      3  O   UNL     1      20.618   5.828  23.464  0.00  0.00    -0.270 OA
ATOM      5  N   UNL     1      20.554   7.169  21.573  0.00  0.00    -0.308 N 
ATOM     22  C   UNL     1      20.996   6.094  22.326  0.00  0.00    +0.244 C 
ATOM     35  H   UNL     1      20.995   7.392  20.687  0.00  0.00    +0.149 HD
BRANCH  22  25
ATOM     25  C   UNL     1      22.023   5.235  21.683  0.00  0.00    +0.037 A 
ATOM     29  C   UNL     1      23.046   5.814  20.932  0.00  0.00    +0.016 A 
ATOM     30  C   UNL     1      21.962   3.848  21.827  0.00  0.00    +0.016 A 
ATOM     31  C   UNL     1      24.009   5.008  20.326  0.00  0.00    +0.046 A 
ATOM     32  C   UNL     1      22.926   3.041  21.221  0.00  0.00    +0.046 A 
ATOM     33  C   UNL     1      23.949   3.621  20.470  0.00  0.00    +0.120 A 
BRANCH  33   4
ATOM      4  O   UNL     1      24.888   2.834  19.879  0.00  0.00    -0.495 OA
ATOM     34  C   UNL     1      26.191   2.828  20.463  0.00  0.00    +0.277 C 
ENDBRANCH  33   4
ENDBRANCH  22  25
ENDBRANCH  14   5
BRANCH  10   1
ATOM      1  O   UNL     1      15.281   8.240  20.946  0.00  0.00    -0.391 OA
ATOM     36  H   UNL     1      14.340   8.469  21.029  0.00  0.00    +0.210 HD
ENDBRANCH  10   1
BRANCH  12  18
ATOM     18  C   UNL     1      13.875  10.782  20.505  0.00  0.00    +0.078 C 
ATOM     20  C   UNL     1      13.920  12.123  19.796  0.00  0.00    +0.017 C 
BRANCH  18  21
ATOM      2  O   UNL     1      12.448  11.571  22.224  0.00  0.00    -0.275 OA
ATOM      6  N   UNL     1      11.802   9.609  21.160  0.00  0.00    -0.301 N 
ATOM     21  C   UNL     1      12.648  10.698  21.376  0.00  0.00    +0.219 C 
ATOM     23  C   UNL     1      11.990   8.578  20.132  0.00  0.00    +0.108 C 
ATOM     24  C   UNL     1      10.591   9.455  21.969  0.00  0.00    +0.108 C 
ATOM     26  C   UNL     1      11.967   7.183  20.753  0.00  0.00    +0.019 C 
ATOM     27  C   UNL     1      10.542   8.078  22.625  0.00  0.00    +0.019 C 
ATOM     28  C   UNL     1      10.708   6.968  21.589  0.00  0.00    +0.003 C 
ENDBRANCH  18  21
ENDBRANCH  12  18
TORSDOF 6
ENDMDL
MODEL 5
REMARK VINA RESULT:      -6.5      4.196     10.979
REMARK  Name = 45361389
REMARK  10 active torsions:
REMARK  status: ('A' for Active; 'I' for Inactive)
REMARK    1  A    between atoms: O_1  and  C_10
REMARK    2  A    between atoms: O_4  and  C_33
REMARK    3  A    between atoms: O_4  and  C_34
REMARK    4  A    between atoms: N_5  and  C_14
REMARK    5  A    between atoms: C_7  and  C_17
REMARK    6  A    between atoms: C_9  and  C_19
REMARK    7  A    between atoms: C_12  and  C_18
REMARK    8  A    between atoms: C_18  and  C_20
REMARK    9  A    between atoms: C_18  and  C_21
REMARK   10  A    between atoms: C_22  and  C_25
REMARK                            x       y       z     vdW  Elec       q    Type
REMARK                         _______ _______ _______ _____ _____    ______ ____
ROOT
ATOM      7  C   UNL     1      -3.777 -13.926  12.738  0.00  0.00    -0.027 C 
ATOM      8  C   UNL     1      -4.072 -12.476  12.231  0.00  0.00    +0.028 C 
ATOM      9  C   UNL     1      -3.569 -12.286  10.754  0.00  0.00    +0.012 C 
ATOM     10  C   UNL     1      -3.572 -11.411  13.249  0.00  0.00    +0.122 C 
ATOM     11  C   UNL     1      -4.384 -14.114  14.148  0.00  0.00    +0.007 C 
ATOM     12  C   UNL     1      -4.100 -11.663  14.681  0.00  0.00    +0.029 C 
ATOM     13  C   UNL     1      -4.463 -14.939  11.792  0.00  0.00    +0.009 C 
ATOM     14  C   UNL     1      -4.207 -13.357   9.826  0.00  0.00    +0.076 C 
ATOM     15  C   UNL     1      -3.868 -13.097  15.157  0.00  0.00    +0.007 C 
ATOM     16  C   UNL     1      -4.034 -14.786  10.339  0.00  0.00    +0.023 C 
ATOM     17  C   UNL     1      -2.260 -14.236  12.804  0.00  0.00    +0.011 C 
ATOM     19  C   UNL     1      -3.853 -10.887  10.182  0.00  0.00    +0.010 C 
ENDROOT
BRANCH  14   5
ATOM      3  O   UNL     1      -5.702 -12.912   7.416  0.00  0.00    -0.270 OA
ATOM      5  N   UNL     1      -3.676 -13.285   8.481  0.00  0.00    -0.308 N 
ATOM     22  C   UNL     1      -4.484 -13.066   7.378  0.00  0.00    +0.244 C 
ATOM     35  H   UNL     1      -2.696 -13.518   8.362  0.00  0.00    +0.149 HD
BRANCH  22  25
ATOM     25  C   UNL     1      -3.791 -13.046   6.065  0.00  0.00    +0.037 A 
ATOM     29  C   UNL     1      -2.616 -13.777   5.885  0.00  0.00    +0.016 A 
ATOM     30  C   UNL     1      -4.312 -12.295   5.011  0.00  0.00    +0.016 A 
ATOM     31  C   UNL     1      -1.963 -13.757   4.653  0.00  0.00    +0.046 A 
ATOM     32  C   UNL     1      -3.659 -12.274   3.779  0.00  0.00    +0.046 A 
ATOM     33  C   UNL     1      -2.485 -13.006   3.599  0.00  0.00    +0.120 A 
BRANCH  33   4
ATOM      4  O   UNL     1      -1.849 -12.986   2.397  0.00  0.00    -0.495 OA
ATOM     34  C   UNL     1      -1.022 -14.106   2.081  0.00  0.00    +0.277 C 
ENDBRANCH  33   4
ENDBRANCH  22  25
ENDBRANCH  14   5
BRANCH  10   1
ATOM      1  O   UNL     1      -4.047 -10.120  12.862  0.00  0.00    -0.391 OA
ATOM     36  H   UNL     1      -3.767  -9.958  11.945  0.00  0.00    +0.210 HD
ENDBRANCH  10   1
BRANCH  12  18
ATOM     18  C   UNL     1      -3.494 -10.682  15.692  0.00  0.00    +0.078 C 
ATOM     20  C   UNL     1      -1.993 -10.876  15.810  0.00  0.00    +0.017 C 
BRANCH  18  21
ATOM      2  O   UNL     1      -3.555 -11.549  17.896  0.00  0.00    -0.275 OA
ATOM      6  N   UNL     1      -5.420 -10.349  17.203  0.00  0.00    -0.301 N 
ATOM     21  C   UNL     1      -4.150 -10.903  17.031  0.00  0.00    +0.219 C 
ATOM     23  C   UNL     1      -6.135  -9.539  16.209  0.00  0.00    +0.108 C 
ATOM     24  C   UNL     1      -6.124 -10.522  18.475  0.00  0.00    +0.108 C 
ATOM     26  C   UNL     1      -7.526 -10.110  15.945  0.00  0.00    +0.019 C 
ATOM     27  C   UNL     1      -7.514 -11.113  18.254  0.00  0.00    +0.019 C 
ATOM     28  C   UNL     1      -8.309 -10.288  17.244  0.00  0.00    +0.003 C 
ENDBRANCH  18  21
ENDBRANCH  12  18
TORSDOF 6
ENDMDL
MODEL 6
REMARK VINA RESULT:      -6.3     18.554     20.199
REMARK  Name = 45361389
REMARK  10 active torsions:
REMARK  status: ('A' for Active; 'I' for Inactive)
REMARK    1  A    between atoms: O_1  and  C_10
REMARK    2  A    between atoms: O_4  and  C_33
REMARK    3  A    between atoms: O_4  and  C_34
REMARK    4  A    between atoms: N_5  and  C_14
REMARK    5  A    between atoms: C_7  and  C_17
REMARK    6  A    between atoms: C_9  and  C_19
REMARK    7  A    between atoms: C_12  and  C_18
REMARK    8  A    between atoms: C_18  and  C_20
REMARK    9  A    between atoms: C_18  and  C_21
REMARK   10  A    between atoms: C_22  and  C_25
REMARK                            x       y       z     vdW  Elec       q    Type
REMARK                         _______ _______ _______ _____ _____    ______ ____
ROOT
ATOM      7  C   UNL     1     -17.477   6.534  21.839  0.00  0.00    -0.027 C 
ATOM      8  C   UNL     1     -15.978   6.095  21.930  0.00  0.00    +0.028 C 
ATOM      9  C   UNL     1     -15.638   5.560  23.368  0.00  0.00    +0.012 C 
ATOM     10  C   UNL     1     -15.032   7.206  21.390  0.00  0.00    +0.122 C 
ATOM     11  C   UNL     1     -17.806   6.947  20.385  0.00  0.00    +0.007 C 
ATOM     12  C   UNL     1     -15.429   7.688  19.975  0.00  0.00    +0.029 C 
ATOM     13  C   UNL     1     -18.377   5.330  22.201  0.00  0.00    +0.009 C 
ATOM     14  C   UNL     1     -16.599   4.400  23.752  0.00  0.00    +0.076 C 
ATOM     15  C   UNL     1     -16.907   8.061  19.866  0.00  0.00    +0.007 C 
ATOM     16  C   UNL     1     -18.076   4.751  23.577  0.00  0.00    +0.023 C 
ATOM     17  C   UNL     1     -17.808   7.720  22.780  0.00  0.00    +0.011 C 
ATOM     19  C   UNL     1     -14.184   5.084  23.521  0.00  0.00    +0.010 C 
ENDROOT
BRANCH  14   5
ATOM      3  O   UNL     1     -16.528   1.687  24.686  0.00  0.00    -0.270 OA
ATOM      5  N   UNL     1     -16.391   3.961  25.116  0.00  0.00    -0.308 N 
ATOM     22  C   UNL     1     -16.374   2.622  25.468  0.00  0.00    +0.244 C 
ATOM     35  H   UNL     1     -16.371   4.680  25.831  0.00  0.00    +0.149 HD
BRANCH  22  25
ATOM     25  C   UNL     1     -16.176   2.336  26.911  0.00  0.00    +0.037 A 
ATOM     29  C   UNL     1     -16.458   1.068  27.417  0.00  0.00    +0.016 A 
ATOM     30  C   UNL     1     -15.708   3.338  27.763  0.00  0.00    +0.016 A 
ATOM     31  C   UNL     1     -16.274   0.799  28.773  0.00  0.00    +0.046 A 
ATOM     32  C   UNL     1     -15.524   3.070  29.120  0.00  0.00    +0.046 A 
ATOM     33  C   UNL     1     -15.807   1.801  29.625  0.00  0.00    +0.120 A 
BRANCH  33   4
ATOM      4  O   UNL     1     -15.626   1.540  30.948  0.00  0.00    -0.495 OA
ATOM     34  C   UNL     1     -14.953   0.327  31.285  0.00  0.00    +0.277 C 
ENDBRANCH  33   4
ENDBRANCH  22  25
ENDBRANCH  14   5
BRANCH  10   1
ATOM      1  O   UNL     1     -13.703   6.692  21.287  0.00  0.00    -0.391 OA
ATOM     36  H   UNL     1     -13.096   7.444  21.177  0.00  0.00    +0.210 HD
ENDBRANCH  10   1
BRANCH  12  18
ATOM     18  C   UNL     1     -14.567   8.871  19.514  0.00  0.00    +0.078 C 
ATOM     20  C   UNL     1     -15.411  10.115  19.307  0.00  0.00    +0.017 C 
BRANCH  18  21
ATOM      2  O   UNL     1     -14.435   7.714  17.451  0.00  0.00    -0.275 OA
ATOM      6  N   UNL     1     -12.624   9.061  18.002  0.00  0.00    -0.301 N 
ATOM     21  C   UNL     1     -13.878   8.492  18.229  0.00  0.00    +0.219 C 
ATOM     23  C   UNL     1     -11.954  10.023  18.886  0.00  0.00    +0.108 C 
ATOM     24  C   UNL     1     -11.889   8.740  16.776  0.00  0.00    +0.108 C 
ATOM     26  C   UNL     1     -10.551   9.541  19.247  0.00  0.00    +0.019 C 
ATOM     27  C   UNL     1     -10.485   8.233  17.097  0.00  0.00    +0.019 C 
ATOM     28  C   UNL     1      -9.737   9.215  17.997  0.00  0.00    +0.003 C 
ENDBRANCH  18  21
ENDBRANCH  12  18
TORSDOF 6
ENDMDL
MODEL 7
REMARK VINA RESULT:      -6.3     25.162     30.729
REMARK  Name = 45361389
REMARK  10 active torsions:
REMARK  status: ('A' for Active; 'I' for Inactive)
REMARK    1  A    between atoms: O_1  and  C_10
REMARK    2  A    between atoms: O_4  and  C_33
REMARK    3  A    between atoms: O_4  and  C_34
REMARK    4  A    between atoms: N_5  and  C_14
REMARK    5  A    between atoms: C_7  and  C_17
REMARK    6  A    between atoms: C_9  and  C_19
REMARK    7  A    between atoms: C_12  and  C_18
REMARK    8  A    between atoms: C_18  and  C_20
REMARK    9  A    between atoms: C_18  and  C_21
REMARK   10  A    between atoms: C_22  and  C_25
REMARK                            x       y       z     vdW  Elec       q    Type
REMARK                         _______ _______ _______ _____ _____    ______ ____
ROOT
ATOM      7  C   UNL     1      13.377   4.794  -1.603  0.00  0.00    -0.027 C 
ATOM      8  C   UNL     1      14.422   4.221  -0.590  0.00  0.00    +0.028 C 
ATOM      9  C   UNL     1      13.927   4.405   0.890  0.00  0.00    +0.012 C 
ATOM     10  C   UNL     1      15.850   4.761  -0.889  0.00  0.00    +0.122 C 
ATOM     11  C   UNL     1      13.840   4.496  -3.048  0.00  0.00    +0.007 C 
ATOM     12  C   UNL     1      16.269   4.552  -2.363  0.00  0.00    +0.029 C 
ATOM     13  C   UNL     1      12.022   4.081  -1.387  0.00  0.00    +0.009 C 
ATOM     14  C   UNL     1      12.530   3.749   1.076  0.00  0.00    +0.076 C 
ATOM     15  C   UNL     1      15.222   5.057  -3.356  0.00  0.00    +0.007 C 
ATOM     16  C   UNL     1      11.503   4.202   0.039  0.00  0.00    +0.023 C 
ATOM     17  C   UNL     1      13.177   6.324  -1.450  0.00  0.00    +0.011 C 
ATOM     19  C   UNL     1      14.897   3.836   1.939  0.00  0.00    +0.010 C 
ENDROOT
BRANCH  14   5
ATOM      3  O   UNL     1      11.638   6.274   2.111  0.00  0.00    -0.270 OA
ATOM      5  N   UNL     1      11.991   4.000   2.396  0.00  0.00    -0.308 N 
ATOM     22  C   UNL     1      11.587   5.261   2.803  0.00  0.00    +0.244 C 
ATOM     35  H   UNL     1      12.027   3.233   3.058  0.00  0.00    +0.149 HD
BRANCH  22  25
ATOM     25  C   UNL     1      11.082   5.357   4.196  0.00  0.00    +0.037 A 
ATOM     29  C   UNL     1      11.547   6.366   5.038  0.00  0.00    +0.016 A 
ATOM     30  C   UNL     1      10.142   4.437   4.663  0.00  0.00    +0.016 A 
ATOM     31  C   UNL     1      11.075   6.457   6.347  0.00  0.00    +0.046 A 
ATOM     32  C   UNL     1       9.669   4.527   5.972  0.00  0.00    +0.046 A 
ATOM     33  C   UNL     1      10.136   5.537   6.815  0.00  0.00    +0.120 A 
BRANCH  33   4
ATOM      4  O   UNL     1       9.674   5.624   8.091  0.00  0.00    -0.495 OA
ATOM     34  C   UNL     1       9.594   4.409   8.837  0.00  0.00    +0.277 C 
ENDBRANCH  33   4
ENDBRANCH  22  25
ENDBRANCH  14   5
BRANCH  10   1
ATOM      1  O   UNL     1      16.803   4.056  -0.092  0.00  0.00    -0.391 OA
ATOM     36  H   UNL     1      16.389   3.851   0.764  0.00  0.00    +0.210 HD
ENDBRANCH  10   1
BRANCH  12  18
ATOM     18  C   UNL     1      17.622   5.206  -2.669  0.00  0.00    +0.078 C 
ATOM     20  C   UNL     1      17.446   6.646  -3.114  0.00  0.00    +0.017 C 
BRANCH  18  21
ATOM      2  O   UNL     1      17.754   4.273  -4.843  0.00  0.00    -0.275 OA
ATOM      6  N   UNL     1      19.554   3.867  -3.430  0.00  0.00    -0.301 N 
ATOM     21  C   UNL     1      18.309   4.410  -3.749  0.00  0.00    +0.219 C 
ATOM     23  C   UNL     1      20.258   4.049  -2.155  0.00  0.00    +0.108 C 
ATOM     24  C   UNL     1      20.283   3.080  -4.426  0.00  0.00    +0.108 C 
ATOM     26  C   UNL     1      20.643   2.700  -1.552  0.00  0.00    +0.019 C 
ATOM     27  C   UNL     1      20.667   1.712  -3.867  0.00  0.00    +0.019 C 
ATOM     28  C   UNL     1      21.426   1.849  -2.549  0.00  0.00    +0.003 C 
ENDBRANCH  18  21
ENDBRANCH  12  18
TORSDOF 6
ENDMDL
MODEL 8
REMARK VINA RESULT:      -6.2     19.315     23.235
REMARK  Name = 45361389
REMARK  10 active torsions:
REMARK  status: ('A' for Active; 'I' for Inactive)
REMARK    1  A    between atoms: O_1  and  C_10
REMARK    2  A    between atoms: O_4  and  C_33
REMARK    3  A    between atoms: O_4  and  C_34
REMARK    4  A    between atoms: N_5  and  C_14
REMARK    5  A    between atoms: C_7  and  C_17
REMARK    6  A    between atoms: C_9  and  C_19
REMARK    7  A    between atoms: C_12  and  C_18
REMARK    8  A    between atoms: C_18  and  C_20
REMARK    9  A    between atoms: C_18  and  C_21
REMARK   10  A    between atoms: C_22  and  C_25
REMARK                            x       y       z     vdW  Elec       q    Type
REMARK                         _______ _______ _______ _____ _____    ______ ____
ROOT
ATOM      7  C   UNL     1      -7.259 -11.069  38.575  0.00  0.00    -0.027 C 
ATOM      8  C   UNL     1      -8.473 -10.089  38.461  0.00  0.00    +0.028 C 
ATOM      9  C   UNL     1      -9.372 -10.455  37.225  0.00  0.00    +0.012 C 
ATOM     10  C   UNL     1      -8.009  -8.606  38.533  0.00  0.00    +0.122 C 
ATOM     11  C   UNL     1      -6.460 -10.753  39.862  0.00  0.00    +0.007 C 
ATOM     12  C   UNL     1      -7.124  -8.319  39.769  0.00  0.00    +0.029 C 
ATOM     13  C   UNL     1      -7.789 -12.516  38.694  0.00  0.00    +0.009 C 
ATOM     14  C   UNL     1      -9.837 -11.935  37.317  0.00  0.00    +0.076 C 
ATOM     15  C   UNL     1      -5.971  -9.312  39.918  0.00  0.00    +0.007 C 
ATOM     16  C   UNL     1      -8.690 -12.920  37.536  0.00  0.00    +0.023 C 
ATOM     17  C   UNL     1      -6.301 -10.975  37.359  0.00  0.00    +0.011 C 
ATOM     19  C   UNL     1     -10.603  -9.546  37.068  0.00  0.00    +0.010 C 
ENDROOT
BRANCH  14   5
ATOM      3  O   UNL     1     -12.670 -12.357  37.122  0.00  0.00    -0.270 OA
ATOM      5  N   UNL     1     -10.572 -12.341  36.137  0.00  0.00    -0.308 N 
ATOM     22  C   UNL     1     -11.945 -12.519  36.145  0.00  0.00    +0.244 C 
ATOM     35  H   UNL     1     -10.024 -12.603  35.324  0.00  0.00    +0.149 HD
BRANCH  22  25
ATOM     25  C   UNL     1     -12.545 -12.962  34.860  0.00  0.00    +0.037 A 
ATOM     29  C   UNL     1     -12.007 -14.054  34.180  0.00  0.00    +0.016 A 
ATOM     30  C   UNL     1     -13.645 -12.285  34.334  0.00  0.00    +0.016 A 
ATOM     31  C   UNL     1     -12.568 -14.470  32.972  0.00  0.00    +0.046 A 
ATOM     32  C   UNL     1     -14.207 -12.701  33.126  0.00  0.00    +0.046 A 
ATOM     33  C   UNL     1     -13.669 -13.793  32.446  0.00  0.00    +0.120 A 
BRANCH  33   4
ATOM      4  O   UNL     1     -14.218 -14.198  31.268  0.00  0.00    -0.495 OA
ATOM     34  C   UNL     1     -14.207 -13.261  30.191  0.00  0.00    +0.277 C 
ENDBRANCH  33   4
ENDBRANCH  22  25
ENDBRANCH  14   5
BRANCH  10   1
ATOM      1  O   UNL     1      -9.150  -7.753  38.643  0.00  0.00    -0.391 OA
ATOM     36  H   UNL     1      -9.887  -8.279  38.996  0.00  0.00    +0.210 HD
ENDBRANCH  10   1
BRANCH  12  18
ATOM     18  C   UNL     1      -6.570  -6.889  39.753  0.00  0.00    +0.078 C 
ATOM     20  C   UNL     1      -5.058  -6.889  39.622  0.00  0.00    +0.017 C 
BRANCH  18  21
ATOM      2  O   UNL     1      -6.601  -6.658  42.111  0.00  0.00    -0.275 OA
ATOM      6  N   UNL     1      -7.779  -5.064  40.898  0.00  0.00    -0.301 N 
ATOM     21  C   UNL     1      -6.979  -6.200  41.030  0.00  0.00    +0.219 C 
ATOM     23  C   UNL     1      -8.208  -4.471  39.625  0.00  0.00    +0.108 C 
ATOM     24  C   UNL     1      -8.220  -4.341  42.092  0.00  0.00    +0.108 C 
ATOM     26  C   UNL     1      -9.726  -4.307  39.589  0.00  0.00    +0.019 C 
ATOM     27  C   UNL     1      -9.737  -4.176  42.102  0.00  0.00    +0.019 C 
ATOM     28  C   UNL     1     -10.231  -3.537  40.806  0.00  0.00    +0.003 C 
ENDBRANCH  18  21
ENDBRANCH  12  18
TORSDOF 6
ENDMDL
MODEL 9
REMARK VINA RESULT:      -6.1      3.694     10.876
REMARK  Name = 45361389
REMARK  10 active torsions:
REMARK  status: ('A' for Active; 'I' for Inactive)
REMARK    1  A    between atoms: O_1  and  C_10
REMARK    2  A    between atoms: O_4  and  C_33
REMARK    3  A    between atoms: O_4  and  C_34
REMARK    4  A    between atoms: N_5  and  C_14
REMARK    5  A    between atoms: C_7  and  C_17
REMARK    6  A    between atoms: C_9  and  C_19
REMARK    7  A    between atoms: C_12  and  C_18
REMARK    8  A    between atoms: C_18  and  C_20
REMARK    9  A    between atoms: C_18  and  C_21
REMARK   10  A    between atoms: C_22  and  C_25
REMARK                            x       y       z     vdW  Elec       q    Type
REMARK                         _______ _______ _______ _____ _____    ______ ____
ROOT
ATOM      7  C   UNL     1     -11.055  -9.958  18.156  0.00  0.00    -0.027 C 
ATOM      8  C   UNL     1     -10.127 -10.975  18.899  0.00  0.00    +0.028 C 
ATOM      9  C   UNL     1      -8.854 -11.303  18.038  0.00  0.00    +0.012 C 
ATOM     10  C   UNL     1     -10.931 -12.210  19.398  0.00  0.00    +0.122 C 
ATOM     11  C   UNL     1     -12.238  -9.571  19.075  0.00  0.00    +0.007 C 
ATOM     12  C   UNL     1     -12.173 -11.814  20.231  0.00  0.00    +0.029 C 
ATOM     13  C   UNL     1     -10.252  -8.671  17.856  0.00  0.00    +0.009 C 
ATOM     14  C   UNL     1      -8.096  -9.994  17.679  0.00  0.00    +0.076 C 
ATOM     15  C   UNL     1     -13.050 -10.774  19.534  0.00  0.00    +0.007 C 
ATOM     16  C   UNL     1      -8.990  -8.928  17.045  0.00  0.00    +0.023 C 
ATOM     17  C   UNL     1     -11.621 -10.526  16.830  0.00  0.00    +0.011 C 
ATOM     19  C   UNL     1      -7.882 -12.278  18.723  0.00  0.00    +0.010 C 
ENDROOT
BRANCH  14   5
ATOM      3  O   UNL     1      -5.322 -10.134  18.403  0.00  0.00    -0.270 OA
ATOM      5  N   UNL     1      -6.982 -10.247  16.789  0.00  0.00    -0.308 N 
ATOM     22  C   UNL     1      -5.673 -10.294  17.237  0.00  0.00    +0.244 C 
ATOM     35  H   UNL     1      -7.187 -10.274  15.796  0.00  0.00    +0.149 HD
BRANCH  22  25
ATOM     25  C   UNL     1      -4.643 -10.537  16.195  0.00  0.00    +0.037 A 
ATOM     29  C   UNL     1      -4.991 -10.488  14.846  0.00  0.00    +0.016 A 
ATOM     30  C   UNL     1      -3.327 -10.816  16.566  0.00  0.00    +0.016 A 
ATOM     31  C   UNL     1      -4.025 -10.718  13.866  0.00  0.00    +0.046 A 
ATOM     32  C   UNL     1      -2.360 -11.046  15.587  0.00  0.00    +0.046 A 
ATOM     33  C   UNL     1      -2.709 -10.997  14.237  0.00  0.00    +0.120 A 
BRANCH  33   4
ATOM      4  O   UNL     1      -1.766 -11.221  13.282  0.00  0.00    -0.495 OA
ATOM     34  C   UNL     1      -1.931 -10.546  12.036  0.00  0.00    +0.277 C 
ENDBRANCH  33   4
ENDBRANCH  22  25
ENDBRANCH  14   5
BRANCH  10   1
ATOM      1  O   UNL     1     -10.106 -13.005  20.250  0.00  0.00    -0.391 OA
ATOM     36  H   UNL     1      -9.796 -12.443  20.981  0.00  0.00    +0.210 HD
ENDBRANCH  10   1
BRANCH  12  18
ATOM     18  C   UNL     1     -13.023 -13.035  20.603  0.00  0.00    +0.078 C 
ATOM     20  C   UNL     1     -14.442 -12.894  20.081  0.00  0.00    +0.017 C 
BRANCH  18  21
ATOM      2  O   UNL     1     -13.443 -12.240  22.794  0.00  0.00    -0.275 OA
ATOM      6  N   UNL     1     -12.568 -14.386  22.620  0.00  0.00    -0.301 N 
ATOM     21  C   UNL     1     -13.034 -13.177  22.103  0.00  0.00    +0.219 C 
ATOM     23  C   UNL     1     -12.118 -15.533  21.823  0.00  0.00    +0.108 C 
ATOM     24  C   UNL     1     -12.546 -14.598  24.069  0.00  0.00    +0.108 C 
ATOM     26  C   UNL     1     -10.719 -15.973  22.250  0.00  0.00    +0.019 C 
ATOM     27  C   UNL     1     -11.155 -15.019  24.538  0.00  0.00    +0.019 C 
ATOM     28  C   UNL     1     -10.651 -16.229  23.754  0.00  0.00    +0.003 C 
ENDBRANCH  18  21
ENDBRANCH  12  18
TORSDOF 6
ENDMDL
MODEL 10
REMARK VINA RESULT:      -6.0     18.749     21.875
REMARK  Name = 45361389
REMARK  10 active torsions:
REMARK  status: ('A' for Active; 'I' for Inactive)
REMARK    1  A    between atoms: O_1  and  C_10
REMARK    2  A    between atoms: O_4  and  C_33
REMARK    3  A    between atoms: O_4  and  C_34
REMARK    4  A    between atoms: N_5  and  C_14
REMARK    5  A    between atoms: C_7  and  C_17
REMARK    6  A    between atoms: C_9  and  C_19
REMARK    7  A    between atoms: C_12  and  C_18
REMARK    8  A    between atoms: C_18  and  C_20
REMARK    9  A    between atoms: C_18  and  C_21
REMARK   10  A    between atoms: C_22  and  C_25
REMARK                            x       y       z     vdW  Elec       q    Type
REMARK                         _______ _______ _______ _____ _____    ______ ____
ROOT
ATOM      7  C   UNL     1     -11.668   8.275  19.079  0.00  0.00    -0.027 C 
ATOM      8  C   UNL     1     -12.976   7.917  18.299  0.00  0.00    +0.028 C 
ATOM      9  C   UNL     1     -13.141   8.834  17.034  0.00  0.00    +0.012 C 
ATOM     10  C   UNL     1     -14.205   7.868  19.252  0.00  0.00    +0.122 C 
ATOM     11  C   UNL     1     -11.478   7.283  20.251  0.00  0.00    +0.007 C 
ATOM     12  C   UNL     1     -13.970   6.953  20.478  0.00  0.00    +0.029 C 
ATOM     13  C   UNL     1     -10.457   8.120  18.130  0.00  0.00    +0.009 C 
ATOM     14  C   UNL     1     -11.885   8.728  16.124  0.00  0.00    +0.076 C 
ATOM     15  C   UNL     1     -12.662   7.260  21.207  0.00  0.00    +0.007 C 
ATOM     16  C   UNL     1     -10.573   8.967  16.870  0.00  0.00    +0.023 C 
ATOM     17  C   UNL     1     -11.689   9.717  19.647  0.00  0.00    +0.011 C 
ATOM     19  C   UNL     1     -14.396   8.517  16.203  0.00  0.00    +0.010 C 
ENDROOT
BRANCH  14   5
ATOM      3  O   UNL     1     -11.804   8.047  13.337  0.00  0.00    -0.270 OA
ATOM      5  N   UNL     1     -11.952   9.647  15.008  0.00  0.00    -0.308 N 
ATOM     22  C   UNL     1     -11.904   9.218  13.692  0.00  0.00    +0.244 C 
ATOM     35  H   UNL     1     -11.920  10.637  15.227  0.00  0.00    +0.149 HD
BRANCH  22  25
ATOM     25  C   UNL     1     -11.957  10.288  12.663  0.00  0.00    +0.037 A 
ATOM     29  C   UNL     1     -11.958   9.953  11.309  0.00  0.00    +0.016 A 
ATOM     30  C   UNL     1     -12.005  11.627  13.050  0.00  0.00    +0.016 A 
ATOM     31  C   UNL     1     -12.006  10.957  10.342  0.00  0.00    +0.046 A 
ATOM     32  C   UNL     1     -12.053  12.632  12.083  0.00  0.00    +0.046 A 
ATOM     33  C   UNL     1     -12.054  12.296  10.729  0.00  0.00    +0.120 A 
BRANCH  33   4
ATOM      4  O   UNL     1     -12.101  13.277   9.786  0.00  0.00    -0.495 OA
ATOM     34  C   UNL     1     -11.947  14.621  10.240  0.00  0.00    +0.277 C 
ENDBRANCH  33   4
ENDBRANCH  22  25
ENDBRANCH  14   5
BRANCH  10   1
ATOM      1  O   UNL     1     -15.330   7.331  18.554  0.00  0.00    -0.391 OA
ATOM     36  H   UNL     1     -16.025   8.010  18.536  0.00  0.00    +0.210 HD
ENDBRANCH  10   1
BRANCH  12  18
ATOM     18  C   UNL     1     -15.138   7.019  21.470  0.00  0.00    +0.078 C 
ATOM     20  C   UNL     1     -14.672   7.496  22.833  0.00  0.00    +0.017 C 
BRANCH  18  21
ATOM      2  O   UNL     1     -15.055   4.703  21.964  0.00  0.00    -0.275 OA
ATOM      6  N   UNL     1     -17.100   5.536  21.240  0.00  0.00    -0.301 N 
ATOM     21  C   UNL     1     -15.752   5.647  21.583  0.00  0.00    +0.219 C 
ATOM     23  C   UNL     1     -17.966   6.647  20.826  0.00  0.00    +0.108 C 
ATOM     24  C   UNL     1     -17.767   4.235  21.321  0.00  0.00    +0.108 C 
ATOM     26  C   UNL     1     -18.642   6.339  19.492  0.00  0.00    +0.019 C 
ATOM     27  C   UNL     1     -18.438   3.881  19.997  0.00  0.00    +0.019 C 
ATOM     28  C   UNL     1     -19.372   4.998  19.536  0.00  0.00    +0.003 C 
ENDBRANCH  18  21
ENDBRANCH  12  18
TORSDOF 6
ENDMDL
