MODEL 1
REMARK VINA RESULT:      -6.9      0.000      0.000
REMARK  Name = 75536666
REMARK  10 active torsions:
REMARK  status: ('A' for Active; 'I' for Inactive)
REMARK    1  A    between atoms: S_1  and  N_10
REMARK    2  A    between atoms: S_1  and  C_20
REMARK    3  A    between atoms: S_2  and  C_21
REMARK    4  A    between atoms: S_2  and  C_24
REMARK    5  A    between atoms: O_4  and  C_12
REMARK    6  A    between atoms: N_9  and  C_11
REMARK    7  A    between atoms: N_9  and  C_16
REMARK    8  A    between atoms: N_10  and  C_15
REMARK    9  A    between atoms: C_13  and  C_15
REMARK   10  A    between atoms: C_16  and  C_17
REMARK                            x       y       z     vdW  Elec       q    Type
REMARK                         _______ _______ _______ _____ _____    ______ ____
ROOT
ATOM      3  O   UNL     1      10.891   8.535  19.538  0.00  0.00    -0.371 OA
ATOM     11  C   UNL     1      12.786   7.136  19.232  0.00  0.00    +0.111 C 
ATOM     12  C   UNL     1      12.543   7.323  20.719  0.00  0.00    +0.164 C 
ATOM     13  C   UNL     1      11.082   7.749  20.726  0.00  0.00    +0.164 C 
ATOM     14  C   UNL     1      11.998   8.298  18.651  0.00  0.00    +0.181 C 
ENDROOT
BRANCH  12   4
ATOM      4  O   UNL     1      12.750   6.136  21.460  0.00  0.00    -0.388 OA
ATOM     26  H   UNL     1      13.004   5.430  20.841  0.00  0.00    +0.210 HD
ENDBRANCH  12   4
BRANCH  11   9
ATOM      9  N   UNL     1      14.191   7.164  18.863  0.00  0.00    -0.305 NA
ATOM     25  H   UNL     1      14.275   7.470  17.893  0.00  0.00    +0.123 HD
BRANCH   9  16
ATOM     16  C   UNL     1      14.939   8.084  19.713  0.00  0.00    +0.116 C 
BRANCH  16  17
ATOM     17  C   UNL     1      16.299   7.542  20.065  0.00  0.00    -0.033 A 
ATOM     18  C   UNL     1      16.782   6.401  19.427  0.00  0.00    +0.007 A 
ATOM     19  C   UNL     1      17.074   8.182  21.032  0.00  0.00    +0.007 A 
ATOM     21  C   UNL     1      18.819   6.540  20.719  0.00  0.00    +0.088 A 
ATOM     22  C   UNL     1      18.042   5.899  19.753  0.00  0.00    +0.027 A 
ATOM     23  C   UNL     1      18.335   7.681  21.359  0.00  0.00    +0.027 A 
BRANCH  21   2
ATOM      2  S   UNL     1      20.394   5.910  21.131  0.00  0.00    -0.006 S 
ATOM      7  O   UNL     1      20.493   5.796  22.579  0.00  0.00    -0.170 OA
ATOM      8  O   UNL     1      20.644   4.744  20.295  0.00  0.00    -0.170 OA
ATOM     24  C   UNL     1      21.525   7.190  20.635  0.00  0.00    +0.200 C 
ENDBRANCH  21   2
ENDBRANCH  16  17
ENDBRANCH   9  16
ENDBRANCH  11   9
BRANCH  13  15
ATOM     15  C   UNL     1      10.700   8.565  21.948  0.00  0.00    +0.139 C 
BRANCH  15  10
ATOM     10  N   UNL     1      11.918   9.073  22.606  0.00  0.00    -0.192 NA
ATOM     27  H   UNL     1      12.734   8.458  22.485  0.00  0.00    +0.148 HD
BRANCH  10   1
ATOM      1  S   UNL     1      12.231  10.751  22.595  0.00  0.00    +0.027 S 
ATOM      5  O   UNL     1      12.318  11.245  23.956  0.00  0.00    -0.158 OA
ATOM      6  O   UNL     1      11.344  11.377  21.633  0.00  0.00    -0.158 OA
ATOM     20  C   UNL     1      13.868  10.773  21.900  0.00  0.00    +0.214 C 
ENDBRANCH  10   1
ENDBRANCH  15  10
ENDBRANCH  13  15
TORSDOF 8
ENDMDL
MODEL 2
REMARK VINA RESULT:      -6.4      3.173      4.835
REMARK  Name = 75536666
REMARK  10 active torsions:
REMARK  status: ('A' for Active; 'I' for Inactive)
REMARK    1  A    between atoms: S_1  and  N_10
REMARK    2  A    between atoms: S_1  and  C_20
REMARK    3  A    between atoms: S_2  and  C_21
REMARK    4  A    between atoms: S_2  and  C_24
REMARK    5  A    between atoms: O_4  and  C_12
REMARK    6  A    between atoms: N_9  and  C_11
REMARK    7  A    between atoms: N_9  and  C_16
REMARK    8  A    between atoms: N_10  and  C_15
REMARK    9  A    between atoms: C_13  and  C_15
REMARK   10  A    between atoms: C_16  and  C_17
REMARK                            x       y       z     vdW  Elec       q    Type
REMARK                         _______ _______ _______ _____ _____    ______ ____
ROOT
ATOM      3  O   UNL     1      16.220   6.132  18.955  0.00  0.00    -0.371 OA
ATOM     11  C   UNL     1      17.326   6.312  21.049  0.00  0.00    +0.111 C 
ATOM     12  C   UNL     1      15.984   7.015  21.136  0.00  0.00    +0.164 C 
ATOM     13  C   UNL     1      15.238   6.368  19.977  0.00  0.00    +0.164 C 
ATOM     14  C   UNL     1      17.527   6.234  19.545  0.00  0.00    +0.181 C 
ENDROOT
BRANCH  12   4
ATOM      4  O   UNL     1      15.332   6.796  22.372  0.00  0.00    -0.388 OA
ATOM     26  H   UNL     1      15.982   6.441  23.002  0.00  0.00    +0.210 HD
ENDBRANCH  12   4
BRANCH  11   9
ATOM      9  N   UNL     1      18.400   7.018  21.728  0.00  0.00    -0.305 NA
ATOM     25  H   UNL     1      18.572   6.574  22.630  0.00  0.00    +0.123 HD
BRANCH   9  16
ATOM     16  C   UNL     1      19.629   6.984  20.943  0.00  0.00    +0.116 C 
BRANCH  16  17
ATOM     17  C   UNL     1      20.586   5.937  21.446  0.00  0.00    -0.033 A 
ATOM     18  C   UNL     1      21.286   6.144  22.635  0.00  0.00    +0.007 A 
ATOM     19  C   UNL     1      20.775   4.761  20.721  0.00  0.00    +0.007 A 
ATOM     21  C   UNL     1      22.361   3.996  22.376  0.00  0.00    +0.088 A 
ATOM     22  C   UNL     1      22.173   5.174  23.100  0.00  0.00    +0.027 A 
ATOM     23  C   UNL     1      21.662   3.789  21.187  0.00  0.00    +0.027 A 
BRANCH  21   2
ATOM      2  S   UNL     1      23.474   2.782  22.957  0.00  0.00    -0.006 S 
ATOM      7  O   UNL     1      24.693   3.439  23.409  0.00  0.00    -0.170 OA
ATOM      8  O   UNL     1      22.747   1.904  23.862  0.00  0.00    -0.170 OA
ATOM     24  C   UNL     1      23.899   1.843  21.508  0.00  0.00    +0.200 C 
ENDBRANCH  21   2
ENDBRANCH  16  17
ENDBRANCH   9  16
ENDBRANCH  11   9
BRANCH  13  15
ATOM     15  C   UNL     1      14.119   7.232  19.425  0.00  0.00    +0.139 C 
BRANCH  15  10
ATOM     10  N   UNL     1      12.819   6.581  19.676  0.00  0.00    -0.192 NA
ATOM     27  H   UNL     1      12.836   5.564  19.523  0.00  0.00    +0.148 HD
BRANCH  10   1
ATOM      1  S   UNL     1      11.849   7.132  20.968  0.00  0.00    +0.027 S 
ATOM      5  O   UNL     1      12.679   7.771  21.970  0.00  0.00    -0.158 OA
ATOM      6  O   UNL     1      10.926   6.074  21.332  0.00  0.00    -0.158 OA
ATOM     20  C   UNL     1      10.906   8.399  20.150  0.00  0.00    +0.214 C 
ENDBRANCH  10   1
ENDBRANCH  15  10
ENDBRANCH  13  15
TORSDOF 8
ENDMDL
MODEL 3
REMARK VINA RESULT:      -6.0     30.917     32.526
REMARK  Name = 75536666
REMARK  10 active torsions:
REMARK  status: ('A' for Active; 'I' for Inactive)
REMARK    1  A    between atoms: S_1  and  N_10
REMARK    2  A    between atoms: S_1  and  C_20
REMARK    3  A    between atoms: S_2  and  C_21
REMARK    4  A    between atoms: S_2  and  C_24
REMARK    5  A    between atoms: O_4  and  C_12
REMARK    6  A    between atoms: N_9  and  C_11
REMARK    7  A    between atoms: N_9  and  C_16
REMARK    8  A    between atoms: N_10  and  C_15
REMARK    9  A    between atoms: C_13  and  C_15
REMARK   10  A    between atoms: C_16  and  C_17
REMARK                            x       y       z     vdW  Elec       q    Type
REMARK                         _______ _______ _______ _____ _____    ______ ____
ROOT
ATOM      3  O   UNL     1     -14.578   0.962  32.833  0.00  0.00    -0.371 OA
ATOM     11  C   UNL     1     -14.272   0.455  30.533  0.00  0.00    +0.111 C 
ATOM     12  C   UNL     1     -14.040   1.940  30.748  0.00  0.00    +0.164 C 
ATOM     13  C   UNL     1     -13.751   1.978  32.242  0.00  0.00    +0.164 C 
ATOM     14  C   UNL     1     -15.041   0.086  31.790  0.00  0.00    +0.181 C 
ENDROOT
BRANCH  12   4
ATOM      4  O   UNL     1     -12.957   2.439  29.988  0.00  0.00    -0.388 OA
ATOM     26  H   UNL     1     -12.225   1.801  30.042  0.00  0.00    +0.210 HD
ENDBRANCH  12   4
BRANCH  11   9
ATOM      9  N   UNL     1     -15.002   0.151  29.313  0.00  0.00    -0.305 NA
ATOM     25  H   UNL     1     -15.282  -0.831  29.329  0.00  0.00    +0.123 HD
BRANCH   9  16
ATOM     16  C   UNL     1     -16.197   0.979  29.196  0.00  0.00    +0.116 C 
BRANCH  16  17
ATOM     17  C   UNL     1     -16.318   1.600  27.830  0.00  0.00    -0.033 A 
ATOM     18  C   UNL     1     -15.981   2.940  27.641  0.00  0.00    +0.007 A 
ATOM     19  C   UNL     1     -16.768   0.835  26.755  0.00  0.00    +0.007 A 
ATOM     21  C   UNL     1     -16.542   2.749  25.298  0.00  0.00    +0.088 A 
ATOM     22  C   UNL     1     -16.092   3.515  26.375  0.00  0.00    +0.027 A 
ATOM     23  C   UNL     1     -16.880   1.410  25.488  0.00  0.00    +0.027 A 
BRANCH  21   2
ATOM      2  S   UNL     1     -16.685   3.470  23.714  0.00  0.00    -0.006 S 
ATOM      7  O   UNL     1     -16.579   2.422  22.708  0.00  0.00    -0.170 OA
ATOM      8  O   UNL     1     -17.847   4.348  23.724  0.00  0.00    -0.170 OA
ATOM     24  C   UNL     1     -15.234   4.486  23.557  0.00  0.00    +0.200 C 
ENDBRANCH  21   2
ENDBRANCH  16  17
ENDBRANCH   9  16
ENDBRANCH  11   9
BRANCH  13  15
ATOM     15  C   UNL     1     -14.054   3.322  32.880  0.00  0.00    +0.139 C 
BRANCH  15  10
ATOM     10  N   UNL     1     -14.117   4.363  31.836  0.00  0.00    -0.192 NA
ATOM     27  H   UNL     1     -13.675   4.080  30.951  0.00  0.00    +0.148 HD
BRANCH  10   1
ATOM      1  S   UNL     1     -15.520   5.325  31.705  0.00  0.00    +0.027 S 
ATOM      5  O   UNL     1     -16.435   5.011  32.786  0.00  0.00    -0.158 OA
ATOM      6  O   UNL     1     -15.965   5.300  30.325  0.00  0.00    -0.158 OA
ATOM     20  C   UNL     1     -14.841   6.938  32.015  0.00  0.00    +0.214 C 
ENDBRANCH  10   1
ENDBRANCH  15  10
ENDBRANCH  13  15
TORSDOF 8
ENDMDL
MODEL 4
REMARK VINA RESULT:      -6.0     26.526     30.358
REMARK  Name = 75536666
REMARK  10 active torsions:
REMARK  status: ('A' for Active; 'I' for Inactive)
REMARK    1  A    between atoms: S_1  and  N_10
REMARK    2  A    between atoms: S_1  and  C_20
REMARK    3  A    between atoms: S_2  and  C_21
REMARK    4  A    between atoms: S_2  and  C_24
REMARK    5  A    between atoms: O_4  and  C_12
REMARK    6  A    between atoms: N_9  and  C_11
REMARK    7  A    between atoms: N_9  and  C_16
REMARK    8  A    between atoms: N_10  and  C_15
REMARK    9  A    between atoms: C_13  and  C_15
REMARK   10  A    between atoms: C_16  and  C_17
REMARK                            x       y       z     vdW  Elec       q    Type
REMARK                         _______ _______ _______ _____ _____    ______ ____
ROOT
ATOM      3  O   UNL     1     -17.005   5.541  24.687  0.00  0.00    -0.371 OA
ATOM     11  C   UNL     1     -16.337   4.846  22.516  0.00  0.00    +0.111 C 
ATOM     12  C   UNL     1     -15.959   3.770  23.519  0.00  0.00    +0.164 C 
ATOM     13  C   UNL     1     -16.889   4.108  24.676  0.00  0.00    +0.164 C 
ATOM     14  C   UNL     1     -16.536   6.047  23.425  0.00  0.00    +0.181 C 
ENDROOT
BRANCH  12   4
ATOM      4  O   UNL     1     -16.182   2.463  23.027  0.00  0.00    -0.388 OA
ATOM     26  H   UNL     1     -16.696   1.971  23.690  0.00  0.00    +0.210 HD
ENDBRANCH  12   4
BRANCH  11   9
ATOM      9  N   UNL     1     -15.328   5.070  21.495  0.00  0.00    -0.305 NA
ATOM     25  H   UNL     1     -15.683   5.746  20.817  0.00  0.00    +0.123 HD
BRANCH   9  16
ATOM     16  C   UNL     1     -14.097   5.592  22.078  0.00  0.00    +0.116 C 
BRANCH  16  17
ATOM     17  C   UNL     1     -13.382   6.525  21.138  0.00  0.00    -0.033 A 
ATOM     18  C   UNL     1     -14.112   7.389  20.323  0.00  0.00    +0.007 A 
ATOM     19  C   UNL     1     -11.988   6.523  21.081  0.00  0.00    +0.007 A 
ATOM     21  C   UNL     1     -12.055   8.253  19.396  0.00  0.00    +0.088 A 
ATOM     22  C   UNL     1     -13.449   8.254  19.452  0.00  0.00    +0.027 A 
ATOM     23  C   UNL     1     -11.324   7.388  20.210  0.00  0.00    +0.027 A 
BRANCH  21   2
ATOM      2  S   UNL     1     -11.225   9.332  18.303  0.00  0.00    -0.006 S 
ATOM      7  O   UNL     1     -12.205  10.194  17.656  0.00  0.00    -0.170 OA
ATOM      8  O   UNL     1     -10.105   9.924  19.021  0.00  0.00    -0.170 OA
ATOM     24  C   UNL     1     -10.564   8.265  17.044  0.00  0.00    +0.200 C 
ENDBRANCH  21   2
ENDBRANCH  16  17
ENDBRANCH   9  16
ENDBRANCH  11   9
BRANCH  13  15
ATOM     15  C   UNL     1     -16.377   3.624  26.020  0.00  0.00    +0.139 C 
BRANCH  15  10
ATOM     10  N   UNL     1     -17.354   2.695  26.618  0.00  0.00    -0.192 NA
ATOM     27  H   UNL     1     -18.332   2.956  26.432  0.00  0.00    +0.148 HD
BRANCH  10   1
ATOM      1  S   UNL     1     -17.010   1.023  26.633  0.00  0.00    +0.027 S 
ATOM      5  O   UNL     1     -16.406   0.656  27.899  0.00  0.00    -0.158 OA
ATOM      6  O   UNL     1     -16.374   0.675  25.377  0.00  0.00    -0.158 OA
ATOM     20  C   UNL     1     -18.656   0.351  26.598  0.00  0.00    +0.214 C 
ENDBRANCH  10   1
ENDBRANCH  15  10
ENDBRANCH  13  15
TORSDOF 8
ENDMDL
MODEL 5
REMARK VINA RESULT:      -6.0     25.979     28.390
REMARK  Name = 75536666
REMARK  10 active torsions:
REMARK  status: ('A' for Active; 'I' for Inactive)
REMARK    1  A    between atoms: S_1  and  N_10
REMARK    2  A    between atoms: S_1  and  C_20
REMARK    3  A    between atoms: S_2  and  C_21
REMARK    4  A    between atoms: S_2  and  C_24
REMARK    5  A    between atoms: O_4  and  C_12
REMARK    6  A    between atoms: N_9  and  C_11
REMARK    7  A    between atoms: N_9  and  C_16
REMARK    8  A    between atoms: N_10  and  C_15
REMARK    9  A    between atoms: C_13  and  C_15
REMARK   10  A    between atoms: C_16  and  C_17
REMARK                            x       y       z     vdW  Elec       q    Type
REMARK                         _______ _______ _______ _____ _____    ______ ____
ROOT
ATOM      3  O   UNL     1     -10.690  10.758  15.990  0.00  0.00    -0.371 OA
ATOM     11  C   UNL     1      -9.809   9.511  17.809  0.00  0.00    +0.111 C 
ATOM     12  C   UNL     1     -10.657   8.595  16.945  0.00  0.00    +0.164 C 
ATOM     13  C   UNL     1     -10.678   9.366  15.632  0.00  0.00    +0.164 C 
ATOM     14  C   UNL     1     -10.302  10.880  17.369  0.00  0.00    +0.181 C 
ENDROOT
BRANCH  12   4
ATOM      4  O   UNL     1     -10.091   7.308  16.792  0.00  0.00    -0.388 OA
ATOM     26  H   UNL     1      -9.592   7.291  15.957  0.00  0.00    +0.210 HD
ENDBRANCH  12   4
BRANCH  11   9
ATOM      9  N   UNL     1      -9.971   9.282  19.235  0.00  0.00    -0.305 NA
ATOM     25  H   UNL     1      -9.234   9.777  19.738  0.00  0.00    +0.123 HD
BRANCH   9  16
ATOM     16  C   UNL     1     -11.266   9.768  19.700  0.00  0.00    +0.116 C 
BRANCH  16  17
ATOM     17  C   UNL     1     -12.050   8.691  20.401  0.00  0.00    -0.033 A 
ATOM     18  C   UNL     1     -11.575   7.381  20.418  0.00  0.00    +0.007 A 
ATOM     19  C   UNL     1     -13.253   9.005  21.032  0.00  0.00    +0.007 A 
ATOM     21  C   UNL     1     -13.505   6.697  21.700  0.00  0.00    +0.088 A 
ATOM     22  C   UNL     1     -12.302   6.383  21.067  0.00  0.00    +0.027 A 
ATOM     23  C   UNL     1     -13.981   8.007  21.682  0.00  0.00    +0.027 A 
BRANCH  21   2
ATOM      2  S   UNL     1     -14.417   5.448  22.510  0.00  0.00    -0.006 S 
ATOM      7  O   UNL     1     -15.022   4.581  21.507  0.00  0.00    -0.170 OA
ATOM      8  O   UNL     1     -13.570   4.874  23.545  0.00  0.00    -0.170 OA
ATOM     24  C   UNL     1     -15.746   6.318  23.309  0.00  0.00    +0.200 C 
ENDBRANCH  21   2
ENDBRANCH  16  17
ENDBRANCH   9  16
ENDBRANCH  11   9
BRANCH  13  15
ATOM     15  C   UNL     1     -11.885   9.048  14.767  0.00  0.00    +0.139 C 
BRANCH  15  10
ATOM     10  N   UNL     1     -12.747   8.071  15.459  0.00  0.00    -0.192 NA
ATOM     27  H   UNL     1     -12.245   7.505  16.156  0.00  0.00    +0.148 HD
BRANCH  10   1
ATOM      1  S   UNL     1     -14.348   8.509  15.856  0.00  0.00    +0.027 S 
ATOM      5  O   UNL     1     -15.280   7.604  15.212  0.00  0.00    -0.158 OA
ATOM      6  O   UNL     1     -14.481   9.945  15.703  0.00  0.00    -0.158 OA
ATOM     20  C   UNL     1     -14.359   8.158  17.599  0.00  0.00    +0.214 C 
ENDBRANCH  10   1
ENDBRANCH  15  10
ENDBRANCH  13  15
TORSDOF 8
ENDMDL
MODEL 6
REMARK VINA RESULT:      -5.9      1.730      2.230
REMARK  Name = 75536666
REMARK  10 active torsions:
REMARK  status: ('A' for Active; 'I' for Inactive)
REMARK    1  A    between atoms: S_1  and  N_10
REMARK    2  A    between atoms: S_1  and  C_20
REMARK    3  A    between atoms: S_2  and  C_21
REMARK    4  A    between atoms: S_2  and  C_24
REMARK    5  A    between atoms: O_4  and  C_12
REMARK    6  A    between atoms: N_9  and  C_11
REMARK    7  A    between atoms: N_9  and  C_16
REMARK    8  A    between atoms: N_10  and  C_15
REMARK    9  A    between atoms: C_13  and  C_15
REMARK   10  A    between atoms: C_16  and  C_17
REMARK                            x       y       z     vdW  Elec       q    Type
REMARK                         _______ _______ _______ _____ _____    ______ ____
ROOT
ATOM      3  O   UNL     1      12.082  10.491  20.812  0.00  0.00    -0.371 OA
ATOM     11  C   UNL     1      13.680   8.763  20.493  0.00  0.00    +0.111 C 
ATOM     12  C   UNL     1      12.858   8.456  21.732  0.00  0.00    +0.164 C 
ATOM     13  C   UNL     1      11.621   9.307  21.482  0.00  0.00    +0.164 C 
ATOM     14  C   UNL     1      13.409  10.247  20.314  0.00  0.00    +0.181 C 
ENDROOT
BRANCH  12   4
ATOM      4  O   UNL     1      12.540   7.083  21.851  0.00  0.00    -0.388 OA
ATOM     26  H   UNL     1      11.994   6.963  22.647  0.00  0.00    +0.210 HD
ENDBRANCH  12   4
BRANCH  11   9
ATOM      9  N   UNL     1      15.093   8.459  20.641  0.00  0.00    -0.305 NA
ATOM     25  H   UNL     1      15.270   8.153  21.599  0.00  0.00    +0.123 HD
BRANCH   9  16
ATOM     16  C   UNL     1      15.501   7.399  19.726  0.00  0.00    +0.116 C 
BRANCH  16  17
ATOM     17  C   UNL     1      16.886   6.896  20.031  0.00  0.00    -0.033 A 
ATOM     18  C   UNL     1      17.611   7.447  21.087  0.00  0.00    +0.007 A 
ATOM     19  C   UNL     1      17.444   5.879  19.257  0.00  0.00    +0.007 A 
ATOM     21  C   UNL     1      19.453   5.962  20.597  0.00  0.00    +0.088 A 
ATOM     22  C   UNL     1      18.895   6.980  21.371  0.00  0.00    +0.027 A 
ATOM     23  C   UNL     1      18.729   5.411  19.541  0.00  0.00    +0.027 A 
BRANCH  21   2
ATOM      2  S   UNL     1      21.061   5.380  20.949  0.00  0.00    -0.006 S 
ATOM      7  O   UNL     1      21.080   3.931  20.805  0.00  0.00    -0.170 OA
ATOM      8  O   UNL     1      22.007   6.193  20.198  0.00  0.00    -0.170 OA
ATOM     24  C   UNL     1      21.291   5.731  22.677  0.00  0.00    +0.200 C 
ENDBRANCH  21   2
ENDBRANCH  16  17
ENDBRANCH   9  16
ENDBRANCH  11   9
BRANCH  13  15
ATOM     15  C   UNL     1      10.887   9.690  22.755  0.00  0.00    +0.139 C 
BRANCH  15  10
ATOM     10  N   UNL     1      10.764  11.158  22.833  0.00  0.00    -0.192 NA
ATOM     27  H   UNL     1      10.013  11.537  22.240  0.00  0.00    +0.148 HD
BRANCH  10   1
ATOM      1  S   UNL     1      10.999  11.933  24.336  0.00  0.00    +0.027 S 
ATOM      5  O   UNL     1      11.261  10.945  25.364  0.00  0.00    -0.158 OA
ATOM      6  O   UNL     1       9.956  12.926  24.508  0.00  0.00    -0.158 OA
ATOM     20  C   UNL     1      12.515  12.806  24.018  0.00  0.00    +0.214 C 
ENDBRANCH  10   1
ENDBRANCH  15  10
ENDBRANCH  13  15
TORSDOF 8
ENDMDL
MODEL 7
REMARK VINA RESULT:      -5.9      3.453      9.400
REMARK  Name = 75536666
REMARK  10 active torsions:
REMARK  status: ('A' for Active; 'I' for Inactive)
REMARK    1  A    between atoms: S_1  and  N_10
REMARK    2  A    between atoms: S_1  and  C_20
REMARK    3  A    between atoms: S_2  and  C_21
REMARK    4  A    between atoms: S_2  and  C_24
REMARK    5  A    between atoms: O_4  and  C_12
REMARK    6  A    between atoms: N_9  and  C_11
REMARK    7  A    between atoms: N_9  and  C_16
REMARK    8  A    between atoms: N_10  and  C_15
REMARK    9  A    between atoms: C_13  and  C_15
REMARK   10  A    between atoms: C_16  and  C_17
REMARK                            x       y       z     vdW  Elec       q    Type
REMARK                         _______ _______ _______ _____ _____    ______ ____
ROOT
ATOM      3  O   UNL     1      20.754   6.018  23.204  0.00  0.00    -0.371 OA
ATOM     11  C   UNL     1      19.431   5.995  21.232  0.00  0.00    +0.111 C 
ATOM     12  C   UNL     1      20.881   5.748  20.858  0.00  0.00    +0.164 C 
ATOM     13  C   UNL     1      21.451   5.277  22.189  0.00  0.00    +0.164 C 
ATOM     14  C   UNL     1      19.577   6.600  22.618  0.00  0.00    +0.181 C 
ENDROOT
BRANCH  12   4
ATOM      4  O   UNL     1      21.026   4.770  19.847  0.00  0.00    -0.388 OA
ATOM     26  H   UNL     1      20.675   3.927  20.184  0.00  0.00    +0.210 HD
ENDBRANCH  12   4
BRANCH  11   9
ATOM      9  N   UNL     1      18.731   6.868  20.304  0.00  0.00    -0.305 NA
ATOM     25  H   UNL     1      19.411   7.312  19.686  0.00  0.00    +0.123 HD
BRANCH   9  16
ATOM     16  C   UNL     1      17.779   6.116  19.493  0.00  0.00    +0.116 C 
BRANCH  16  17
ATOM     17  C   UNL     1      16.356   6.508  19.790  0.00  0.00    -0.033 A 
ATOM     18  C   UNL     1      15.485   6.817  18.746  0.00  0.00    +0.007 A 
ATOM     19  C   UNL     1      15.911   6.564  21.110  0.00  0.00    +0.007 A 
ATOM     21  C   UNL     1      13.720   7.235  20.343  0.00  0.00    +0.088 A 
ATOM     22  C   UNL     1      14.167   7.180  19.021  0.00  0.00    +0.027 A 
ATOM     23  C   UNL     1      14.592   6.927  21.387  0.00  0.00    +0.027 A 
BRANCH  21   2
ATOM      2  S   UNL     1      12.071   7.693  20.689  0.00  0.00    -0.006 S 
ATOM      7  O   UNL     1      12.077   8.763  21.677  0.00  0.00    -0.170 OA
ATOM      8  O   UNL     1      11.384   7.885  19.420  0.00  0.00    -0.170 OA
ATOM     24  C   UNL     1      11.371   6.263  21.479  0.00  0.00    +0.200 C 
ENDBRANCH  21   2
ENDBRANCH  16  17
ENDBRANCH   9  16
ENDBRANCH  11   9
BRANCH  13  15
ATOM     15  C   UNL     1      22.945   5.508  22.319  0.00  0.00    +0.139 C 
BRANCH  15  10
ATOM     10  N   UNL     1      23.644   4.211  22.391  0.00  0.00    -0.192 NA
ATOM     27  H   UNL     1      23.144   3.509  22.953  0.00  0.00    +0.148 HD
BRANCH  10   1
ATOM      1  S   UNL     1      24.459   3.628  21.010  0.00  0.00    +0.027 S 
ATOM      5  O   UNL     1      25.873   3.484  21.297  0.00  0.00    -0.158 OA
ATOM      6  O   UNL     1      24.009   4.386  19.858  0.00  0.00    -0.158 OA
ATOM     20  C   UNL     1      23.759   1.999  20.880  0.00  0.00    +0.214 C 
ENDBRANCH  10   1
ENDBRANCH  15  10
ENDBRANCH  13  15
TORSDOF 8
ENDMDL
MODEL 8
REMARK VINA RESULT:      -5.7     26.682     28.551
REMARK  Name = 75536666
REMARK  10 active torsions:
REMARK  status: ('A' for Active; 'I' for Inactive)
REMARK    1  A    between atoms: S_1  and  N_10
REMARK    2  A    between atoms: S_1  and  C_20
REMARK    3  A    between atoms: S_2  and  C_21
REMARK    4  A    between atoms: S_2  and  C_24
REMARK    5  A    between atoms: O_4  and  C_12
REMARK    6  A    between atoms: N_9  and  C_11
REMARK    7  A    between atoms: N_9  and  C_16
REMARK    8  A    between atoms: N_10  and  C_15
REMARK    9  A    between atoms: C_13  and  C_15
REMARK   10  A    between atoms: C_16  and  C_17
REMARK                            x       y       z     vdW  Elec       q    Type
REMARK                         _______ _______ _______ _____ _____    ______ ____
ROOT
ATOM      3  O   UNL     1      -7.691 -13.016  18.133  0.00  0.00    -0.371 OA
ATOM     11  C   UNL     1      -5.441 -12.543  18.729  0.00  0.00    +0.111 C 
ATOM     12  C   UNL     1      -6.352 -11.519  19.381  0.00  0.00    +0.164 C 
ATOM     13  C   UNL     1      -7.686 -12.251  19.350  0.00  0.00    +0.164 C 
ATOM     14  C   UNL     1      -6.343 -13.096  17.638  0.00  0.00    +0.181 C 
ENDROOT
BRANCH  12   4
ATOM      4  O   UNL     1      -5.957 -11.199  20.701  0.00  0.00    -0.388 OA
ATOM     26  H   UNL     1      -5.703 -10.260  20.725  0.00  0.00    +0.210 HD
ENDBRANCH  12   4
BRANCH  11   9
ATOM      9  N   UNL     1      -4.206 -11.979  18.210  0.00  0.00    -0.305 NA
ATOM     25  H   UNL     1      -3.814 -12.616  17.516  0.00  0.00    +0.123 HD
BRANCH   9  16
ATOM     16  C   UNL     1      -4.445 -10.685  17.579  0.00  0.00    +0.116 C 
BRANCH  16  17
ATOM     17  C   UNL     1      -4.023 -10.680  16.134  0.00  0.00    -0.033 A 
ATOM     18  C   UNL     1      -2.668 -10.676  15.803  0.00  0.00    +0.007 A 
ATOM     19  C   UNL     1      -4.987 -10.677  15.127  0.00  0.00    +0.007 A 
ATOM     21  C   UNL     1      -3.241 -10.669  13.456  0.00  0.00    +0.088 A 
ATOM     22  C   UNL     1      -2.276 -10.671  14.465  0.00  0.00    +0.027 A 
ATOM     23  C   UNL     1      -4.596 -10.672  13.787  0.00  0.00    +0.027 A 
BRANCH  21   2
ATOM      2  S   UNL     1      -2.752 -10.659  11.780  0.00  0.00    -0.006 S 
ATOM      7  O   UNL     1      -1.457 -10.000  11.671  0.00  0.00    -0.170 OA
ATOM      8  O   UNL     1      -2.925 -12.006  11.254  0.00  0.00    -0.170 OA
ATOM     24  C   UNL     1      -3.938  -9.604  10.979  0.00  0.00    +0.200 C 
ENDBRANCH  21   2
ENDBRANCH  16  17
ENDBRANCH   9  16
ENDBRANCH  11   9
BRANCH  13  15
ATOM     15  C   UNL     1      -8.884 -11.319  19.375  0.00  0.00    +0.139 C 
BRANCH  15  10
ATOM     10  N   UNL     1      -8.480  -9.979  18.907  0.00  0.00    -0.192 NA
ATOM     27  H   UNL     1      -7.603  -9.646  19.331  0.00  0.00    +0.148 HD
BRANCH  10   1
ATOM      1  S   UNL     1      -8.734  -9.557  17.273  0.00  0.00    +0.027 S 
ATOM      5  O   UNL     1      -9.516 -10.585  16.615  0.00  0.00    -0.158 OA
ATOM      6  O   UNL     1      -7.472  -9.110  16.714  0.00  0.00    -0.158 OA
ATOM     20  C   UNL     1      -9.768  -8.123  17.464  0.00  0.00    +0.214 C 
ENDBRANCH  10   1
ENDBRANCH  15  10
ENDBRANCH  13  15
TORSDOF 8
ENDMDL
MODEL 9
REMARK VINA RESULT:      -5.7      2.026      2.602
REMARK  Name = 75536666
REMARK  10 active torsions:
REMARK  status: ('A' for Active; 'I' for Inactive)
REMARK    1  A    between atoms: S_1  and  N_10
REMARK    2  A    between atoms: S_1  and  C_20
REMARK    3  A    between atoms: S_2  and  C_21
REMARK    4  A    between atoms: S_2  and  C_24
REMARK    5  A    between atoms: O_4  and  C_12
REMARK    6  A    between atoms: N_9  and  C_11
REMARK    7  A    between atoms: N_9  and  C_16
REMARK    8  A    between atoms: N_10  and  C_15
REMARK    9  A    between atoms: C_13  and  C_15
REMARK   10  A    between atoms: C_16  and  C_17
REMARK                            x       y       z     vdW  Elec       q    Type
REMARK                         _______ _______ _______ _____ _____    ______ ____
ROOT
ATOM      3  O   UNL     1      13.680   7.549  18.326  0.00  0.00    -0.371 OA
ATOM     11  C   UNL     1      14.924   6.575  20.100  0.00  0.00    +0.111 C 
ATOM     12  C   UNL     1      13.845   7.470  20.684  0.00  0.00    +0.164 C 
ATOM     13  C   UNL     1      12.873   7.559  19.515  0.00  0.00    +0.164 C 
ATOM     14  C   UNL     1      14.998   7.087  18.671  0.00  0.00    +0.181 C 
ENDROOT
BRANCH  12   4
ATOM      4  O   UNL     1      13.238   6.915  21.834  0.00  0.00    -0.388 OA
ATOM     26  H   UNL     1      13.087   5.968  21.673  0.00  0.00    +0.210 HD
ENDBRANCH  12   4
BRANCH  11   9
ATOM      9  N   UNL     1      16.195   6.662  20.799  0.00  0.00    -0.305 NA
ATOM     25  H   UNL     1      16.290   5.858  21.420  0.00  0.00    +0.123 HD
BRANCH   9  16
ATOM     16  C   UNL     1      17.311   6.666  19.860  0.00  0.00    +0.116 C 
BRANCH  16  17
ATOM     17  C   UNL     1      18.589   6.202  20.506  0.00  0.00    -0.033 A 
ATOM     18  C   UNL     1      19.351   5.200  19.905  0.00  0.00    +0.007 A 
ATOM     19  C   UNL     1      19.010   6.773  21.706  0.00  0.00    +0.007 A 
ATOM     21  C   UNL     1      20.957   5.342  21.704  0.00  0.00    +0.088 A 
ATOM     22  C   UNL     1      20.535   4.770  20.503  0.00  0.00    +0.027 A 
ATOM     23  C   UNL     1      20.195   6.343  22.306  0.00  0.00    +0.027 A 
BRANCH  21   2
ATOM      2  S   UNL     1      22.437   4.801  22.456  0.00  0.00    -0.006 S 
ATOM      7  O   UNL     1      23.430   5.863  22.361  0.00  0.00    -0.170 OA
ATOM      8  O   UNL     1      22.101   4.241  23.757  0.00  0.00    -0.170 OA
ATOM     24  C   UNL     1      23.001   3.473  21.418  0.00  0.00    +0.200 C 
ENDBRANCH  21   2
ENDBRANCH  16  17
ENDBRANCH   9  16
ENDBRANCH  11   9
BRANCH  13  15
ATOM     15  C   UNL     1      12.014   8.810  19.542  0.00  0.00    +0.139 C 
BRANCH  15  10
ATOM     10  N   UNL     1      12.674   9.849  20.355  0.00  0.00    -0.192 NA
ATOM     27  H   UNL     1      13.111  10.591  19.793  0.00  0.00    +0.148 HD
BRANCH  10   1
ATOM      1  S   UNL     1      11.953  10.340  21.821  0.00  0.00    +0.027 S 
ATOM      5  O   UNL     1      11.243   9.226  22.419  0.00  0.00    -0.158 OA
ATOM      6  O   UNL     1      11.289  11.611  21.602  0.00  0.00    -0.158 OA
ATOM     20  C   UNL     1      13.398  10.660  22.806  0.00  0.00    +0.214 C 
ENDBRANCH  10   1
ENDBRANCH  15  10
ENDBRANCH  13  15
TORSDOF 8
ENDMDL
MODEL 10
REMARK VINA RESULT:      -5.7      3.283      9.365
REMARK  Name = 75536666
REMARK  10 active torsions:
REMARK  status: ('A' for Active; 'I' for Inactive)
REMARK    1  A    between atoms: S_1  and  N_10
REMARK    2  A    between atoms: S_1  and  C_20
REMARK    3  A    between atoms: S_2  and  C_21
REMARK    4  A    between atoms: S_2  and  C_24
REMARK    5  A    between atoms: O_4  and  C_12
REMARK    6  A    between atoms: N_9  and  C_11
REMARK    7  A    between atoms: N_9  and  C_16
REMARK    8  A    between atoms: N_10  and  C_15
REMARK    9  A    between atoms: C_13  and  C_15
REMARK   10  A    between atoms: C_16  and  C_17
REMARK                            x       y       z     vdW  Elec       q    Type
REMARK                         _______ _______ _______ _____ _____    ______ ____
ROOT
ATOM      3  O   UNL     1      21.836   8.162  21.529  0.00  0.00    -0.371 OA
ATOM     11  C   UNL     1      20.009   6.937  22.424  0.00  0.00    +0.111 C 
ATOM     12  C   UNL     1      20.961   5.975  21.737  0.00  0.00    +0.164 C 
ATOM     13  C   UNL     1      22.243   6.796  21.715  0.00  0.00    +0.164 C 
ATOM     14  C   UNL     1      20.431   8.264  21.814  0.00  0.00    +0.181 C 
ENDROOT
BRANCH  12   4
ATOM      4  O   UNL     1      21.122   4.764  22.449  0.00  0.00    -0.388 OA
ATOM     26  H   UNL     1      20.921   4.931  23.386  0.00  0.00    +0.210 HD
ENDBRANCH  12   4
BRANCH  11   9
ATOM      9  N   UNL     1      18.607   6.631  22.198  0.00  0.00    -0.305 NA
ATOM     25  H   UNL     1      18.039   7.426  22.495  0.00  0.00    +0.123 HD
BRANCH   9  16
ATOM     16  C   UNL     1      18.347   6.369  20.787  0.00  0.00    +0.116 C 
BRANCH  16  17
ATOM     17  C   UNL     1      16.900   6.583  20.433  0.00  0.00    -0.033 A 
ATOM     18  C   UNL     1      15.973   6.876  21.433  0.00  0.00    +0.007 A 
ATOM     19  C   UNL     1      16.486   6.486  19.105  0.00  0.00    +0.007 A 
ATOM     21  C   UNL     1      14.218   6.979  19.776  0.00  0.00    +0.088 A 
ATOM     22  C   UNL     1      14.632   7.075  21.105  0.00  0.00    +0.027 A 
ATOM     23  C   UNL     1      15.144   6.685  18.776  0.00  0.00    +0.027 A 
BRANCH  21   2
ATOM      2  S   UNL     1      12.538   7.223  19.366  0.00  0.00    -0.006 S 
ATOM      7  O   UNL     1      12.383   7.101  17.922  0.00  0.00    -0.170 OA
ATOM      8  O   UNL     1      11.735   6.394  20.252  0.00  0.00    -0.170 OA
ATOM     24  C   UNL     1      12.226   8.925  19.776  0.00  0.00    +0.200 C 
ENDBRANCH  21   2
ENDBRANCH  16  17
ENDBRANCH   9  16
ENDBRANCH  11   9
BRANCH  13  15
ATOM     15  C   UNL     1      23.198   6.390  20.607  0.00  0.00    +0.139 C 
BRANCH  15  10
ATOM     10  N   UNL     1      22.969   4.977  20.248  0.00  0.00    -0.192 NA
ATOM     27  H   UNL     1      22.579   4.854  19.304  0.00  0.00    +0.148 HD
BRANCH  10   1
ATOM      1  S   UNL     1      24.091   3.797  20.760  0.00  0.00    +0.027 S 
ATOM      5  O   UNL     1      24.643   3.110  19.608  0.00  0.00    -0.158 OA
ATOM      6  O   UNL     1      23.503   3.052  21.858  0.00  0.00    -0.158 OA
ATOM     20  C   UNL     1      25.365   4.832  21.443  0.00  0.00    +0.214 C 
ENDBRANCH  10   1
ENDBRANCH  15  10
ENDBRANCH  13  15
TORSDOF 8
ENDMDL
