MODEL 1
REMARK VINA RESULT:      -7.9      0.000      0.000
REMARK  Name = 40777117
REMARK  8 active torsions:
REMARK  status: ('A' for Active; 'I' for Inactive)
REMARK    1  A    between atoms: O_3  and  C_33
REMARK    2  A    between atoms: O_3  and  C_34
REMARK    3  A    between atoms: N_5  and  C_15
REMARK    4  A    between atoms: C_9  and  C_16
REMARK    5  A    between atoms: C_10  and  C_15
REMARK    6  A    between atoms: C_18  and  C_21
REMARK    7  A    between atoms: C_19  and  C_22
REMARK    8  A    between atoms: C_20  and  C_23
REMARK                            x       y       z     vdW  Elec       q    Type
REMARK                         _______ _______ _______ _____ _____    ______ ____
ROOT
ATOM      4  N   UNL     1      11.748  11.939  25.235  0.00  0.00    -0.297 NA
ATOM      8  C   UNL     1      11.211  12.531  22.756  0.00  0.00    +0.002 C 
ATOM      9  C   UNL     1      10.804  11.063  23.065  0.00  0.00    +0.055 C 
ATOM     10  C   UNL     1      12.937  12.555  24.590  0.00  0.00    +0.074 C 
ATOM     11  C   UNL     1      12.709  12.722  23.072  0.00  0.00    +0.024 C 
ATOM     12  C   UNL     1      10.422  13.427  23.734  0.00  0.00    +0.019 C 
ATOM     13  C   UNL     1      11.336  10.725  24.488  0.00  0.00    +0.094 C 
ATOM     14  C   UNL     1      10.638  12.920  25.171  0.00  0.00    +0.085 C 
ENDROOT
BRANCH   9  16
ATOM      6  N   UNL     1      10.796   8.725  22.348  0.00  0.00    -0.237 NA
ATOM      7  N   UNL     1      11.769   8.019  20.259  0.00  0.00    -0.232 NA
ATOM     16  C   UNL     1      11.158   9.989  22.046  0.00  0.00    +0.050 A 
ATOM     17  C   UNL     1      11.818  10.342  20.887  0.00  0.00    +0.052 A 
ATOM     18  C   UNL     1      12.101   9.305  20.022  0.00  0.00    +0.076 A 
ATOM     19  C   UNL     1      11.128   7.803  21.422  0.00  0.00    +0.127 A 
ATOM     22  C   UNL     1      10.746   6.393  21.721  0.00  0.00    +0.088 C 
BRANCH  18  21
ATOM      1 BR   UNL     1      13.261  12.263  19.646  0.00  0.00    -0.050 Br
ATOM     21  C   UNL     1      12.790   9.541  18.775  0.00  0.00    +0.014 A 
ATOM     24  C   UNL     1      13.352  10.779  18.462  0.00  0.00    +0.027 A 
ATOM     25  C   UNL     1      12.885   8.483  17.871  0.00  0.00    +0.011 A 
ATOM     28  C   UNL     1      14.009  10.958  17.245  0.00  0.00    +0.016 A 
ATOM     29  C   UNL     1      13.541   8.664  16.653  0.00  0.00    +0.001 A 
ATOM     32  C   UNL     1      14.103   9.900  16.341  0.00  0.00    +0.001 A 
ENDBRANCH  18  21
ENDBRANCH   9  16
BRANCH  10  15
ATOM     15  C   UNL     1      14.227  11.790  24.891  0.00  0.00    +0.123 C 
BRANCH  15   5
ATOM      2  O   UNL     1      16.047  11.738  22.672  0.00  0.00    -0.270 OA
ATOM      5  N   UNL     1      14.413  10.716  23.965  0.00  0.00    -0.310 N 
ATOM     20  C   UNL     1      15.322  10.775  22.911  0.00  0.00    +0.244 C 
ATOM     35  H   UNL     1      13.801   9.914  24.068  0.00  0.00    +0.149 HD
BRANCH  20  23
ATOM     23  C   UNL     1      15.378   9.587  22.021  0.00  0.00    +0.037 A 
ATOM     26  C   UNL     1      14.754   8.398  22.404  0.00  0.00    +0.016 A 
ATOM     27  C   UNL     1      16.052   9.658  20.802  0.00  0.00    +0.016 A 
ATOM     30  C   UNL     1      14.806   7.282  21.569  0.00  0.00    +0.046 A 
ATOM     31  C   UNL     1      16.105   8.542  19.967  0.00  0.00    +0.046 A 
ATOM     33  C   UNL     1      15.481   7.355  20.351  0.00  0.00    +0.120 A 
BRANCH  33   3
ATOM      3  O   UNL     1      15.532   6.266  19.535  0.00  0.00    -0.495 OA
ATOM     34  C   UNL     1      16.799   5.943  18.961  0.00  0.00    +0.277 C 
ENDBRANCH  33   3
ENDBRANCH  20  23
ENDBRANCH  15   5
ENDBRANCH  10  15
TORSDOF 6
ENDMDL
MODEL 2
REMARK VINA RESULT:      -7.5     26.025     29.659
REMARK  Name = 40777117
REMARK  8 active torsions:
REMARK  status: ('A' for Active; 'I' for Inactive)
REMARK    1  A    between atoms: O_3  and  C_33
REMARK    2  A    between atoms: O_3  and  C_34
REMARK    3  A    between atoms: N_5  and  C_15
REMARK    4  A    between atoms: C_9  and  C_16
REMARK    5  A    between atoms: C_10  and  C_15
REMARK    6  A    between atoms: C_18  and  C_21
REMARK    7  A    between atoms: C_19  and  C_22
REMARK    8  A    between atoms: C_20  and  C_23
REMARK                            x       y       z     vdW  Elec       q    Type
REMARK                         _______ _______ _______ _____ _____    ______ ____
ROOT
ATOM      4  N   UNL     1      -5.773 -10.600   9.688  0.00  0.00    -0.297 NA
ATOM      8  C   UNL     1      -3.837  -9.207  10.734  0.00  0.00    +0.002 C 
ATOM      9  C   UNL     1      -3.604 -10.725  10.972  0.00  0.00    +0.055 C 
ATOM     10  C   UNL     1      -6.329  -9.508  10.529  0.00  0.00    +0.074 C 
ATOM     11  C   UNL     1      -5.206  -8.803  11.320  0.00  0.00    +0.024 C 
ATOM     12  C   UNL     1      -3.918  -9.003   9.206  0.00  0.00    +0.019 C 
ATOM     13  C   UNL     1      -4.888 -11.469  10.503  0.00  0.00    +0.094 C 
ATOM     14  C   UNL     1      -4.954  -9.979   8.620  0.00  0.00    +0.085 C 
ENDROOT
BRANCH   9  16
ATOM      6  N   UNL     1      -2.372 -10.315  13.044  0.00  0.00    -0.237 NA
ATOM      7  N   UNL     1      -2.296 -11.928  14.834  0.00  0.00    -0.232 NA
ATOM     16  C   UNL     1      -3.148 -11.175  12.352  0.00  0.00    +0.050 A 
ATOM     17  C   UNL     1      -3.536 -12.411  12.828  0.00  0.00    +0.052 A 
ATOM     18  C   UNL     1      -3.075 -12.738  14.087  0.00  0.00    +0.076 A 
ATOM     19  C   UNL     1      -1.987 -10.750  14.260  0.00  0.00    +0.127 A 
ATOM     22  C   UNL     1      -1.126  -9.828  15.054  0.00  0.00    +0.088 C 
BRANCH  18  21
ATOM      1 BR   UNL     1      -1.107 -15.156  13.370  0.00  0.00    -0.050 Br
ATOM     21  C   UNL     1      -3.408 -14.003  14.698  0.00  0.00    +0.014 A 
ATOM     24  C   UNL     1      -2.647 -15.152  14.484  0.00  0.00    +0.027 A 
ATOM     25  C   UNL     1      -4.530 -14.053  15.525  0.00  0.00    +0.011 A 
ATOM     28  C   UNL     1      -3.008 -16.351  15.097  0.00  0.00    +0.016 A 
ATOM     29  C   UNL     1      -4.891 -15.254  16.138  0.00  0.00    +0.001 A 
ATOM     32  C   UNL     1      -4.129 -16.402  15.925  0.00  0.00    +0.001 A 
ENDBRANCH  18  21
ENDBRANCH   9  16
BRANCH  10  15
ATOM     15  C   UNL     1      -7.453  -9.992  11.446  0.00  0.00    +0.123 C 
BRANCH  15   5
ATOM      2  O   UNL     1      -7.239 -12.289  13.156  0.00  0.00    -0.270 OA
ATOM      5  N   UNL     1      -7.030 -10.003  12.813  0.00  0.00    -0.310 N 
ATOM     20  C   UNL     1      -6.955 -11.168  13.573  0.00  0.00    +0.244 C 
ATOM     35  H   UNL     1      -6.840  -9.102  13.238  0.00  0.00    +0.149 HD
BRANCH  20  23
ATOM     23  C   UNL     1      -6.522 -11.007  14.985  0.00  0.00    +0.037 A 
ATOM     26  C   UNL     1      -7.198 -11.681  16.003  0.00  0.00    +0.016 A 
ATOM     27  C   UNL     1      -5.439 -10.184  15.293  0.00  0.00    +0.016 A 
ATOM     30  C   UNL     1      -6.793 -11.531  17.328  0.00  0.00    +0.046 A 
ATOM     31  C   UNL     1      -5.033 -10.033  16.620  0.00  0.00    +0.046 A 
ATOM     33  C   UNL     1      -5.710 -10.706  17.637  0.00  0.00    +0.120 A 
BRANCH  33   3
ATOM      3  O   UNL     1      -5.314 -10.559  18.930  0.00  0.00    -0.495 OA
ATOM     34  C   UNL     1      -6.063 -11.259  19.923  0.00  0.00    +0.277 C 
ENDBRANCH  33   3
ENDBRANCH  20  23
ENDBRANCH  15   5
ENDBRANCH  10  15
TORSDOF 6
ENDMDL
MODEL 3
REMARK VINA RESULT:      -7.4      2.032      3.390
REMARK  Name = 40777117
REMARK  8 active torsions:
REMARK  status: ('A' for Active; 'I' for Inactive)
REMARK    1  A    between atoms: O_3  and  C_33
REMARK    2  A    between atoms: O_3  and  C_34
REMARK    3  A    between atoms: N_5  and  C_15
REMARK    4  A    between atoms: C_9  and  C_16
REMARK    5  A    between atoms: C_10  and  C_15
REMARK    6  A    between atoms: C_18  and  C_21
REMARK    7  A    between atoms: C_19  and  C_22
REMARK    8  A    between atoms: C_20  and  C_23
REMARK                            x       y       z     vdW  Elec       q    Type
REMARK                         _______ _______ _______ _____ _____    ______ ____
ROOT
ATOM      4  N   UNL     1      10.536  12.581  22.814  0.00  0.00    -0.297 NA
ATOM      8  C   UNL     1      12.961  13.377  23.329  0.00  0.00    +0.002 C 
ATOM      9  C   UNL     1      12.750  13.235  21.796  0.00  0.00    +0.055 C 
ATOM     10  C   UNL     1      11.151  11.704  23.845  0.00  0.00    +0.074 C 
ATOM     11  C   UNL     1      12.650  12.029  24.013  0.00  0.00    +0.024 C 
ATOM     12  C   UNL     1      11.915  14.394  23.831  0.00  0.00    +0.019 C 
ATOM     13  C   UNL     1      11.361  12.569  21.580  0.00  0.00    +0.094 C 
ATOM     14  C   UNL     1      10.519  13.964  23.345  0.00  0.00    +0.085 C 
ENDROOT
BRANCH   9  16
ATOM      6  N   UNL     1      15.109  12.704  21.428  0.00  0.00    -0.237 NA
ATOM      7  N   UNL     1      15.852  11.388  19.551  0.00  0.00    -0.232 NA
ATOM     16  C   UNL     1      13.845  12.565  20.978  0.00  0.00    +0.050 A 
ATOM     17  C   UNL     1      13.510  11.862  19.839  0.00  0.00    +0.052 A 
ATOM     18  C   UNL     1      14.564  11.290  19.159  0.00  0.00    +0.076 A 
ATOM     19  C   UNL     1      16.049  12.098  20.677  0.00  0.00    +0.127 A 
ATOM     22  C   UNL     1      17.460  12.232  21.142  0.00  0.00    +0.088 C 
BRANCH  18  21
ATOM      1 BR   UNL     1      14.644  12.988  16.448  0.00  0.00    -0.050 Br
ATOM     21  C   UNL     1      14.348  10.529  17.950  0.00  0.00    +0.014 A 
ATOM     24  C   UNL     1      14.353  11.125  16.690  0.00  0.00    +0.027 A 
ATOM     25  C   UNL     1      14.130   9.157  18.073  0.00  0.00    +0.011 A 
ATOM     28  C   UNL     1      14.140  10.348  15.551  0.00  0.00    +0.016 A 
ATOM     29  C   UNL     1      13.917   8.380  16.933  0.00  0.00    +0.001 A 
ATOM     32  C   UNL     1      13.923   8.976  15.673  0.00  0.00    +0.001 A 
ENDBRANCH  18  21
ENDBRANCH   9  16
BRANCH  10  15
ATOM     15  C   UNL     1      10.918  10.219  23.563  0.00  0.00    +0.123 C 
BRANCH  15   5
ATOM      2  O   UNL     1      11.180   8.680  21.154  0.00  0.00    -0.270 OA
ATOM      5  N   UNL     1      12.109   9.599  23.072  0.00  0.00    -0.310 N 
ATOM     20  C   UNL     1      12.148   8.866  21.888  0.00  0.00    +0.244 C 
ATOM     35  H   UNL     1      12.932   9.662  23.661  0.00  0.00    +0.149 HD
BRANCH  20  23
ATOM     23  C   UNL     1      13.458   8.263  21.528  0.00  0.00    +0.037 A 
ATOM     26  C   UNL     1      13.501   7.077  20.794  0.00  0.00    +0.016 A 
ATOM     27  C   UNL     1      14.643   8.882  21.923  0.00  0.00    +0.016 A 
ATOM     30  C   UNL     1      14.730   6.510  20.457  0.00  0.00    +0.046 A 
ATOM     31  C   UNL     1      15.873   8.315  21.587  0.00  0.00    +0.046 A 
ATOM     33  C   UNL     1      15.915   7.129  20.853  0.00  0.00    +0.120 A 
BRANCH  33   3
ATOM      3  O   UNL     1      17.114   6.576  20.525  0.00  0.00    -0.495 OA
ATOM     34  C   UNL     1      17.183   5.859  19.292  0.00  0.00    +0.277 C 
ENDBRANCH  33   3
ENDBRANCH  20  23
ENDBRANCH  15   5
ENDBRANCH  10  15
TORSDOF 6
ENDMDL
MODEL 4
REMARK VINA RESULT:      -7.4     14.606     17.510
REMARK  Name = 40777117
REMARK  8 active torsions:
REMARK  status: ('A' for Active; 'I' for Inactive)
REMARK    1  A    between atoms: O_3  and  C_33
REMARK    2  A    between atoms: O_3  and  C_34
REMARK    3  A    between atoms: N_5  and  C_15
REMARK    4  A    between atoms: C_9  and  C_16
REMARK    5  A    between atoms: C_10  and  C_15
REMARK    6  A    between atoms: C_18  and  C_21
REMARK    7  A    between atoms: C_19  and  C_22
REMARK    8  A    between atoms: C_20  and  C_23
REMARK                            x       y       z     vdW  Elec       q    Type
REMARK                         _______ _______ _______ _____ _____    ______ ____
ROOT
ATOM      4  N   UNL     1      15.724  10.119   4.062  0.00  0.00    -0.297 NA
ATOM      8  C   UNL     1      16.160   7.600   4.558  0.00  0.00    +0.002 C 
ATOM      9  C   UNL     1      15.417   7.766   3.203  0.00  0.00    +0.055 C 
ATOM     10  C   UNL     1      15.275   9.786   5.440  0.00  0.00    +0.074 C 
ATOM     11  C   UNL     1      15.332   8.262   5.679  0.00  0.00    +0.024 C 
ATOM     12  C   UNL     1      17.481   8.389   4.441  0.00  0.00    +0.019 C 
ATOM     13  C   UNL     1      15.016   9.264   3.076  0.00  0.00    +0.094 C 
ATOM     14  C   UNL     1      17.174   9.823   3.974  0.00  0.00    +0.085 C 
ENDROOT
BRANCH   9  16
ATOM      6  N   UNL     1      14.490   5.840   2.015  0.00  0.00    -0.237 NA
ATOM      7  N   UNL     1      12.209   5.123   2.315  0.00  0.00    -0.232 NA
ATOM     16  C   UNL     1      14.256   6.831   2.901  0.00  0.00    +0.050 A 
ATOM     17  C   UNL     1      13.042   7.028   3.526  0.00  0.00    +0.052 A 
ATOM     18  C   UNL     1      12.045   6.135   3.191  0.00  0.00    +0.076 A 
ATOM     19  C   UNL     1      13.437   5.035   1.772  0.00  0.00    +0.127 A 
ATOM     22  C   UNL     1      13.657   3.929   0.796  0.00  0.00    +0.088 C 
BRANCH  18  21
ATOM      1 BR   UNL     1      10.426   8.796   2.458  0.00  0.00    -0.050 Br
ATOM     21  C   UNL     1      10.728   6.234   3.776  0.00  0.00    +0.014 A 
ATOM     24  C   UNL     1       9.899   7.333   3.550  0.00  0.00    +0.027 A 
ATOM     25  C   UNL     1      10.292   5.186   4.586  0.00  0.00    +0.011 A 
ATOM     28  C   UNL     1       8.633   7.382   4.136  0.00  0.00    +0.016 A 
ATOM     29  C   UNL     1       9.027   5.236   5.171  0.00  0.00    +0.001 A 
ATOM     32  C   UNL     1       8.198   6.334   4.946  0.00  0.00    +0.001 A 
ENDBRANCH  18  21
ENDBRANCH   9  16
BRANCH  10  15
ATOM     15  C   UNL     1      13.893  10.361   5.757  0.00  0.00    +0.123 C 
BRANCH  15   5
ATOM      2  O   UNL     1      11.024  10.251   5.725  0.00  0.00    -0.270 OA
ATOM      5  N   UNL     1      13.069   9.385   6.400  0.00  0.00    -0.310 N 
ATOM     20  C   UNL     1      11.678   9.406   6.333  0.00  0.00    +0.244 C 
ATOM     35  H   UNL     1      13.543   8.694   6.972  0.00  0.00    +0.149 HD
BRANCH  20  23
ATOM     23  C   UNL     1      10.965   8.336   7.078  0.00  0.00    +0.037 A 
ATOM     26  C   UNL     1       9.651   8.538   7.502  0.00  0.00    +0.016 A 
ATOM     27  C   UNL     1      11.609   7.130   7.353  0.00  0.00    +0.016 A 
ATOM     30  C   UNL     1       8.982   7.534   8.202  0.00  0.00    +0.046 A 
ATOM     31  C   UNL     1      10.940   6.125   8.053  0.00  0.00    +0.046 A 
ATOM     33  C   UNL     1       9.626   6.328   8.477  0.00  0.00    +0.120 A 
BRANCH  33   3
ATOM      3  O   UNL     1       8.974   5.348   9.160  0.00  0.00    -0.495 OA
ATOM     34  C   UNL     1       9.452   4.013   8.995  0.00  0.00    +0.277 C 
ENDBRANCH  33   3
ENDBRANCH  20  23
ENDBRANCH  15   5
ENDBRANCH  10  15
TORSDOF 6
ENDMDL
MODEL 5
REMARK VINA RESULT:      -7.1      2.362      4.657
REMARK  Name = 40777117
REMARK  8 active torsions:
REMARK  status: ('A' for Active; 'I' for Inactive)
REMARK    1  A    between atoms: O_3  and  C_33
REMARK    2  A    between atoms: O_3  and  C_34
REMARK    3  A    between atoms: N_5  and  C_15
REMARK    4  A    between atoms: C_9  and  C_16
REMARK    5  A    between atoms: C_10  and  C_15
REMARK    6  A    between atoms: C_18  and  C_21
REMARK    7  A    between atoms: C_19  and  C_22
REMARK    8  A    between atoms: C_20  and  C_23
REMARK                            x       y       z     vdW  Elec       q    Type
REMARK                         _______ _______ _______ _____ _____    ______ ____
ROOT
ATOM      4  N   UNL     1      12.536  14.101  25.139  0.00  0.00    -0.297 NA
ATOM      8  C   UNL     1      14.287  12.182  25.326  0.00  0.00    +0.002 C 
ATOM      9  C   UNL     1      14.593  13.080  24.095  0.00  0.00    +0.055 C 
ATOM     10  C   UNL     1      11.845  12.795  25.305  0.00  0.00    +0.074 C 
ATOM     11  C   UNL     1      12.852  11.629  25.209  0.00  0.00    +0.024 C 
ATOM     12  C   UNL     1      14.322  13.100  26.566  0.00  0.00    +0.019 C 
ATOM     13  C   UNL     1      13.402  14.068  23.935  0.00  0.00    +0.094 C 
ATOM     14  C   UNL     1      13.401  14.310  26.325  0.00  0.00    +0.085 C 
ENDROOT
BRANCH   9  16
ATOM      6  N   UNL     1      14.837  13.141  21.662  0.00  0.00    -0.237 NA
ATOM      7  N   UNL     1      15.599  11.235  20.399  0.00  0.00    -0.232 NA
ATOM     16  C   UNL     1      14.960  12.400  22.783  0.00  0.00    +0.050 A 
ATOM     17  C   UNL     1      15.389  11.089  22.792  0.00  0.00    +0.052 A 
ATOM     18  C   UNL     1      15.697  10.553  21.559  0.00  0.00    +0.076 A 
ATOM     19  C   UNL     1      15.169  12.504  20.522  0.00  0.00    +0.127 A 
ATOM     22  C   UNL     1      15.044  13.290  19.261  0.00  0.00    +0.088 C 
BRANCH  18  21
ATOM      1 BR   UNL     1      18.875  10.190  21.482  0.00  0.00    -0.050 Br
ATOM     21  C   UNL     1      16.157   9.189  21.432  0.00  0.00    +0.014 A 
ATOM     24  C   UNL     1      17.513   8.867  21.385  0.00  0.00    +0.027 A 
ATOM     25  C   UNL     1      15.198   8.181  21.357  0.00  0.00    +0.011 A 
ATOM     28  C   UNL     1      17.909   7.535  21.262  0.00  0.00    +0.016 A 
ATOM     29  C   UNL     1      15.594   6.849  21.234  0.00  0.00    +0.001 A 
ATOM     32  C   UNL     1      16.950   6.527  21.188  0.00  0.00    +0.001 A 
ENDBRANCH  18  21
ENDBRANCH   9  16
BRANCH  10  15
ATOM     15  C   UNL     1      10.680  12.624  24.328  0.00  0.00    +0.123 C 
BRANCH  15   5
ATOM      2  O   UNL     1      11.375  12.814  21.549  0.00  0.00    -0.270 OA
ATOM      5  N   UNL     1      10.920  11.536  23.432  0.00  0.00    -0.310 N 
ATOM     20  C   UNL     1      11.254  11.718  22.092  0.00  0.00    +0.244 C 
ATOM     35  H   UNL     1      10.776  10.602  23.800  0.00  0.00    +0.149 HD
BRANCH  20  23
ATOM     23  C   UNL     1      11.446  10.485  21.286  0.00  0.00    +0.037 A 
ATOM     26  C   UNL     1      10.857   9.287  21.692  0.00  0.00    +0.016 A 
ATOM     27  C   UNL     1      12.214  10.524  20.122  0.00  0.00    +0.016 A 
ATOM     30  C   UNL     1      11.037   8.129  20.937  0.00  0.00    +0.046 A 
ATOM     31  C   UNL     1      12.395   9.365  19.366  0.00  0.00    +0.046 A 
ATOM     33  C   UNL     1      11.806   8.168  19.774  0.00  0.00    +0.120 A 
BRANCH  33   3
ATOM      3  O   UNL     1      11.982   7.039  19.036  0.00  0.00    -0.495 OA
ATOM     34  C   UNL     1      13.078   7.024  18.122  0.00  0.00    +0.277 C 
ENDBRANCH  33   3
ENDBRANCH  20  23
ENDBRANCH  15   5
ENDBRANCH  10  15
TORSDOF 6
ENDMDL
MODEL 6
REMARK VINA RESULT:      -7.0      3.213      6.536
REMARK  Name = 40777117
REMARK  8 active torsions:
REMARK  status: ('A' for Active; 'I' for Inactive)
REMARK    1  A    between atoms: O_3  and  C_33
REMARK    2  A    between atoms: O_3  and  C_34
REMARK    3  A    between atoms: N_5  and  C_15
REMARK    4  A    between atoms: C_9  and  C_16
REMARK    5  A    between atoms: C_10  and  C_15
REMARK    6  A    between atoms: C_18  and  C_21
REMARK    7  A    between atoms: C_19  and  C_22
REMARK    8  A    between atoms: C_20  and  C_23
REMARK                            x       y       z     vdW  Elec       q    Type
REMARK                         _______ _______ _______ _____ _____    ______ ____
ROOT
ATOM      4  N   UNL     1      16.081  13.479  15.880  0.00  0.00    -0.297 NA
ATOM      8  C   UNL     1      14.868  14.421  17.983  0.00  0.00    +0.002 C 
ATOM      9  C   UNL     1      15.968  13.406  18.399  0.00  0.00    +0.055 C 
ATOM     10  C   UNL     1      14.608  13.376  15.707  0.00  0.00    +0.074 C 
ATOM     11  C   UNL     1      13.878  13.735  17.019  0.00  0.00    +0.024 C 
ATOM     12  C   UNL     1      15.574  15.541  17.189  0.00  0.00    +0.019 C 
ATOM     13  C   UNL     1      16.502  12.742  17.097  0.00  0.00    +0.094 C 
ATOM     14  C   UNL     1      16.417  14.911  16.066  0.00  0.00    +0.085 C 
ENDROOT
BRANCH   9  16
ATOM      6  N   UNL     1      14.741  12.758  20.413  0.00  0.00    -0.237 NA
ATOM      7  N   UNL     1      14.990  10.586  21.426  0.00  0.00    -0.232 NA
ATOM     16  C   UNL     1      15.631  12.381  19.473  0.00  0.00    +0.050 A 
ATOM     17  C   UNL     1      16.235  11.140  19.443  0.00  0.00    +0.052 A 
ATOM     18  C   UNL     1      15.873  10.275  20.455  0.00  0.00    +0.076 A 
ATOM     19  C   UNL     1      14.470  11.825  21.346  0.00  0.00    +0.127 A 
ATOM     22  C   UNL     1      13.491  12.206  22.404  0.00  0.00    +0.088 C 
BRANCH  18  21
ATOM      1 BR   UNL     1      18.633  10.061  22.058  0.00  0.00    -0.050 Br
ATOM     21  C   UNL     1      16.434   8.947  20.537  0.00  0.00    +0.014 A 
ATOM     24  C   UNL     1      17.632   8.690  21.203  0.00  0.00    +0.027 A 
ATOM     25  C   UNL     1      15.738   7.905  19.926  0.00  0.00    +0.011 A 
ATOM     28  C   UNL     1      18.134   7.389  21.257  0.00  0.00    +0.016 A 
ATOM     29  C   UNL     1      16.240   6.604  19.980  0.00  0.00    +0.001 A 
ATOM     32  C   UNL     1      17.438   6.347  20.645  0.00  0.00    +0.001 A 
ENDBRANCH  18  21
ENDBRANCH   9  16
BRANCH  10  15
ATOM     15  C   UNL     1      14.177  12.009  15.171  0.00  0.00    +0.123 C 
BRANCH  15   5
ATOM      2  O   UNL     1      14.408   9.156  15.400  0.00  0.00    -0.270 OA
ATOM      5  N   UNL     1      13.652  11.191  16.221  0.00  0.00    -0.310 N 
ATOM     20  C   UNL     1      13.810   9.808  16.253  0.00  0.00    +0.244 C 
ATOM     35  H   UNL     1      13.094  11.659  16.926  0.00  0.00    +0.149 HD
BRANCH  20  23
ATOM     23  C   UNL     1      13.182   9.099  17.398  0.00  0.00    +0.037 A 
ATOM     26  C   UNL     1      13.054   7.710  17.374  0.00  0.00    +0.016 A 
ATOM     27  C   UNL     1      12.719   9.822  18.497  0.00  0.00    +0.016 A 
ATOM     30  C   UNL     1      12.464   7.044  18.447  0.00  0.00    +0.046 A 
ATOM     31  C   UNL     1      12.128   9.156  19.572  0.00  0.00    +0.046 A 
ATOM     33  C   UNL     1      12.001   7.767  19.546  0.00  0.00    +0.120 A 
BRANCH  33   3
ATOM      3  O   UNL     1      11.425   7.118  20.594  0.00  0.00    -0.495 OA
ATOM     34  C   UNL     1      10.849   7.926  21.621  0.00  0.00    +0.277 C 
ENDBRANCH  33   3
ENDBRANCH  20  23
ENDBRANCH  15   5
ENDBRANCH  10  15
TORSDOF 6
ENDMDL
MODEL 7
REMARK VINA RESULT:      -7.0     26.186     30.091
REMARK  Name = 40777117
REMARK  8 active torsions:
REMARK  status: ('A' for Active; 'I' for Inactive)
REMARK    1  A    between atoms: O_3  and  C_33
REMARK    2  A    between atoms: O_3  and  C_34
REMARK    3  A    between atoms: N_5  and  C_15
REMARK    4  A    between atoms: C_9  and  C_16
REMARK    5  A    between atoms: C_10  and  C_15
REMARK    6  A    between atoms: C_18  and  C_21
REMARK    7  A    between atoms: C_19  and  C_22
REMARK    8  A    between atoms: C_20  and  C_23
REMARK                            x       y       z     vdW  Elec       q    Type
REMARK                         _______ _______ _______ _____ _____    ______ ____
ROOT
ATOM      4  N   UNL     1      -4.828 -11.878  10.212  0.00  0.00    -0.297 NA
ATOM      8  C   UNL     1      -4.270  -9.563  11.267  0.00  0.00    +0.002 C 
ATOM      9  C   UNL     1      -3.449 -10.688  11.958  0.00  0.00    +0.055 C 
ATOM     10  C   UNL     1      -6.083 -11.164  10.566  0.00  0.00    +0.074 C 
ATOM     11  C   UNL     1      -5.774  -9.888  11.378  0.00  0.00    +0.024 C 
ATOM     12  C   UNL     1      -3.905  -9.603   9.768  0.00  0.00    +0.019 C 
ATOM     13  C   UNL     1      -3.981 -12.047  11.419  0.00  0.00    +0.094 C 
ATOM     14  C   UNL     1      -4.086 -11.037   9.241  0.00  0.00    +0.085 C 
ENDROOT
BRANCH   9  16
ATOM      6  N   UNL     1      -2.110 -10.496  13.996  0.00  0.00    -0.237 NA
ATOM      7  N   UNL     1      -3.088 -10.636  16.194  0.00  0.00    -0.232 NA
ATOM     16  C   UNL     1      -3.343 -10.671  13.476  0.00  0.00    +0.050 A 
ATOM     17  C   UNL     1      -4.480 -10.833  14.240  0.00  0.00    +0.052 A 
ATOM     18  C   UNL     1      -4.291 -10.807  15.606  0.00  0.00    +0.076 A 
ATOM     19  C   UNL     1      -2.057 -10.488  15.342  0.00  0.00    +0.127 A 
ATOM     22  C   UNL     1      -0.710 -10.298  15.953  0.00  0.00    +0.088 C 
BRANCH  18  21
ATOM      1 BR   UNL     1      -4.998 -13.832  16.374  0.00  0.00    -0.050 Br
ATOM     21  C   UNL     1      -5.401 -10.967  16.517  0.00  0.00    +0.014 A 
ATOM     24  C   UNL     1      -5.831 -12.222  16.946  0.00  0.00    +0.027 A 
ATOM     25  C   UNL     1      -6.047  -9.816  16.967  0.00  0.00    +0.011 A 
ATOM     28  C   UNL     1      -6.908 -12.326  17.827  0.00  0.00    +0.016 A 
ATOM     29  C   UNL     1      -7.124  -9.920  17.848  0.00  0.00    +0.001 A 
ATOM     32  C   UNL     1      -7.553 -11.175  18.278  0.00  0.00    +0.001 A 
ENDBRANCH  18  21
ENDBRANCH   9  16
BRANCH  10  15
ATOM     15  C   UNL     1      -7.085 -12.069  11.286  0.00  0.00    +0.123 C 
BRANCH  15   5
ATOM      2  O   UNL     1      -7.640 -12.901  13.977  0.00  0.00    -0.270 OA
ATOM      5  N   UNL     1      -7.818 -11.337  12.272  0.00  0.00    -0.310 N 
ATOM     20  C   UNL     1      -8.042 -11.817  13.561  0.00  0.00    +0.244 C 
ATOM     35  H   UNL     1      -8.231 -10.460  11.975  0.00  0.00    +0.149 HD
BRANCH  20  23
ATOM     23  C   UNL     1      -8.845 -10.948  14.458  0.00  0.00    +0.037 A 
ATOM     26  C   UNL     1      -9.727 -11.518  15.377  0.00  0.00    +0.016 A 
ATOM     27  C   UNL     1      -8.717  -9.561  14.384  0.00  0.00    +0.016 A 
ATOM     30  C   UNL     1     -10.481 -10.703  16.220  0.00  0.00    +0.046 A 
ATOM     31  C   UNL     1      -9.472  -8.744  15.227  0.00  0.00    +0.046 A 
ATOM     33  C   UNL     1     -10.353  -9.315  16.144  0.00  0.00    +0.120 A 
BRANCH  33   3
ATOM      3  O   UNL     1     -11.089  -8.519  16.966  0.00  0.00    -0.495 OA
ATOM     34  C   UNL     1     -11.052  -7.114  16.714  0.00  0.00    +0.277 C 
ENDBRANCH  33   3
ENDBRANCH  20  23
ENDBRANCH  15   5
ENDBRANCH  10  15
TORSDOF 6
ENDMDL
MODEL 8
REMARK VINA RESULT:      -7.0     26.072     29.431
REMARK  Name = 40777117
REMARK  8 active torsions:
REMARK  status: ('A' for Active; 'I' for Inactive)
REMARK    1  A    between atoms: O_3  and  C_33
REMARK    2  A    between atoms: O_3  and  C_34
REMARK    3  A    between atoms: N_5  and  C_15
REMARK    4  A    between atoms: C_9  and  C_16
REMARK    5  A    between atoms: C_10  and  C_15
REMARK    6  A    between atoms: C_18  and  C_21
REMARK    7  A    between atoms: C_19  and  C_22
REMARK    8  A    between atoms: C_20  and  C_23
REMARK                            x       y       z     vdW  Elec       q    Type
REMARK                         _______ _______ _______ _____ _____    ______ ____
ROOT
ATOM      4  N   UNL     1      -7.549 -11.450  17.873  0.00  0.00    -0.297 NA
ATOM      8  C   UNL     1      -5.043 -11.262  18.556  0.00  0.00    +0.002 C 
ATOM      9  C   UNL     1      -5.320 -10.432  17.272  0.00  0.00    +0.055 C 
ATOM     10  C   UNL     1      -6.984 -12.804  18.112  0.00  0.00    +0.074 C 
ATOM     11  C   UNL     1      -5.455 -12.729  18.314  0.00  0.00    +0.024 C 
ATOM     12  C   UNL     1      -5.971 -10.704  19.656  0.00  0.00    +0.019 C 
ATOM     13  C   UNL     1      -6.772 -10.754  16.817  0.00  0.00    +0.094 C 
ATOM     14  C   UNL     1      -7.417 -10.675  19.130  0.00  0.00    +0.085 C 
ENDROOT
BRANCH   9  16
ATOM      6  N   UNL     1      -3.019 -10.383  16.445  0.00  0.00    -0.237 NA
ATOM      7  N   UNL     1      -2.486 -10.679  14.113  0.00  0.00    -0.232 NA
ATOM     16  C   UNL     1      -4.322 -10.525  16.127  0.00  0.00    +0.050 A 
ATOM     17  C   UNL     1      -4.778 -10.744  14.843  0.00  0.00    +0.052 A 
ATOM     18  C   UNL     1      -3.806 -10.812  13.867  0.00  0.00    +0.076 A 
ATOM     19  C   UNL     1      -2.167 -10.470  15.404  0.00  0.00    +0.127 A 
ATOM     22  C   UNL     1      -0.718 -10.316  15.716  0.00  0.00    +0.088 C 
BRANCH  18  21
ATOM      1 BR   UNL     1      -6.579  -9.519  12.932  0.00  0.00    -0.050 Br
ATOM     21  C   UNL     1      -4.152 -11.036  12.483  0.00  0.00    +0.014 A 
ATOM     24  C   UNL     1      -5.328 -10.537  11.924  0.00  0.00    +0.027 A 
ATOM     25  C   UNL     1      -3.267 -11.776  11.699  0.00  0.00    +0.011 A 
ATOM     28  C   UNL     1      -5.619 -10.778  10.581  0.00  0.00    +0.016 A 
ATOM     29  C   UNL     1      -3.559 -12.018  10.357  0.00  0.00    +0.001 A 
ATOM     32  C   UNL     1      -4.734 -11.518   9.798  0.00  0.00    +0.001 A 
ENDBRANCH  18  21
ENDBRANCH   9  16
BRANCH  10  15
ATOM     15  C   UNL     1      -7.365 -13.798  17.013  0.00  0.00    +0.123 C 
BRANCH  15   5
ATOM      2  O   UNL     1      -7.043 -13.381  14.191  0.00  0.00    -0.270 OA
ATOM      5  N   UNL     1      -6.225 -14.148  16.223  0.00  0.00    -0.310 N 
ATOM     20  C   UNL     1      -6.152 -13.909  14.852  0.00  0.00    +0.244 C 
ATOM     35  H   UNL     1      -5.478 -14.644  16.696  0.00  0.00    +0.149 HD
BRANCH  20  23
ATOM     23  C   UNL     1      -4.911 -14.356  14.170  0.00  0.00    +0.037 A 
ATOM     26  C   UNL     1      -4.978 -14.910  12.892  0.00  0.00    +0.016 A 
ATOM     27  C   UNL     1      -3.677 -14.221  14.807  0.00  0.00    +0.016 A 
ATOM     30  C   UNL     1      -3.813 -15.331  12.251  0.00  0.00    +0.046 A 
ATOM     31  C   UNL     1      -2.511 -14.642  14.167  0.00  0.00    +0.046 A 
ATOM     33  C   UNL     1      -2.580 -15.197  12.889  0.00  0.00    +0.120 A 
BRANCH  33   3
ATOM      3  O   UNL     1      -1.442 -15.606  12.264  0.00  0.00    -0.495 OA
ATOM     34  C   UNL     1      -0.291 -15.815  13.082  0.00  0.00    +0.277 C 
ENDBRANCH  33   3
ENDBRANCH  20  23
ENDBRANCH  15   5
ENDBRANCH  10  15
TORSDOF 6
ENDMDL
MODEL 9
REMARK VINA RESULT:      -6.9     16.236     19.918
REMARK  Name = 40777117
REMARK  8 active torsions:
REMARK  status: ('A' for Active; 'I' for Inactive)
REMARK    1  A    between atoms: O_3  and  C_33
REMARK    2  A    between atoms: O_3  and  C_34
REMARK    3  A    between atoms: N_5  and  C_15
REMARK    4  A    between atoms: C_9  and  C_16
REMARK    5  A    between atoms: C_10  and  C_15
REMARK    6  A    between atoms: C_18  and  C_21
REMARK    7  A    between atoms: C_19  and  C_22
REMARK    8  A    between atoms: C_20  and  C_23
REMARK                            x       y       z     vdW  Elec       q    Type
REMARK                         _______ _______ _______ _____ _____    ______ ____
ROOT
ATOM      4  N   UNL     1       8.576   6.460   6.056  0.00  0.00    -0.297 NA
ATOM      8  C   UNL     1       9.856   8.551   5.177  0.00  0.00    +0.002 C 
ATOM      9  C   UNL     1       8.560   8.321   4.352  0.00  0.00    +0.055 C 
ATOM     10  C   UNL     1      10.006   6.123   5.828  0.00  0.00    +0.074 C 
ATOM     11  C   UNL     1      10.733   7.283   5.114  0.00  0.00    +0.024 C 
ATOM     12  C   UNL     1       9.422   8.732   6.647  0.00  0.00    +0.019 C 
ATOM     13  C   UNL     1       7.963   6.955   4.798  0.00  0.00    +0.094 C 
ATOM     14  C   UNL     1       8.522   7.553   7.057  0.00  0.00    +0.085 C 
ENDROOT
BRANCH   9  16
ATOM      6  N   UNL     1       7.799   9.332   2.259  0.00  0.00    -0.237 NA
ATOM      7  N   UNL     1       8.733   8.720   0.123  0.00  0.00    -0.232 NA
ATOM     16  C   UNL     1       8.639   8.449   2.838  0.00  0.00    +0.050 A 
ATOM     17  C   UNL     1       9.541   7.676   2.136  0.00  0.00    +0.052 A 
ATOM     18  C   UNL     1       9.543   7.855   0.768  0.00  0.00    +0.076 A 
ATOM     19  C   UNL     1       7.898   9.416   0.918  0.00  0.00    +0.127 A 
ATOM     22  C   UNL     1       6.984  10.381   0.242  0.00  0.00    +0.088 C 
BRANCH  18  21
ATOM      1 BR   UNL     1      12.263   9.355   0.001  0.00  0.00    -0.050 Br
ATOM     21  C   UNL     1      10.440   7.106  -0.081  0.00  0.00    +0.014 A 
ATOM     24  C   UNL     1      11.665   7.622  -0.503  0.00  0.00    +0.027 A 
ATOM     25  C   UNL     1      10.047   5.828  -0.478  0.00  0.00    +0.011 A 
ATOM     28  C   UNL     1      12.498   6.860  -1.322  0.00  0.00    +0.016 A 
ATOM     29  C   UNL     1      10.880   5.066  -1.298  0.00  0.00    +0.001 A 
ATOM     32  C   UNL     1      12.105   5.582  -1.719  0.00  0.00    +0.001 A 
ENDBRANCH  18  21
ENDBRANCH   9  16
BRANCH  10  15
ATOM     15  C   UNL     1      10.181   4.798   5.084  0.00  0.00    +0.123 C 
BRANCH  15   5
ATOM      2  O   UNL     1      10.254   4.054   2.311  0.00  0.00    -0.270 OA
ATOM      5  N   UNL     1      11.318   4.844   4.217  0.00  0.00    -0.310 N 
ATOM     20  C   UNL     1      11.265   4.463   2.878  0.00  0.00    +0.244 C 
ATOM     35  H   UNL     1      12.200   5.114   4.637  0.00  0.00    +0.149 HD
BRANCH  20  23
ATOM     23  C   UNL     1      12.539   4.545   2.118  0.00  0.00    +0.037 A 
ATOM     26  C   UNL     1      12.982   3.448   1.379  0.00  0.00    +0.016 A 
ATOM     27  C   UNL     1      13.292   5.718   2.143  0.00  0.00    +0.016 A 
ATOM     30  C   UNL     1      14.178   3.523   0.666  0.00  0.00    +0.046 A 
ATOM     31  C   UNL     1      14.489   5.795   1.430  0.00  0.00    +0.046 A 
ATOM     33  C   UNL     1      14.931   4.697   0.692  0.00  0.00    +0.120 A 
BRANCH  33   3
ATOM      3  O   UNL     1      16.098   4.772  -0.004  0.00  0.00    -0.495 OA
ATOM     34  C   UNL     1      16.036   4.516  -1.407  0.00  0.00    +0.277 C 
ENDBRANCH  33   3
ENDBRANCH  20  23
ENDBRANCH  15   5
ENDBRANCH  10  15
TORSDOF 6
ENDMDL
MODEL 10
REMARK VINA RESULT:      -6.8     27.253     29.765
REMARK  Name = 40777117
REMARK  8 active torsions:
REMARK  status: ('A' for Active; 'I' for Inactive)
REMARK    1  A    between atoms: O_3  and  C_33
REMARK    2  A    between atoms: O_3  and  C_34
REMARK    3  A    between atoms: N_5  and  C_15
REMARK    4  A    between atoms: C_9  and  C_16
REMARK    5  A    between atoms: C_10  and  C_15
REMARK    6  A    between atoms: C_18  and  C_21
REMARK    7  A    between atoms: C_19  and  C_22
REMARK    8  A    between atoms: C_20  and  C_23
REMARK                            x       y       z     vdW  Elec       q    Type
REMARK                         _______ _______ _______ _____ _____    ______ ____
ROOT
ATOM      4  N   UNL     1      -4.179 -11.867  18.167  0.00  0.00    -0.297 NA
ATOM      8  C   UNL     1      -6.523 -11.040  17.392  0.00  0.00    +0.002 C 
ATOM      9  C   UNL     1      -6.360 -12.558  17.104  0.00  0.00    +0.055 C 
ATOM     10  C   UNL     1      -4.037 -10.647  17.330  0.00  0.00    +0.074 C 
ATOM     11  C   UNL     1      -5.389 -10.262  16.693  0.00  0.00    +0.024 C 
ATOM     12  C   UNL     1      -6.333 -10.853  18.912  0.00  0.00    +0.019 C 
ATOM     13  C   UNL     1      -4.879 -12.929  17.403  0.00  0.00    +0.094 C 
ATOM     14  C   UNL     1      -5.013 -11.517  19.342  0.00  0.00    +0.085 C 
ENDROOT
BRANCH   9  16
ATOM      6  N   UNL     1      -8.058 -13.637  15.713  0.00  0.00    -0.237 NA
ATOM      7  N   UNL     1      -7.716 -14.059  13.365  0.00  0.00    -0.232 NA
ATOM     16  C   UNL     1      -6.826 -13.088  15.756  0.00  0.00    +0.050 A 
ATOM     17  C   UNL     1      -5.993 -12.989  14.660  0.00  0.00    +0.052 A 
ATOM     18  C   UNL     1      -6.495 -13.496  13.480  0.00  0.00    +0.076 A 
ATOM     19  C   UNL     1      -8.434 -14.096  14.503  0.00  0.00    +0.127 A 
ATOM     22  C   UNL     1      -9.789 -14.712  14.417  0.00  0.00    +0.088 C 
BRANCH  18  21
ATOM      1 BR   UNL     1      -7.973 -12.164  10.974  0.00  0.00    -0.050 Br
ATOM     21  C   UNL     1      -5.721 -13.455  12.261  0.00  0.00    +0.014 A 
ATOM     24  C   UNL     1      -6.226 -12.906  11.082  0.00  0.00    +0.027 A 
ATOM     25  C   UNL     1      -4.432 -13.987  12.287  0.00  0.00    +0.011 A 
ATOM     28  C   UNL     1      -5.440 -12.888   9.930  0.00  0.00    +0.016 A 
ATOM     29  C   UNL     1      -3.647 -13.969  11.134  0.00  0.00    +0.001 A 
ATOM     32  C   UNL     1      -4.151 -13.419   9.956  0.00  0.00    +0.001 A 
ENDBRANCH  18  21
ENDBRANCH   9  16
BRANCH  10  15
ATOM     15  C   UNL     1      -2.931 -10.784  16.281  0.00  0.00    +0.123 C 
BRANCH  15   5
ATOM      2  O   UNL     1      -2.055 -11.801  13.743  0.00  0.00    -0.270 OA
ATOM      5  N   UNL     1      -3.396 -10.376  14.992  0.00  0.00    -0.310 N 
ATOM     20  C   UNL     1      -2.915 -10.924  13.805  0.00  0.00    +0.244 C 
ATOM     35  H   UNL     1      -4.062  -9.612  14.969  0.00  0.00    +0.149 HD
BRANCH  20  23
ATOM     23  C   UNL     1      -3.481 -10.374  12.547  0.00  0.00    +0.037 A 
ATOM     26  C   UNL     1      -2.700 -10.327  11.392  0.00  0.00    +0.016 A 
ATOM     27  C   UNL     1      -4.794  -9.904  12.519  0.00  0.00    +0.016 A 
ATOM     30  C   UNL     1      -3.230  -9.810  10.210  0.00  0.00    +0.046 A 
ATOM     31  C   UNL     1      -5.325  -9.386  11.338  0.00  0.00    +0.046 A 
ATOM     33  C   UNL     1      -4.543  -9.339  10.184  0.00  0.00    +0.120 A 
BRANCH  33   3
ATOM      3  O   UNL     1      -5.062  -8.835   9.032  0.00  0.00    -0.495 OA
ATOM     34  C   UNL     1      -5.131  -9.715   7.910  0.00  0.00    +0.277 C 
ENDBRANCH  33   3
ENDBRANCH  20  23
ENDBRANCH  15   5
ENDBRANCH  10  15
TORSDOF 6
ENDMDL
