MODEL 1
REMARK VINA RESULT:      -7.7      0.000      0.000
REMARK  Name = 51137502
REMARK  6 active torsions:
REMARK  status: ('A' for Active; 'I' for Inactive)
REMARK    1  A    between atoms: O_4  and  C_27
REMARK    2  A    between atoms: O_4  and  C_28
REMARK    3  A    between atoms: N_5  and  C_12
REMARK    4  A    between atoms: C_8  and  C_13
REMARK    5  A    between atoms: C_12  and  C_14
REMARK    6  A    between atoms: C_17  and  C_21
REMARK                            x       y       z     vdW  Elec       q    Type
REMARK                         _______ _______ _______ _____ _____    ______ ____
ROOT
ATOM      5  N   UNL     1      12.395   9.481  20.272  0.00  0.00    -0.297 NA
ATOM      8  C   UNL     1      14.404   8.784  19.284  0.00  0.00    +0.092 C 
ATOM      9  C   UNL     1      13.687   8.898  20.637  0.00  0.00    +0.097 C 
ATOM     10  C   UNL     1      13.270   8.715  18.247  0.00  0.00    +0.029 C 
ATOM     11  C   UNL     1      11.984   8.765  19.064  0.00  0.00    +0.085 C 
ENDROOT
BRANCH   8  13
ATOM      1  O   UNL     1      16.468   7.711  20.051  0.00  0.00    -0.420 OA
ATOM      6  N   UNL     1      15.353   6.544  18.502  0.00  0.00    -0.112 NA
ATOM      7  N   UNL     1      16.488   5.830  18.842  0.00  0.00    -0.107 NA
ATOM     13  C   UNL     1      15.383   7.634  19.232  0.00  0.00    +0.222 A 
ATOM     17  C   UNL     1      17.107   6.549  19.749  0.00  0.00    +0.248 A 
BRANCH  17  21
ATOM     21  C   UNL     1      18.330   6.302  20.456  0.00  0.00    +0.039 A 
ATOM     23  C   UNL     1      18.629   7.031  21.607  0.00  0.00    +0.017 A 
ATOM     24  C   UNL     1      19.219   5.332  19.994  0.00  0.00    +0.017 A 
ATOM     25  C   UNL     1      19.818   6.791  22.296  0.00  0.00    +0.046 A 
ATOM     26  C   UNL     1      20.409   5.092  20.682  0.00  0.00    +0.046 A 
ATOM     27  C   UNL     1      20.708   5.821  21.833  0.00  0.00    +0.120 A 
BRANCH  27   4
ATOM      4  O   UNL     1      21.866   5.584  22.507  0.00  0.00    -0.495 OA
ATOM     28  C   UNL     1      22.344   4.239  22.527  0.00  0.00    +0.277 C 
ENDBRANCH  27   4
ENDBRANCH  17  21
ENDBRANCH   8  13
BRANCH   5  12
ATOM     12  C   UNL     1      11.414   9.371  21.342  0.00  0.00    +0.119 C 
BRANCH  12  14
ATOM      2  O   UNL     1      10.563  11.974  25.465  0.00  0.00    -0.453 OA
ATOM      3  O   UNL     1      10.901  14.082  24.345  0.00  0.00    -0.453 OA
ATOM     14  C   UNL     1      11.283  10.655  22.118  0.00  0.00    -0.030 A 
ATOM     15  C   UNL     1      10.968  10.615  23.477  0.00  0.00    +0.054 A 
ATOM     16  C   UNL     1      11.480  11.884  21.464  0.00  0.00    +0.009 A 
ATOM     18  C   UNL     1      10.861  11.817  24.146  0.00  0.00    +0.167 A 
ATOM     19  C   UNL     1      11.365  13.088  22.164  0.00  0.00    +0.050 A 
ATOM     20  C   UNL     1      11.054  13.021  23.506  0.00  0.00    +0.166 A 
ATOM     22  C   UNL     1      10.590  13.411  25.583  0.00  0.00    +0.466 C 
ENDBRANCH  12  14
ENDBRANCH   5  12
TORSDOF 5
ENDMDL
MODEL 2
REMARK VINA RESULT:      -7.5      4.415      6.386
REMARK  Name = 51137502
REMARK  6 active torsions:
REMARK  status: ('A' for Active; 'I' for Inactive)
REMARK    1  A    between atoms: O_4  and  C_27
REMARK    2  A    between atoms: O_4  and  C_28
REMARK    3  A    between atoms: N_5  and  C_12
REMARK    4  A    between atoms: C_8  and  C_13
REMARK    5  A    between atoms: C_12  and  C_14
REMARK    6  A    between atoms: C_17  and  C_21
REMARK                            x       y       z     vdW  Elec       q    Type
REMARK                         _______ _______ _______ _____ _____    ______ ____
ROOT
ATOM      5  N   UNL     1      17.142   7.571  20.558  0.00  0.00    -0.297 NA
ATOM      8  C   UNL     1      19.342   6.802  20.817  0.00  0.00    +0.092 C 
ATOM      9  C   UNL     1      18.245   7.612  21.521  0.00  0.00    +0.097 C 
ATOM     10  C   UNL     1      18.582   5.875  19.852  0.00  0.00    +0.029 C 
ATOM     11  C   UNL     1      17.109   6.189  20.080  0.00  0.00    +0.085 C 
ENDROOT
BRANCH   8  13
ATOM      1  O   UNL     1      20.972   5.038  21.297  0.00  0.00    -0.420 OA
ATOM      6  N   UNL     1      20.495   6.343  23.051  0.00  0.00    -0.112 NA
ATOM      7  N   UNL     1      21.419   5.398  23.459  0.00  0.00    -0.107 NA
ATOM     13  C   UNL     1      20.263   6.095  21.783  0.00  0.00    +0.222 A 
ATOM     17  C   UNL     1      21.668   4.659  22.403  0.00  0.00    +0.248 A 
BRANCH  17  21
ATOM     21  C   UNL     1      22.545   3.536  22.239  0.00  0.00    +0.039 A 
ATOM     23  C   UNL     1      22.854   2.727  23.332  0.00  0.00    +0.017 A 
ATOM     24  C   UNL     1      23.087   3.253  20.985  0.00  0.00    +0.017 A 
ATOM     25  C   UNL     1      23.706   1.635  23.172  0.00  0.00    +0.046 A 
ATOM     26  C   UNL     1      23.940   2.161  20.825  0.00  0.00    +0.046 A 
ATOM     27  C   UNL     1      24.249   1.351  21.918  0.00  0.00    +0.120 A 
BRANCH  27   4
ATOM      4  O   UNL     1      25.078   0.283  21.761  0.00  0.00    -0.495 OA
ATOM     28  C   UNL     1      26.335   0.333  22.435  0.00  0.00    +0.277 C 
ENDBRANCH  27   4
ENDBRANCH  17  21
ENDBRANCH   8  13
BRANCH   5  12
ATOM     12  C   UNL     1      15.876   7.984  21.146  0.00  0.00    +0.119 C 
BRANCH  12  14
ATOM      2  O   UNL     1      13.413   9.457  17.114  0.00  0.00    -0.453 OA
ATOM      3  O   UNL     1      11.712   7.771  17.392  0.00  0.00    -0.453 OA
ATOM     14  C   UNL     1      14.743   7.899  20.158  0.00  0.00    -0.030 A 
ATOM     15  C   UNL     1      14.688   8.796  19.089  0.00  0.00    +0.054 A 
ATOM     16  C   UNL     1      13.751   6.916  20.321  0.00  0.00    +0.009 A 
ATOM     18  C   UNL     1      13.632   8.677  18.208  0.00  0.00    +0.167 A 
ATOM     19  C   UNL     1      12.692   6.818  19.415  0.00  0.00    +0.050 A 
ATOM     20  C   UNL     1      12.661   7.714  18.367  0.00  0.00    +0.166 A 
ATOM     22  C   UNL     1      12.195   8.877  16.603  0.00  0.00    +0.466 C 
ENDBRANCH  12  14
ENDBRANCH   5  12
TORSDOF 5
ENDMDL
MODEL 3
REMARK VINA RESULT:      -7.3     27.198     31.012
REMARK  Name = 51137502
REMARK  6 active torsions:
REMARK  status: ('A' for Active; 'I' for Inactive)
REMARK    1  A    between atoms: O_4  and  C_27
REMARK    2  A    between atoms: O_4  and  C_28
REMARK    3  A    between atoms: N_5  and  C_12
REMARK    4  A    between atoms: C_8  and  C_13
REMARK    5  A    between atoms: C_12  and  C_14
REMARK    6  A    between atoms: C_17  and  C_21
REMARK                            x       y       z     vdW  Elec       q    Type
REMARK                         _______ _______ _______ _____ _____    ______ ____
ROOT
ATOM      5  N   UNL     1     -16.873   3.777  26.087  0.00  0.00    -0.297 NA
ATOM      8  C   UNL     1     -16.093   5.264  24.450  0.00  0.00    +0.092 C 
ATOM      9  C   UNL     1     -15.866   3.860  25.027  0.00  0.00    +0.097 C 
ATOM     10  C   UNL     1     -17.558   5.591  24.787  0.00  0.00    +0.029 C 
ATOM     11  C   UNL     1     -18.084   4.354  25.504  0.00  0.00    +0.085 C 
ENDROOT
BRANCH   8  13
ATOM      1  O   UNL     1     -14.708   6.187  22.653  0.00  0.00    -0.420 OA
ATOM      6  N   UNL     1     -16.287   4.765  21.951  0.00  0.00    -0.112 NA
ATOM      7  N   UNL     1     -15.585   5.207  20.845  0.00  0.00    -0.107 NA
ATOM     13  C   UNL     1     -15.741   5.363  22.984  0.00  0.00    +0.222 A 
ATOM     17  C   UNL     1     -14.675   6.034  21.302  0.00  0.00    +0.248 A 
BRANCH  17  21
ATOM     21  C   UNL     1     -13.669   6.786  20.610  0.00  0.00    +0.039 A 
ATOM     23  C   UNL     1     -14.026   7.620  19.550  0.00  0.00    +0.017 A 
ATOM     24  C   UNL     1     -12.332   6.684  20.997  0.00  0.00    +0.017 A 
ATOM     25  C   UNL     1     -13.048   8.351  18.878  0.00  0.00    +0.046 A 
ATOM     26  C   UNL     1     -11.353   7.416  20.325  0.00  0.00    +0.046 A 
ATOM     27  C   UNL     1     -11.711   8.250  19.265  0.00  0.00    +0.120 A 
BRANCH  27   4
ATOM      4  O   UNL     1     -10.757   8.966  18.611  0.00  0.00    -0.495 OA
ATOM     28  C   UNL     1     -10.396   8.524  17.302  0.00  0.00    +0.277 C 
ENDBRANCH  27   4
ENDBRANCH  17  21
ENDBRANCH   8  13
BRANCH   5  12
ATOM     12  C   UNL     1     -17.077   2.413  26.553  0.00  0.00    +0.119 C 
BRANCH  12  14
ATOM      2  O   UNL     1     -15.711  -0.465  30.341  0.00  0.00    -0.453 OA
ATOM      3  O   UNL     1     -14.465   1.309  31.394  0.00  0.00    -0.453 OA
ATOM     14  C   UNL     1     -16.365   2.152  27.854  0.00  0.00    -0.030 A 
ATOM     15  C   UNL     1     -16.431   0.886  28.438  0.00  0.00    +0.054 A 
ATOM     16  C   UNL     1     -15.638   3.187  28.468  0.00  0.00    +0.009 A 
ATOM     18  C   UNL     1     -15.760   0.694  29.629  0.00  0.00    +0.167 A 
ATOM     19  C   UNL     1     -14.968   2.967  29.674  0.00  0.00    +0.050 A 
ATOM     20  C   UNL     1     -15.048   1.707  30.230  0.00  0.00    +0.166 A 
ATOM     22  C   UNL     1     -14.889  -0.067  31.457  0.00  0.00    +0.466 C 
ENDBRANCH  12  14
ENDBRANCH   5  12
TORSDOF 5
ENDMDL
MODEL 4
REMARK VINA RESULT:      -7.2      3.517      5.895
REMARK  Name = 51137502
REMARK  6 active torsions:
REMARK  status: ('A' for Active; 'I' for Inactive)
REMARK    1  A    between atoms: O_4  and  C_27
REMARK    2  A    between atoms: O_4  and  C_28
REMARK    3  A    between atoms: N_5  and  C_12
REMARK    4  A    between atoms: C_8  and  C_13
REMARK    5  A    between atoms: C_12  and  C_14
REMARK    6  A    between atoms: C_17  and  C_21
REMARK                            x       y       z     vdW  Elec       q    Type
REMARK                         _______ _______ _______ _____ _____    ______ ____
ROOT
ATOM      5  N   UNL     1      17.569   8.038  20.788  0.00  0.00    -0.297 NA
ATOM      8  C   UNL     1      19.515   6.732  20.892  0.00  0.00    +0.092 C 
ATOM      9  C   UNL     1      18.835   7.957  21.520  0.00  0.00    +0.097 C 
ATOM     10  C   UNL     1      18.356   5.886  20.336  0.00  0.00    +0.029 C 
ATOM     11  C   UNL     1      17.093   6.657  20.702  0.00  0.00    +0.085 C 
ENDROOT
BRANCH   8  13
ATOM      1  O   UNL     1      21.148   4.967  21.352  0.00  0.00    -0.420 OA
ATOM      6  N   UNL     1      20.640   6.226  23.130  0.00  0.00    -0.112 NA
ATOM      7  N   UNL     1      21.564   5.277  23.527  0.00  0.00    -0.107 NA
ATOM     13  C   UNL     1      20.426   6.007  21.853  0.00  0.00    +0.222 A 
ATOM     17  C   UNL     1      21.831   4.565  22.458  0.00  0.00    +0.248 A 
BRANCH  17  21
ATOM     21  C   UNL     1      22.716   3.451  22.279  0.00  0.00    +0.039 A 
ATOM     23  C   UNL     1      23.129   3.086  20.997  0.00  0.00    +0.017 A 
ATOM     24  C   UNL     1      23.164   2.731  23.387  0.00  0.00    +0.017 A 
ATOM     25  C   UNL     1      23.990   2.003  20.823  0.00  0.00    +0.046 A 
ATOM     26  C   UNL     1      24.025   1.648  23.214  0.00  0.00    +0.046 A 
ATOM     27  C   UNL     1      24.438   1.284  21.932  0.00  0.00    +0.120 A 
BRANCH  27   4
ATOM      4  O   UNL     1      25.281   0.228  21.762  0.00  0.00    -0.495 OA
ATOM     28  C   UNL     1      25.936  -0.273  22.927  0.00  0.00    +0.277 C 
ENDBRANCH  27   4
ENDBRANCH  17  21
ENDBRANCH   8  13
BRANCH   5  12
ATOM     12  C   UNL     1      16.607   8.916  21.438  0.00  0.00    +0.119 C 
BRANCH  12  14
ATOM      2  O   UNL     1      11.814   7.844  22.043  0.00  0.00    -0.453 OA
ATOM      3  O   UNL     1      11.350   8.044  19.685  0.00  0.00    -0.453 OA
ATOM     14  C   UNL     1      15.207   8.687  20.933  0.00  0.00    -0.030 A 
ATOM     15  C   UNL     1      14.190   8.363  21.832  0.00  0.00    +0.054 A 
ATOM     16  C   UNL     1      14.937   8.803  19.558  0.00  0.00    +0.009 A 
ATOM     18  C   UNL     1      12.923   8.165  21.322  0.00  0.00    +0.167 A 
ATOM     19  C   UNL     1      13.645   8.597  19.067  0.00  0.00    +0.050 A 
ATOM     20  C   UNL     1      12.659   8.279  19.977  0.00  0.00    +0.166 A 
ATOM     22  C   UNL     1      10.821   7.769  20.999  0.00  0.00    +0.466 C 
ENDBRANCH  12  14
ENDBRANCH   5  12
TORSDOF 5
ENDMDL
MODEL 5
REMARK VINA RESULT:      -7.1     27.657     29.626
REMARK  Name = 51137502
REMARK  6 active torsions:
REMARK  status: ('A' for Active; 'I' for Inactive)
REMARK    1  A    between atoms: O_4  and  C_27
REMARK    2  A    between atoms: O_4  and  C_28
REMARK    3  A    between atoms: N_5  and  C_12
REMARK    4  A    between atoms: C_8  and  C_13
REMARK    5  A    between atoms: C_12  and  C_14
REMARK    6  A    between atoms: C_17  and  C_21
REMARK                            x       y       z     vdW  Elec       q    Type
REMARK                         _______ _______ _______ _____ _____    ______ ____
ROOT
ATOM      5  N   UNL     1      -2.948 -10.389  10.787  0.00  0.00    -0.297 NA
ATOM      8  C   UNL     1      -2.411 -11.424  12.822  0.00  0.00    +0.092 C 
ATOM      9  C   UNL     1      -2.211 -10.128  12.026  0.00  0.00    +0.097 C 
ATOM     10  C   UNL     1      -3.714 -12.024  12.266  0.00  0.00    +0.029 C 
ATOM     11  C   UNL     1      -4.191 -11.029  11.216  0.00  0.00    +0.085 C 
ENDROOT
BRANCH   8  13
ATOM      1  O   UNL     1      -3.603 -11.229  14.952  0.00  0.00    -0.420 OA
ATOM      6  N   UNL     1      -1.385 -10.991  15.122  0.00  0.00    -0.112 NA
ATOM      7  N   UNL     1      -1.928 -10.858  16.387  0.00  0.00    -0.107 NA
ATOM     13  C   UNL     1      -2.399 -11.206  14.316  0.00  0.00    +0.222 A 
ATOM     17  C   UNL     1      -3.224 -11.005  16.239  0.00  0.00    +0.248 A 
BRANCH  17  21
ATOM     21  C   UNL     1      -4.281 -10.966  17.207  0.00  0.00    +0.039 A 
ATOM     23  C   UNL     1      -5.442 -10.238  16.945  0.00  0.00    +0.017 A 
ATOM     24  C   UNL     1      -4.149 -11.657  18.412  0.00  0.00    +0.017 A 
ATOM     25  C   UNL     1      -6.470 -10.201  17.886  0.00  0.00    +0.046 A 
ATOM     26  C   UNL     1      -5.177 -11.620  19.354  0.00  0.00    +0.046 A 
ATOM     27  C   UNL     1      -6.338 -10.892  19.091  0.00  0.00    +0.120 A 
BRANCH  27   4
ATOM      4  O   UNL     1      -7.342 -10.858  20.008  0.00  0.00    -0.495 OA
ATOM     28  C   UNL     1      -8.647 -11.220  19.557  0.00  0.00    +0.277 C 
ENDBRANCH  27   4
ENDBRANCH  17  21
ENDBRANCH   8  13
BRANCH   5  12
ATOM     12  C   UNL     1      -3.185  -9.177  10.017  0.00  0.00    +0.119 C 
BRANCH  12  14
ATOM      2  O   UNL     1      -7.881  -7.882   9.138  0.00  0.00    -0.453 OA
ATOM      3  O   UNL     1      -8.049  -9.339   7.225  0.00  0.00    -0.453 OA
ATOM     14  C   UNL     1      -4.477  -9.246   9.245  0.00  0.00    -0.030 A 
ATOM     15  C   UNL     1      -5.564  -8.466   9.642  0.00  0.00    +0.054 A 
ATOM     16  C   UNL     1      -4.574 -10.096   8.130  0.00  0.00    +0.009 A 
ATOM     18  C   UNL     1      -6.726  -8.562   8.903  0.00  0.00    +0.167 A 
ATOM     19  C   UNL     1      -5.762 -10.175   7.398  0.00  0.00    +0.050 A 
ATOM     20  C   UNL     1      -6.821  -9.394   7.810  0.00  0.00    +0.166 A 
ATOM     22  C   UNL     1      -8.714  -8.380   8.072  0.00  0.00    +0.466 C 
ENDBRANCH  12  14
ENDBRANCH   5  12
TORSDOF 5
ENDMDL
MODEL 6
REMARK VINA RESULT:      -7.1     27.048     30.863
REMARK  Name = 51137502
REMARK  6 active torsions:
REMARK  status: ('A' for Active; 'I' for Inactive)
REMARK    1  A    between atoms: O_4  and  C_27
REMARK    2  A    between atoms: O_4  and  C_28
REMARK    3  A    between atoms: N_5  and  C_12
REMARK    4  A    between atoms: C_8  and  C_13
REMARK    5  A    between atoms: C_12  and  C_14
REMARK    6  A    between atoms: C_17  and  C_21
REMARK                            x       y       z     vdW  Elec       q    Type
REMARK                         _______ _______ _______ _____ _____    ______ ____
ROOT
ATOM      5  N   UNL     1     -14.448   6.676  21.629  0.00  0.00    -0.297 NA
ATOM      8  C   UNL     1     -16.119   5.198  22.355  0.00  0.00    +0.092 C 
ATOM      9  C   UNL     1     -14.744   5.242  21.673  0.00  0.00    +0.097 C 
ATOM     10  C   UNL     1     -16.187   6.497  23.177  0.00  0.00    +0.029 C 
ATOM     11  C   UNL     1     -14.848   7.185  22.940  0.00  0.00    +0.085 C 
ENDROOT
BRANCH   8  13
ATOM      1  O   UNL     1     -16.161   4.010  24.495  0.00  0.00    -0.420 OA
ATOM      6  N   UNL     1     -16.694   2.737  22.734  0.00  0.00    -0.112 NA
ATOM      7  N   UNL     1     -16.756   1.948  23.867  0.00  0.00    -0.107 NA
ATOM     13  C   UNL     1     -16.343   3.932  23.148  0.00  0.00    +0.222 A 
ATOM     17  C   UNL     1     -16.438   2.731  24.871  0.00  0.00    +0.248 A 
BRANCH  17  21
ATOM     21  C   UNL     1     -16.340   2.453  26.274  0.00  0.00    +0.039 A 
ATOM     23  C   UNL     1     -16.630   1.177  26.755  0.00  0.00    +0.017 A 
ATOM     24  C   UNL     1     -15.951   3.460  27.158  0.00  0.00    +0.017 A 
ATOM     25  C   UNL     1     -16.534   0.907  28.120  0.00  0.00    +0.046 A 
ATOM     26  C   UNL     1     -15.855   3.191  28.523  0.00  0.00    +0.046 A 
ATOM     27  C   UNL     1     -16.146   1.914  29.004  0.00  0.00    +0.120 A 
BRANCH  27   4
ATOM      4  O   UNL     1     -16.049   1.650  30.336  0.00  0.00    -0.495 OA
ATOM     28  C   UNL     1     -15.321   0.483  30.715  0.00  0.00    +0.277 C 
ENDBRANCH  27   4
ENDBRANCH  17  21
ENDBRANCH   8  13
BRANCH   5  12
ATOM     12  C   UNL     1     -13.049   6.945  21.332  0.00  0.00    +0.119 C 
BRANCH  12  14
ATOM      2  O   UNL     1     -10.292   7.990  17.357  0.00  0.00    -0.453 OA
ATOM      3  O   UNL     1     -12.202   8.711  16.074  0.00  0.00    -0.453 OA
ATOM     14  C   UNL     1     -12.858   7.426  19.918  0.00  0.00    -0.030 A 
ATOM     15  C   UNL     1     -11.578   7.450  19.361  0.00  0.00    +0.054 A 
ATOM     16  C   UNL     1     -13.972   7.847  19.170  0.00  0.00    +0.009 A 
ATOM     18  C   UNL     1     -11.453   7.897  18.061  0.00  0.00    +0.167 A 
ATOM     19  C   UNL     1     -13.818   8.295  17.856  0.00  0.00    +0.050 A 
ATOM     20  C   UNL     1     -12.544   8.308  17.329  0.00  0.00    +0.166 A 
ATOM     22  C   UNL     1     -10.775   8.506  16.099  0.00  0.00    +0.466 C 
ENDBRANCH  12  14
ENDBRANCH   5  12
TORSDOF 5
ENDMDL
MODEL 7
REMARK VINA RESULT:      -7.1     27.293     30.284
REMARK  Name = 51137502
REMARK  6 active torsions:
REMARK  status: ('A' for Active; 'I' for Inactive)
REMARK    1  A    between atoms: O_4  and  C_27
REMARK    2  A    between atoms: O_4  and  C_28
REMARK    3  A    between atoms: N_5  and  C_12
REMARK    4  A    between atoms: C_8  and  C_13
REMARK    5  A    between atoms: C_12  and  C_14
REMARK    6  A    between atoms: C_17  and  C_21
REMARK                            x       y       z     vdW  Elec       q    Type
REMARK                         _______ _______ _______ _____ _____    ______ ____
ROOT
ATOM      5  N   UNL     1      -2.260 -11.064  13.841  0.00  0.00    -0.297 NA
ATOM      8  C   UNL     1      -3.269 -10.292  15.813  0.00  0.00    +0.092 C 
ATOM      9  C   UNL     1      -3.587 -10.890  14.435  0.00  0.00    +0.097 C 
ATOM     10  C   UNL     1      -1.833 -10.757  16.115  0.00  0.00    +0.029 C 
ATOM     11  C   UNL     1      -1.432 -11.608  14.917  0.00  0.00    +0.085 C 
ENDROOT
BRANCH   8  13
ATOM      1  O   UNL     1      -5.537 -10.132  16.721  0.00  0.00    -0.420 OA
ATOM      6  N   UNL     1      -4.162 -11.424  17.923  0.00  0.00    -0.112 NA
ATOM      7  N   UNL     1      -5.398 -11.421  18.542  0.00  0.00    -0.107 NA
ATOM     13  C   UNL     1      -4.290 -10.658  16.864  0.00  0.00    +0.222 A 
ATOM     17  C   UNL     1      -6.169 -10.654  17.807  0.00  0.00    +0.248 A 
BRANCH  17  21
ATOM     21  C   UNL     1      -7.546 -10.291  17.967  0.00  0.00    +0.039 A 
ATOM     23  C   UNL     1      -8.090  -9.260  17.201  0.00  0.00    +0.017 A 
ATOM     24  C   UNL     1      -8.343 -10.970  18.890  0.00  0.00    +0.017 A 
ATOM     25  C   UNL     1      -9.430  -8.907  17.357  0.00  0.00    +0.046 A 
ATOM     26  C   UNL     1      -9.684 -10.616  19.046  0.00  0.00    +0.046 A 
ATOM     27  C   UNL     1     -10.227  -9.585  18.280  0.00  0.00    +0.120 A 
BRANCH  27   4
ATOM      4  O   UNL     1     -11.536  -9.243  18.430  0.00  0.00    -0.495 OA
ATOM     28  C   UNL     1     -12.243  -9.840  19.516  0.00  0.00    +0.277 C 
ENDBRANCH  27   4
ENDBRANCH  17  21
ENDBRANCH   8  13
BRANCH   5  12
ATOM     12  C   UNL     1      -2.286 -11.928  12.670  0.00  0.00    +0.119 C 
BRANCH  12  14
ATOM      2  O   UNL     1      -5.205 -11.808   8.675  0.00  0.00    -0.453 OA
ATOM      3  O   UNL     1      -4.683  -9.499   8.216  0.00  0.00    -0.453 OA
ATOM     14  C   UNL     1      -2.910 -11.245  11.482  0.00  0.00    -0.030 A 
ATOM     15  C   UNL     1      -3.787 -11.953  10.657  0.00  0.00    +0.054 A 
ATOM     16  C   UNL     1      -2.605  -9.898  11.215  0.00  0.00    +0.009 A 
ATOM     18  C   UNL     1      -4.336 -11.284   9.582  0.00  0.00    +0.167 A 
ATOM     19  C   UNL     1      -3.175  -9.244  10.119  0.00  0.00    +0.050 A 
ATOM     20  C   UNL     1      -4.038  -9.966   9.321  0.00  0.00    +0.166 A 
ATOM     22  C   UNL     1      -5.420 -10.671   7.813  0.00  0.00    +0.466 C 
ENDBRANCH  12  14
ENDBRANCH   5  12
TORSDOF 5
ENDMDL
MODEL 8
REMARK VINA RESULT:      -7.1      3.428      4.696
REMARK  Name = 51137502
REMARK  6 active torsions:
REMARK  status: ('A' for Active; 'I' for Inactive)
REMARK    1  A    between atoms: O_4  and  C_27
REMARK    2  A    between atoms: O_4  and  C_28
REMARK    3  A    between atoms: N_5  and  C_12
REMARK    4  A    between atoms: C_8  and  C_13
REMARK    5  A    between atoms: C_12  and  C_14
REMARK    6  A    between atoms: C_17  and  C_21
REMARK                            x       y       z     vdW  Elec       q    Type
REMARK                         _______ _______ _______ _____ _____    ______ ____
ROOT
ATOM      5  N   UNL     1      12.655   8.368  21.312  0.00  0.00    -0.297 NA
ATOM      8  C   UNL     1      14.544   6.978  21.315  0.00  0.00    +0.092 C 
ATOM      9  C   UNL     1      13.334   7.387  20.463  0.00  0.00    +0.097 C 
ATOM     10  C   UNL     1      14.784   8.176  22.250  0.00  0.00    +0.029 C 
ATOM     11  C   UNL     1      13.725   9.200  21.860  0.00  0.00    +0.085 C 
ENDROOT
BRANCH   8  13
ATOM      1  O   UNL     1      16.956   6.618  21.093  0.00  0.00    -0.420 OA
ATOM      6  N   UNL     1      15.791   6.168  19.237  0.00  0.00    -0.112 NA
ATOM      7  N   UNL     1      17.126   5.925  18.974  0.00  0.00    -0.107 NA
ATOM     13  C   UNL     1      15.738   6.571  20.484  0.00  0.00    +0.222 A 
ATOM     17  C   UNL     1      17.768   6.200  20.084  0.00  0.00    +0.248 A 
BRANCH  17  21
ATOM     21  C   UNL     1      19.167   6.130  20.393  0.00  0.00    +0.039 A 
ATOM     23  C   UNL     1      19.826   7.249  20.903  0.00  0.00    +0.017 A 
ATOM     24  C   UNL     1      19.868   4.942  20.185  0.00  0.00    +0.017 A 
ATOM     25  C   UNL     1      21.186   7.180  21.204  0.00  0.00    +0.046 A 
ATOM     26  C   UNL     1      21.229   4.873  20.485  0.00  0.00    +0.046 A 
ATOM     27  C   UNL     1      21.887   5.992  20.995  0.00  0.00    +0.120 A 
BRANCH  27   4
ATOM      4  O   UNL     1      23.214   5.925  21.291  0.00  0.00    -0.495 OA
ATOM     28  C   UNL     1      23.870   4.679  21.055  0.00  0.00    +0.277 C 
ENDBRANCH  27   4
ENDBRANCH  17  21
ENDBRANCH   8  13
BRANCH   5  12
ATOM     12  C   UNL     1      11.666   9.146  20.580  0.00  0.00    +0.119 C 
BRANCH  12  14
ATOM      2  O   UNL     1      14.333  10.952  16.822  0.00  0.00    -0.453 OA
ATOM      3  O   UNL     1      13.085   9.703  15.181  0.00  0.00    -0.453 OA
ATOM     14  C   UNL     1      12.019   9.273  19.122  0.00  0.00    -0.030 A 
ATOM     15  C   UNL     1      13.066  10.110  18.732  0.00  0.00    +0.054 A 
ATOM     16  C   UNL     1      11.291   8.544  18.165  0.00  0.00    +0.009 A 
ATOM     18  C   UNL     1      13.354  10.192  17.385  0.00  0.00    +0.167 A 
ATOM     19  C   UNL     1      11.602   8.645  16.807  0.00  0.00    +0.050 A 
ATOM     20  C   UNL     1      12.641   9.478  16.449  0.00  0.00    +0.166 A 
ATOM     22  C   UNL     1      14.156  10.637  15.426  0.00  0.00    +0.466 C 
ENDBRANCH  12  14
ENDBRANCH   5  12
TORSDOF 5
ENDMDL
MODEL 9
REMARK VINA RESULT:      -6.9     27.572     31.211
REMARK  Name = 51137502
REMARK  6 active torsions:
REMARK  status: ('A' for Active; 'I' for Inactive)
REMARK    1  A    between atoms: O_4  and  C_27
REMARK    2  A    between atoms: O_4  and  C_28
REMARK    3  A    between atoms: N_5  and  C_12
REMARK    4  A    between atoms: C_8  and  C_13
REMARK    5  A    between atoms: C_12  and  C_14
REMARK    6  A    between atoms: C_17  and  C_21
REMARK                            x       y       z     vdW  Elec       q    Type
REMARK                         _______ _______ _______ _____ _____    ______ ____
ROOT
ATOM      5  N   UNL     1     -15.170   5.496  22.419  0.00  0.00    -0.297 NA
ATOM      8  C   UNL     1     -16.085   3.650  23.539  0.00  0.00    +0.092 C 
ATOM      9  C   UNL     1     -15.055   4.778  23.690  0.00  0.00    +0.097 C 
ATOM     10  C   UNL     1     -17.099   4.183  22.512  0.00  0.00    +0.029 C 
ATOM     11  C   UNL     1     -16.607   5.583  22.162  0.00  0.00    +0.085 C 
ENDROOT
BRANCH   8  13
ATOM      1  O   UNL     1     -15.820   3.019  25.890  0.00  0.00    -0.420 OA
ATOM      6  N   UNL     1     -17.939   3.002  25.174  0.00  0.00    -0.112 NA
ATOM      7  N   UNL     1     -17.934   2.628  26.506  0.00  0.00    -0.107 NA
ATOM     13  C   UNL     1     -16.684   3.219  24.858  0.00  0.00    +0.222 A 
ATOM     17  C   UNL     1     -16.677   2.652  26.882  0.00  0.00    +0.248 A 
BRANCH  17  21
ATOM     21  C   UNL     1     -16.079   2.358  28.151  0.00  0.00    +0.039 A 
ATOM     23  C   UNL     1     -16.217   1.088  28.711  0.00  0.00    +0.017 A 
ATOM     24  C   UNL     1     -15.358   3.343  28.827  0.00  0.00    +0.017 A 
ATOM     25  C   UNL     1     -15.636   0.802  29.946  0.00  0.00    +0.046 A 
ATOM     26  C   UNL     1     -14.776   3.058  30.062  0.00  0.00    +0.046 A 
ATOM     27  C   UNL     1     -14.915   1.787  30.621  0.00  0.00    +0.120 A 
BRANCH  27   4
ATOM      4  O   UNL     1     -14.344   1.508  31.825  0.00  0.00    -0.495 OA
ATOM     28  C   UNL     1     -14.972   2.055  32.984  0.00  0.00    +0.277 C 
ENDBRANCH  27   4
ENDBRANCH  17  21
ENDBRANCH   8  13
BRANCH   5  12
ATOM     12  C   UNL     1     -14.534   6.804  22.461  0.00  0.00    +0.119 C 
BRANCH  12  14
ATOM      2  O   UNL     1     -13.914   8.484  17.847  0.00  0.00    -0.453 OA
ATOM      3  O   UNL     1     -11.588   7.853  17.803  0.00  0.00    -0.453 OA
ATOM     14  C   UNL     1     -13.714   7.070  21.226  0.00  0.00    -0.030 A 
ATOM     15  C   UNL     1     -14.306   7.680  20.119  0.00  0.00    +0.054 A 
ATOM     16  C   UNL     1     -12.357   6.701  21.201  0.00  0.00    +0.009 A 
ATOM     18  C   UNL     1     -13.513   7.905  19.011  0.00  0.00    +0.167 A 
ATOM     19  C   UNL     1     -11.577   6.939  20.067  0.00  0.00    +0.050 A 
ATOM     20  C   UNL     1     -12.185   7.544  18.987  0.00  0.00    +0.166 A 
ATOM     22  C   UNL     1     -12.688   8.447  17.086  0.00  0.00    +0.466 C 
ENDBRANCH  12  14
ENDBRANCH   5  12
TORSDOF 5
ENDMDL
MODEL 10
REMARK VINA RESULT:      -6.7     28.169     30.317
REMARK  Name = 51137502
REMARK  6 active torsions:
REMARK  status: ('A' for Active; 'I' for Inactive)
REMARK    1  A    between atoms: O_4  and  C_27
REMARK    2  A    between atoms: O_4  and  C_28
REMARK    3  A    between atoms: N_5  and  C_12
REMARK    4  A    between atoms: C_8  and  C_13
REMARK    5  A    between atoms: C_12  and  C_14
REMARK    6  A    between atoms: C_17  and  C_21
REMARK                            x       y       z     vdW  Elec       q    Type
REMARK                         _______ _______ _______ _____ _____    ______ ____
ROOT
ATOM      5  N   UNL     1      -9.997  -6.350   7.584  0.00  0.00    -0.297 NA
ATOM      8  C   UNL     1      -7.849  -7.262   7.813  0.00  0.00    +0.092 C 
ATOM      9  C   UNL     1      -9.161  -7.030   8.575  0.00  0.00    +0.097 C 
ATOM     10  C   UNL     1      -8.257  -7.273   6.330  0.00  0.00    +0.029 C 
ATOM     11  C   UNL     1      -9.768  -7.076   6.334  0.00  0.00    +0.085 C 
ENDROOT
BRANCH   8  13
ATOM      1  O   UNL     1      -6.157  -8.318   9.235  0.00  0.00    -0.420 OA
ATOM      6  N   UNL     1      -7.241  -9.743   7.894  0.00  0.00    -0.112 NA
ATOM      7  N   UNL     1      -6.323 -10.465   8.634  0.00  0.00    -0.107 NA
ATOM     13  C   UNL     1      -7.109  -8.495   8.277  0.00  0.00    +0.222 A 
ATOM     17  C   UNL     1      -5.714  -9.593   9.402  0.00  0.00    +0.248 A 
BRANCH  17  21
ATOM     21  C   UNL     1      -4.674  -9.774  10.372  0.00  0.00    +0.039 A 
ATOM     23  C   UNL     1      -4.980 -10.265  11.642  0.00  0.00    +0.017 A 
ATOM     24  C   UNL     1      -3.354  -9.460  10.047  0.00  0.00    +0.017 A 
ATOM     25  C   UNL     1      -3.969 -10.441  12.585  0.00  0.00    +0.046 A 
ATOM     26  C   UNL     1      -2.342  -9.636  10.990  0.00  0.00    +0.046 A 
ATOM     27  C   UNL     1      -2.649 -10.127  12.259  0.00  0.00    +0.120 A 
BRANCH  27   4
ATOM      4  O   UNL     1      -1.661 -10.302  13.179  0.00  0.00    -0.495 OA
ATOM     28  C   UNL     1      -2.064 -10.584  14.519  0.00  0.00    +0.277 C 
ENDBRANCH  27   4
ENDBRANCH  17  21
ENDBRANCH   8  13
BRANCH   5  12
ATOM     12  C   UNL     1     -11.402  -6.328   7.963  0.00  0.00    +0.119 C 
BRANCH  12  14
ATOM      2  O   UNL     1     -12.774  -5.544  12.653  0.00  0.00    -0.453 OA
ATOM      3  O   UNL     1     -12.348  -3.176  12.506  0.00  0.00    -0.453 OA
ATOM     14  C   UNL     1     -11.646  -5.452   9.163  0.00  0.00    -0.030 A 
ATOM     15  C   UNL     1     -12.115  -6.018  10.350  0.00  0.00    +0.054 A 
ATOM     16  C   UNL     1     -11.397  -4.071   9.077  0.00  0.00    +0.009 A 
ATOM     18  C   UNL     1     -12.322  -5.175  11.423  0.00  0.00    +0.167 A 
ATOM     19  C   UNL     1     -11.615  -3.240  10.178  0.00  0.00    +0.050 A 
ATOM     20  C   UNL     1     -12.078  -3.823  11.339  0.00  0.00    +0.166 A 
ATOM     22  C   UNL     1     -12.787  -4.272  13.333  0.00  0.00    +0.466 C 
ENDBRANCH  12  14
ENDBRANCH   5  12
TORSDOF 5
ENDMDL
