MODEL 1
REMARK VINA RESULT:      -6.7      0.000      0.000
REMARK  Name = 51138043
REMARK  12 active torsions:
REMARK  status: ('A' for Active; 'I' for Inactive)
REMARK    1  A    between atoms: N_3  and  C_20
REMARK    2  A    between atoms: N_4  and  C_25
REMARK    3  A    between atoms: N_5  and  C_26
REMARK    4  A    between atoms: N_5  and  C_31
REMARK    5  A    between atoms: N_5  and  C_32
REMARK    6  A    between atoms: C_7  and  C_11
REMARK    7  A    between atoms: C_10  and  C_18
REMARK    8  A    between atoms: C_11  and  C_15
REMARK    9  A    between atoms: C_15  and  C_22
REMARK   10  A    between atoms: C_15  and  C_23
REMARK   11  A    between atoms: C_20  and  C_24
REMARK   12  A    between atoms: C_25  and  C_26
REMARK                            x       y       z     vdW  Elec       q    Type
REMARK                         _______ _______ _______ _____ _____    ______ ____
ROOT
ATOM      2  N   UNL     1      -6.939 -11.036  16.183  0.00  0.00    -0.299 NA
ATOM      3  N   UNL     1      -4.142 -10.032  12.101  0.00  0.00    -0.342 N 
ATOM      7  C   UNL     1      -5.546 -11.027  16.648  0.00  0.00    +0.085 C 
ATOM      8  C   UNL     1      -4.476 -10.924  15.556  0.00  0.00    -0.021 A 
ATOM      9  C   UNL     1      -4.712 -10.507  14.214  0.00  0.00    +0.008 A 
ATOM     10  C   UNL     1      -7.367  -9.813  15.521  0.00  0.00    +0.145 C 
ATOM     12  C   UNL     1      -5.877 -10.074  13.492  0.00  0.00    -0.020 A 
ATOM     13  C   UNL     1      -7.273  -9.935  14.001  0.00  0.00    +0.065 C 
ATOM     14  C   UNL     1      -3.642 -10.442  13.314  0.00  0.00    +0.050 A 
ATOM     16  C   UNL     1      -5.482  -9.802  12.197  0.00  0.00    +0.091 A 
ATOM     17  C   UNL     1      -3.126 -11.185  15.901  0.00  0.00    +0.006 A 
ATOM     19  C   UNL     1      -2.325 -10.749  13.662  0.00  0.00    +0.026 A 
ATOM     21  C   UNL     1      -2.082 -11.111  14.980  0.00  0.00    +0.002 A 
ATOM     33  H   UNL     1      -7.124 -11.853  15.603  0.00  0.00    +0.123 HD
ENDROOT
BRANCH  10  18
ATOM      1  O   UNL     1      -9.370 -10.421  16.668  0.00  0.00    -0.274 OA
ATOM      4  N   UNL     1      -9.379  -8.533  15.305  0.00  0.00    -0.313 N 
ATOM     18  C   UNL     1      -8.804  -9.637  15.911  0.00  0.00    +0.230 C 
ATOM     34  H   UNL     1      -8.812  -7.941  14.705  0.00  0.00    +0.149 HD
BRANCH   4  25
ATOM     25  C   UNL     1     -10.761  -8.156  15.499  0.00  0.00    +0.119 C 
BRANCH  25  26
ATOM     26  C   UNL     1     -10.874  -6.865  16.296  0.00  0.00    +0.102 C 
BRANCH  26   5
ATOM      5  N   UNL     1     -12.017  -6.086  15.839  0.00  0.00    -0.307 NA
ATOM     31  C   UNL     1     -11.810  -5.622  14.466  0.00  0.00    +0.104 C 
ATOM     32  C   UNL     1     -13.248  -6.875  15.928  0.00  0.00    +0.104 C 
ENDBRANCH  26   5
ENDBRANCH  25  26
ENDBRANCH   4  25
ENDBRANCH  10  18
BRANCH   7  11
ATOM     11  C   UNL     1      -5.407 -12.307  17.491  0.00  0.00    +0.026 C 
BRANCH  11  15
ATOM     15  C   UNL     1      -5.208 -12.023  18.983  0.00  0.00    -0.015 C 
ATOM     22  C   UNL     1      -5.750 -10.629  19.307  0.00  0.00    +0.007 C 
ATOM     23  C   UNL     1      -3.743 -12.121  19.411  0.00  0.00    +0.007 C 
ENDBRANCH  11  15
ENDBRANCH   7  11
BRANCH   3  20
ATOM     20  C   UNL     1      -3.369  -9.846  10.891  0.00  0.00    +0.157 C 
BRANCH  20  24
ATOM      6  N   UNL     1      -5.121 -11.732   7.441  0.00  0.00    -0.263 NA
ATOM     24  C   UNL     1      -3.983 -10.507   9.682  0.00  0.00    -0.025 A 
ATOM     27  C   UNL     1      -4.538  -9.733   8.668  0.00  0.00    +0.025 A 
ATOM     28  C   UNL     1      -3.997 -11.893   9.575  0.00  0.00    +0.025 A 
ATOM     29  C   UNL     1      -5.089 -10.388   7.579  0.00  0.00    +0.111 A 
ATOM     30  C   UNL     1      -4.572 -12.452   8.445  0.00  0.00    +0.111 A 
ENDBRANCH  20  24
ENDBRANCH   3  20
TORSDOF 8
ENDMDL
MODEL 2
REMARK VINA RESULT:      -6.7      2.478      4.044
REMARK  Name = 51138043
REMARK  12 active torsions:
REMARK  status: ('A' for Active; 'I' for Inactive)
REMARK    1  A    between atoms: N_3  and  C_20
REMARK    2  A    between atoms: N_4  and  C_25
REMARK    3  A    between atoms: N_5  and  C_26
REMARK    4  A    between atoms: N_5  and  C_31
REMARK    5  A    between atoms: N_5  and  C_32
REMARK    6  A    between atoms: C_7  and  C_11
REMARK    7  A    between atoms: C_10  and  C_18
REMARK    8  A    between atoms: C_11  and  C_15
REMARK    9  A    between atoms: C_15  and  C_22
REMARK   10  A    between atoms: C_15  and  C_23
REMARK   11  A    between atoms: C_20  and  C_24
REMARK   12  A    between atoms: C_25  and  C_26
REMARK                            x       y       z     vdW  Elec       q    Type
REMARK                         _______ _______ _______ _____ _____    ______ ____
ROOT
ATOM      2  N   UNL     1      -9.032 -10.478  17.858  0.00  0.00    -0.299 NA
ATOM      3  N   UNL     1      -4.217 -10.525  16.338  0.00  0.00    -0.342 N 
ATOM      7  C   UNL     1      -8.244 -10.835  19.045  0.00  0.00    +0.085 C 
ATOM      8  C   UNL     1      -6.754 -11.097  18.805  0.00  0.00    -0.021 A 
ATOM      9  C   UNL     1      -6.029 -10.704  17.642  0.00  0.00    +0.008 A 
ATOM     10  C   UNL     1      -8.650  -9.221  17.230  0.00  0.00    +0.145 C 
ATOM     12  C   UNL     1      -6.377 -10.001  16.437  0.00  0.00    -0.020 A 
ATOM     13  C   UNL     1      -7.708  -9.448  16.050  0.00  0.00    +0.065 C 
ATOM     14  C   UNL     1      -4.662 -10.992  17.552  0.00  0.00    +0.050 A 
ATOM     16  C   UNL     1      -5.236  -9.923  15.663  0.00  0.00    +0.091 A 
ATOM     17  C   UNL     1      -5.997 -11.708  19.836  0.00  0.00    +0.006 A 
ATOM     19  C   UNL     1      -3.944 -11.638  18.560  0.00  0.00    +0.026 A 
ATOM     21  C   UNL     1      -4.635 -11.981  19.714  0.00  0.00    +0.002 A 
ATOM     33  H   UNL     1      -9.039 -11.240  17.182  0.00  0.00    +0.123 HD
ENDROOT
BRANCH  10  18
ATOM      1  O   UNL     1     -10.729  -9.280  16.060  0.00  0.00    -0.274 OA
ATOM      4  N   UNL     1     -10.068  -7.297  17.085  0.00  0.00    -0.313 N 
ATOM     18  C   UNL     1      -9.931  -8.628  16.728  0.00  0.00    +0.230 C 
ATOM     34  H   UNL     1      -9.351  -6.858  17.655  0.00  0.00    +0.149 HD
BRANCH   4  25
ATOM     25  C   UNL     1     -11.204  -6.489  16.705  0.00  0.00    +0.119 C 
BRANCH  25  26
ATOM     26  C   UNL     1     -11.007  -5.874  15.327  0.00  0.00    +0.102 C 
BRANCH  26   5
ATOM      5  N   UNL     1     -12.141  -6.185  14.466  0.00  0.00    -0.307 NA
ATOM     31  C   UNL     1     -13.297  -6.597  15.264  0.00  0.00    +0.104 C 
ATOM     32  C   UNL     1     -12.485  -5.032  13.631  0.00  0.00    +0.104 C 
ENDBRANCH  26   5
ENDBRANCH  25  26
ENDBRANCH   4  25
ENDBRANCH  10  18
BRANCH   7  11
ATOM     11  C   UNL     1      -8.969 -12.055  19.641  0.00  0.00    +0.026 C 
BRANCH  11  15
ATOM     15  C   UNL     1      -9.546 -12.989  18.572  0.00  0.00    -0.015 C 
ATOM     22  C   UNL     1     -10.984 -13.356  18.946  0.00  0.00    +0.007 C 
ATOM     23  C   UNL     1      -8.717 -14.262  18.394  0.00  0.00    +0.007 C 
ENDBRANCH  11  15
ENDBRANCH   7  11
BRANCH   3  20
ATOM     20  C   UNL     1      -2.862 -10.630  15.840  0.00  0.00    +0.157 C 
BRANCH  20  24
ATOM      6  N   UNL     1      -2.584 -12.681  12.066  0.00  0.00    -0.263 NA
ATOM     24  C   UNL     1      -2.765 -11.349  14.517  0.00  0.00    -0.025 A 
ATOM     27  C   UNL     1      -2.303 -10.678  13.390  0.00  0.00    +0.025 A 
ATOM     28  C   UNL     1      -3.136 -12.685  14.420  0.00  0.00    +0.025 A 
ATOM     29  C   UNL     1      -2.232 -11.382  12.199  0.00  0.00    +0.111 A 
ATOM     30  C   UNL     1      -3.028 -13.300  13.183  0.00  0.00    +0.111 A 
ENDBRANCH  20  24
ENDBRANCH   3  20
TORSDOF 8
ENDMDL
MODEL 3
REMARK VINA RESULT:      -6.6     28.689     31.429
REMARK  Name = 51138043
REMARK  12 active torsions:
REMARK  status: ('A' for Active; 'I' for Inactive)
REMARK    1  A    between atoms: N_3  and  C_20
REMARK    2  A    between atoms: N_4  and  C_25
REMARK    3  A    between atoms: N_5  and  C_26
REMARK    4  A    between atoms: N_5  and  C_31
REMARK    5  A    between atoms: N_5  and  C_32
REMARK    6  A    between atoms: C_7  and  C_11
REMARK    7  A    between atoms: C_10  and  C_18
REMARK    8  A    between atoms: C_11  and  C_15
REMARK    9  A    between atoms: C_15  and  C_22
REMARK   10  A    between atoms: C_15  and  C_23
REMARK   11  A    between atoms: C_20  and  C_24
REMARK   12  A    between atoms: C_25  and  C_26
REMARK                            x       y       z     vdW  Elec       q    Type
REMARK                         _______ _______ _______ _____ _____    ______ ____
ROOT
ATOM      2  N   UNL     1      19.597   8.204  21.208  0.00  0.00    -0.299 NA
ATOM      3  N   UNL     1      14.815   7.428  19.783  0.00  0.00    -0.342 N 
ATOM      7  C   UNL     1      18.855   9.395  21.641  0.00  0.00    +0.085 C 
ATOM      8  C   UNL     1      17.402   9.489  21.163  0.00  0.00    -0.021 A 
ATOM      9  C   UNL     1      16.637   8.404  20.645  0.00  0.00    +0.008 A 
ATOM     10  C   UNL     1      19.078   6.944  21.718  0.00  0.00    +0.145 C 
ATOM     12  C   UNL     1      16.904   7.009  20.424  0.00  0.00    -0.020 A 
ATOM     13  C   UNL     1      18.165   6.260  20.702  0.00  0.00    +0.065 C 
ATOM     14  C   UNL     1      15.310   8.621  20.254  0.00  0.00    +0.050 A 
ATOM     16  C   UNL     1      15.761   6.452  19.885  0.00  0.00    +0.091 A 
ATOM     17  C   UNL     1      16.719  10.723  21.307  0.00  0.00    +0.006 A 
ATOM     19  C   UNL     1      14.670   9.856  20.361  0.00  0.00    +0.026 A 
ATOM     21  C   UNL     1      15.396  10.905  20.908  0.00  0.00    +0.002 A 
ATOM     33  H   UNL     1      19.688   8.181  20.193  0.00  0.00    +0.123 HD
ENDROOT
BRANCH  10  18
ATOM      1  O   UNL     1      20.722   5.872  23.075  0.00  0.00    -0.274 OA
ATOM      4  N   UNL     1      20.823   5.612  20.763  0.00  0.00    -0.313 N 
ATOM     18  C   UNL     1      20.285   6.086  21.948  0.00  0.00    +0.230 C 
ATOM     34  H   UNL     1      20.370   5.838  19.883  0.00  0.00    +0.149 HD
BRANCH   4  25
ATOM     25  C   UNL     1      22.003   4.780  20.709  0.00  0.00    +0.119 C 
BRANCH  25  26
ATOM     26  C   UNL     1      21.710   3.374  21.213  0.00  0.00    +0.102 C 
BRANCH  26   5
ATOM      5  N   UNL     1      22.909   2.783  21.794  0.00  0.00    -0.307 NA
ATOM     31  C   UNL     1      23.897   2.491  20.753  0.00  0.00    +0.104 C 
ATOM     32  C   UNL     1      23.485   3.673  22.804  0.00  0.00    +0.104 C 
ENDBRANCH  26   5
ENDBRANCH  25  26
ENDBRANCH   4  25
ENDBRANCH  10  18
BRANCH   7  11
ATOM     11  C   UNL     1      19.710  10.583  21.166  0.00  0.00    +0.026 C 
BRANCH  11  15
ATOM     15  C   UNL     1      20.417  11.308  22.316  0.00  0.00    -0.015 C 
ATOM     22  C   UNL     1      21.849  10.781  22.441  0.00  0.00    +0.007 C 
ATOM     23  C   UNL     1      19.688  11.146  23.651  0.00  0.00    +0.007 C 
ENDBRANCH  11  15
ENDBRANCH   7  11
BRANCH   3  20
ATOM     20  C   UNL     1      13.480   7.216  19.267  0.00  0.00    +0.157 C 
BRANCH  20  24
ATOM      6  N   UNL     1      12.783   9.148  15.485  0.00  0.00    -0.263 NA
ATOM     24  C   UNL     1      13.235   7.893  17.942  0.00  0.00    -0.025 A 
ATOM     27  C   UNL     1      12.003   8.481  17.674  0.00  0.00    +0.025 A 
ATOM     28  C   UNL     1      14.241   7.933  16.982  0.00  0.00    +0.025 A 
ATOM     29  C   UNL     1      11.830   9.090  16.442  0.00  0.00    +0.111 A 
ATOM     30  C   UNL     1      13.967   8.567  15.781  0.00  0.00    +0.111 A 
ENDBRANCH  20  24
ENDBRANCH   3  20
TORSDOF 8
ENDMDL
MODEL 4
REMARK VINA RESULT:      -6.6     19.283     24.378
REMARK  Name = 51138043
REMARK  12 active torsions:
REMARK  status: ('A' for Active; 'I' for Inactive)
REMARK    1  A    between atoms: N_3  and  C_20
REMARK    2  A    between atoms: N_4  and  C_25
REMARK    3  A    between atoms: N_5  and  C_26
REMARK    4  A    between atoms: N_5  and  C_31
REMARK    5  A    between atoms: N_5  and  C_32
REMARK    6  A    between atoms: C_7  and  C_11
REMARK    7  A    between atoms: C_10  and  C_18
REMARK    8  A    between atoms: C_11  and  C_15
REMARK    9  A    between atoms: C_15  and  C_22
REMARK   10  A    between atoms: C_15  and  C_23
REMARK   11  A    between atoms: C_20  and  C_24
REMARK   12  A    between atoms: C_25  and  C_26
REMARK                            x       y       z     vdW  Elec       q    Type
REMARK                         _______ _______ _______ _____ _____    ______ ____
ROOT
ATOM      2  N   UNL     1     -15.389   2.857  28.832  0.00  0.00    -0.299 NA
ATOM      3  N   UNL     1     -15.549   6.497  32.329  0.00  0.00    -0.342 N 
ATOM      7  C   UNL     1     -15.187   2.181  30.120  0.00  0.00    +0.085 C 
ATOM      8  C   UNL     1     -15.009   3.095  31.336  0.00  0.00    -0.021 A 
ATOM      9  C   UNL     1     -15.353   4.478  31.380  0.00  0.00    +0.008 A 
ATOM     10  C   UNL     1     -16.613   3.640  28.743  0.00  0.00    +0.145 C 
ATOM     12  C   UNL     1     -15.929   5.395  30.434  0.00  0.00    -0.020 A 
ATOM     13  C   UNL     1     -16.355   5.118  29.030  0.00  0.00    +0.065 C 
ATOM     14  C   UNL     1     -15.154   5.201  32.562  0.00  0.00    +0.050 A 
ATOM     16  C   UNL     1     -16.021   6.624  31.057  0.00  0.00    +0.091 A 
ATOM     17  C   UNL     1     -14.539   2.530  32.549  0.00  0.00    +0.006 A 
ATOM     19  C   UNL     1     -14.645   4.635  33.732  0.00  0.00    +0.026 A 
ATOM     21  C   UNL     1     -14.352   3.278  33.709  0.00  0.00    +0.002 A 
ATOM     33  H   UNL     1     -14.575   3.416  28.582  0.00  0.00    +0.123 HD
ENDROOT
BRANCH  10  18
ATOM      1  O   UNL     1     -18.264   3.428  27.033  0.00  0.00    -0.274 OA
ATOM      4  N   UNL     1     -16.013   3.412  26.436  0.00  0.00    -0.313 N 
ATOM     18  C   UNL     1     -17.073   3.490  27.324  0.00  0.00    +0.230 C 
ATOM     34  H   UNL     1     -15.063   3.491  26.785  0.00  0.00    +0.149 HD
BRANCH   4  25
ATOM     25  C   UNL     1     -16.188   3.243  25.011  0.00  0.00    +0.119 C 
BRANCH  25  26
ATOM     26  C   UNL     1     -15.208   4.104  24.229  0.00  0.00    +0.102 C 
BRANCH  26   5
ATOM      5  N   UNL     1     -15.546   4.098  22.812  0.00  0.00    -0.307 NA
ATOM     31  C   UNL     1     -16.984   4.297  22.623  0.00  0.00    +0.104 C 
ATOM     32  C   UNL     1     -14.793   5.130  22.097  0.00  0.00    +0.104 C 
ENDBRANCH  26   5
ENDBRANCH  25  26
ENDBRANCH   4  25
ENDBRANCH  10  18
BRANCH   7  11
ATOM     11  C   UNL     1     -13.973   1.262  29.891  0.00  0.00    +0.026 C 
BRANCH  11  15
ATOM     15  C   UNL     1     -14.361  -0.210  29.720  0.00  0.00    -0.015 C 
ATOM     22  C   UNL     1     -15.146  -0.671  30.951  0.00  0.00    +0.007 C 
ATOM     23  C   UNL     1     -13.148  -1.118  29.510  0.00  0.00    +0.007 C 
ENDBRANCH  11  15
ENDBRANCH   7  11
BRANCH   3  20
ATOM     20  C   UNL     1     -15.497   7.579  33.289  0.00  0.00    +0.157 C 
BRANCH  20  24
ATOM      6  N   UNL     1     -11.559   9.250  33.766  0.00  0.00    -0.263 NA
ATOM     24  C   UNL     1     -14.117   8.164  33.456  0.00  0.00    -0.025 A 
ATOM     27  C   UNL     1     -13.543   8.252  34.720  0.00  0.00    +0.025 A 
ATOM     28  C   UNL     1     -13.412   8.618  32.347  0.00  0.00    +0.025 A 
ATOM     29  C   UNL     1     -12.274   8.798  34.820  0.00  0.00    +0.111 A 
ATOM     30  C   UNL     1     -12.148   9.147  32.553  0.00  0.00    +0.111 A 
ENDBRANCH  20  24
ENDBRANCH   3  20
TORSDOF 8
ENDMDL
MODEL 5
REMARK VINA RESULT:      -6.4     18.946     21.445
REMARK  Name = 51138043
REMARK  12 active torsions:
REMARK  status: ('A' for Active; 'I' for Inactive)
REMARK    1  A    between atoms: N_3  and  C_20
REMARK    2  A    between atoms: N_4  and  C_25
REMARK    3  A    between atoms: N_5  and  C_26
REMARK    4  A    between atoms: N_5  and  C_31
REMARK    5  A    between atoms: N_5  and  C_32
REMARK    6  A    between atoms: C_7  and  C_11
REMARK    7  A    between atoms: C_10  and  C_18
REMARK    8  A    between atoms: C_11  and  C_15
REMARK    9  A    between atoms: C_15  and  C_22
REMARK   10  A    between atoms: C_15  and  C_23
REMARK   11  A    between atoms: C_20  and  C_24
REMARK   12  A    between atoms: C_25  and  C_26
REMARK                            x       y       z     vdW  Elec       q    Type
REMARK                         _______ _______ _______ _____ _____    ______ ____
ROOT
ATOM      2  N   UNL     1     -14.824   7.669  23.240  0.00  0.00    -0.299 NA
ATOM      3  N   UNL     1     -11.075   8.771  20.043  0.00  0.00    -0.342 N 
ATOM      7  C   UNL     1     -14.991   9.089  22.906  0.00  0.00    +0.085 C 
ATOM      8  C   UNL     1     -13.862   9.721  22.085  0.00  0.00    -0.021 A 
ATOM      9  C   UNL     1     -12.874   8.998  21.356  0.00  0.00    +0.008 A 
ATOM     10  C   UNL     1     -14.810   6.772  22.094  0.00  0.00    +0.145 C 
ATOM     12  C   UNL     1     -12.617   7.600  21.138  0.00  0.00    -0.020 A 
ATOM     13  C   UNL     1     -13.383   6.433  21.665  0.00  0.00    +0.065 C 
ATOM     14  C   UNL     1     -11.902   9.697  20.632  0.00  0.00    +0.050 A 
ATOM     16  C   UNL     1     -11.498   7.508  20.334  0.00  0.00    +0.091 A 
ATOM     17  C   UNL     1     -13.819  11.133  21.964  0.00  0.00    +0.006 A 
ATOM     19  C   UNL     1     -11.849  11.090  20.564  0.00  0.00    +0.026 A 
ATOM     21  C   UNL     1     -12.836  11.799  21.234  0.00  0.00    +0.002 A 
ATOM     33  H   UNL     1     -14.006   7.527  23.829  0.00  0.00    +0.123 HD
ENDROOT
BRANCH  10  18
ATOM      1  O   UNL     1     -15.710   4.581  21.807  0.00  0.00    -0.274 OA
ATOM      4  N   UNL     1     -15.842   5.589  23.902  0.00  0.00    -0.313 N 
ATOM     18  C   UNL     1     -15.491   5.522  22.564  0.00  0.00    +0.230 C 
ATOM     34  H   UNL     1     -15.597   6.413  24.441  0.00  0.00    +0.149 HD
BRANCH   4  25
ATOM     25  C   UNL     1     -16.530   4.521  24.591  0.00  0.00    +0.119 C 
BRANCH  25  26
ATOM     26  C   UNL     1     -15.583   3.376  24.918  0.00  0.00    +0.102 C 
BRANCH  26   5
ATOM      5  N   UNL     1     -16.229   2.095  24.658  0.00  0.00    -0.307 NA
ATOM     31  C   UNL     1     -16.616   1.449  25.913  0.00  0.00    +0.104 C 
ATOM     32  C   UNL     1     -17.399   2.273  23.796  0.00  0.00    +0.104 C 
ENDBRANCH  26   5
ENDBRANCH  25  26
ENDBRANCH   4  25
ENDBRANCH  10  18
BRANCH   7  11
ATOM     11  C   UNL     1     -15.196   9.787  24.262  0.00  0.00    +0.026 C 
BRANCH  11  15
ATOM     15  C   UNL     1     -16.556  10.485  24.376  0.00  0.00    -0.015 C 
ATOM     22  C   UNL     1     -17.381  10.189  23.122  0.00  0.00    +0.007 C 
ATOM     23  C   UNL     1     -16.427  11.997  24.566  0.00  0.00    +0.007 C 
ENDBRANCH  11  15
ENDBRANCH   7  11
BRANCH   3  20
ATOM     20  C   UNL     1      -9.929   9.073  19.212  0.00  0.00    +0.157 C 
BRANCH  20  24
ATOM      6  N   UNL     1     -10.921   9.596  15.057  0.00  0.00    -0.263 NA
ATOM     24  C   UNL     1     -10.276   9.256  17.756  0.00  0.00    -0.025 A 
ATOM     27  C   UNL     1     -10.369  10.534  17.215  0.00  0.00    +0.025 A 
ATOM     28  C   UNL     1     -10.505   8.148  16.948  0.00  0.00    +0.025 A 
ATOM     29  C   UNL     1     -10.691  10.649  15.873  0.00  0.00    +0.111 A 
ATOM     30  C   UNL     1     -10.820   8.369  15.617  0.00  0.00    +0.111 A 
ENDBRANCH  20  24
ENDBRANCH   3  20
TORSDOF 8
ENDMDL
MODEL 6
REMARK VINA RESULT:      -6.4     28.887     31.748
REMARK  Name = 51138043
REMARK  12 active torsions:
REMARK  status: ('A' for Active; 'I' for Inactive)
REMARK    1  A    between atoms: N_3  and  C_20
REMARK    2  A    between atoms: N_4  and  C_25
REMARK    3  A    between atoms: N_5  and  C_26
REMARK    4  A    between atoms: N_5  and  C_31
REMARK    5  A    between atoms: N_5  and  C_32
REMARK    6  A    between atoms: C_7  and  C_11
REMARK    7  A    between atoms: C_10  and  C_18
REMARK    8  A    between atoms: C_11  and  C_15
REMARK    9  A    between atoms: C_15  and  C_22
REMARK   10  A    between atoms: C_15  and  C_23
REMARK   11  A    between atoms: C_20  and  C_24
REMARK   12  A    between atoms: C_25  and  C_26
REMARK                            x       y       z     vdW  Elec       q    Type
REMARK                         _______ _______ _______ _____ _____    ______ ____
ROOT
ATOM      2  N   UNL     1      19.828   8.440  21.552  0.00  0.00    -0.299 NA
ATOM      3  N   UNL     1      15.300   7.560  19.499  0.00  0.00    -0.342 N 
ATOM      7  C   UNL     1      19.073   9.690  21.705  0.00  0.00    +0.085 C 
ATOM      8  C   UNL     1      17.716   9.744  20.994  0.00  0.00    -0.021 A 
ATOM      9  C   UNL     1      17.001   8.612  20.506  0.00  0.00    +0.008 A 
ATOM     10  C   UNL     1      19.190   7.268  22.132  0.00  0.00    +0.145 C 
ATOM     12  C   UNL     1      17.246   7.196  20.512  0.00  0.00    -0.020 A 
ATOM     13  C   UNL     1      18.420   6.471  21.081  0.00  0.00    +0.065 C 
ATOM     14  C   UNL     1      15.760   8.797  19.885  0.00  0.00    +0.050 A 
ATOM     16  C   UNL     1      16.181   6.591  19.875  0.00  0.00    +0.091 A 
ATOM     17  C   UNL     1      17.065  10.997  20.868  0.00  0.00    +0.006 A 
ATOM     19  C   UNL     1      15.157  10.046  19.728  0.00  0.00    +0.026 A 
ATOM     21  C   UNL     1      15.828  11.147  20.244  0.00  0.00    +0.002 A 
ATOM     33  H   UNL     1      20.074   8.281  20.576  0.00  0.00    +0.123 HD
ENDROOT
BRANCH  10  18
ATOM      1  O   UNL     1      20.452   6.211  23.859  0.00  0.00    -0.274 OA
ATOM      4  N   UNL     1      21.147   5.976  21.649  0.00  0.00    -0.313 N 
ATOM     18  C   UNL     1      20.314   6.429  22.658  0.00  0.00    +0.230 C 
ATOM     34  H   UNL     1      20.930   6.204  20.684  0.00  0.00    +0.149 HD
BRANCH   4  25
ATOM     25  C   UNL     1      22.317   5.165  21.895  0.00  0.00    +0.119 C 
BRANCH  25  26
ATOM     26  C   UNL     1      22.523   4.143  20.787  0.00  0.00    +0.102 C 
BRANCH  26   5
ATOM      5  N   UNL     1      23.848   3.546  20.889  0.00  0.00    -0.307 NA
ATOM     31  C   UNL     1      23.757   2.085  20.897  0.00  0.00    +0.104 C 
ATOM     32  C   UNL     1      24.702   3.995  19.787  0.00  0.00    +0.104 C 
ENDBRANCH  26   5
ENDBRANCH  25  26
ENDBRANCH   4  25
ENDBRANCH  10  18
BRANCH   7  11
ATOM     11  C   UNL     1      20.035  10.790  21.222  0.00  0.00    +0.026 C 
BRANCH  11  15
ATOM     15  C   UNL     1      20.396  11.794  22.322  0.00  0.00    -0.015 C 
ATOM     22  C   UNL     1      19.710  11.381  23.627  0.00  0.00    +0.007 C 
ATOM     23  C   UNL     1      20.002  13.228  21.962  0.00  0.00    +0.007 C 
ENDBRANCH  11  15
ENDBRANCH   7  11
BRANCH   3  20
ATOM     20  C   UNL     1      14.053   7.303  18.810  0.00  0.00    +0.157 C 
BRANCH  20  24
ATOM      6  N   UNL     1      10.594   7.673  21.345  0.00  0.00    -0.263 NA
ATOM     24  C   UNL     1      12.841   7.433  19.698  0.00  0.00    -0.025 A 
ATOM     27  C   UNL     1      11.893   8.419  19.448  0.00  0.00    +0.025 A 
ATOM     28  C   UNL     1      12.666   6.566  20.771  0.00  0.00    +0.025 A 
ATOM     29  C   UNL     1      10.798   8.496  20.293  0.00  0.00    +0.111 A 
ATOM     30  C   UNL     1      11.536   6.726  21.557  0.00  0.00    +0.111 A 
ENDBRANCH  20  24
ENDBRANCH   3  20
TORSDOF 8
ENDMDL
MODEL 7
REMARK VINA RESULT:      -6.4      1.941      7.617
REMARK  Name = 51138043
REMARK  12 active torsions:
REMARK  status: ('A' for Active; 'I' for Inactive)
REMARK    1  A    between atoms: N_3  and  C_20
REMARK    2  A    between atoms: N_4  and  C_25
REMARK    3  A    between atoms: N_5  and  C_26
REMARK    4  A    between atoms: N_5  and  C_31
REMARK    5  A    between atoms: N_5  and  C_32
REMARK    6  A    between atoms: C_7  and  C_11
REMARK    7  A    between atoms: C_10  and  C_18
REMARK    8  A    between atoms: C_11  and  C_15
REMARK    9  A    between atoms: C_15  and  C_22
REMARK   10  A    between atoms: C_15  and  C_23
REMARK   11  A    between atoms: C_20  and  C_24
REMARK   12  A    between atoms: C_25  and  C_26
REMARK                            x       y       z     vdW  Elec       q    Type
REMARK                         _______ _______ _______ _____ _____    ______ ____
ROOT
ATOM      2  N   UNL     1      -4.785 -10.535  14.606  0.00  0.00    -0.299 NA
ATOM      3  N   UNL     1      -8.961  -9.635  17.298  0.00  0.00    -0.342 N 
ATOM      7  C   UNL     1      -4.567 -11.183  15.905  0.00  0.00    +0.085 C 
ATOM      8  C   UNL     1      -5.623 -10.901  16.979  0.00  0.00    -0.021 A 
ATOM      9  C   UNL     1      -6.921 -10.366  16.733  0.00  0.00    +0.008 A 
ATOM     10  C   UNL     1      -5.985 -10.966  13.904  0.00  0.00    +0.145 C 
ATOM     12  C   UNL     1      -7.628  -9.964  15.548  0.00  0.00    -0.020 A 
ATOM     13  C   UNL     1      -7.147 -10.002  14.135  0.00  0.00    +0.065 C 
ATOM     14  C   UNL     1      -7.800 -10.168  17.805  0.00  0.00    +0.050 A 
ATOM     16  C   UNL     1      -8.872  -9.513  15.943  0.00  0.00    +0.091 A 
ATOM     17  C   UNL     1      -5.340 -11.261  18.321  0.00  0.00    +0.006 A 
ATOM     19  C   UNL     1      -7.483 -10.486  19.127  0.00  0.00    +0.026 A 
ATOM     21  C   UNL     1      -6.238 -11.050  19.366  0.00  0.00    +0.002 A 
ATOM     33  H   UNL     1      -4.755  -9.520  14.695  0.00  0.00    +0.123 HD
ENDROOT
BRANCH  10  18
ATOM      1  O   UNL     1      -4.731 -11.670  12.000  0.00  0.00    -0.274 OA
ATOM      4  N   UNL     1      -6.368 -10.036  11.731  0.00  0.00    -0.313 N 
ATOM     18  C   UNL     1      -5.617 -10.951  12.451  0.00  0.00    +0.230 C 
ATOM     34  H   UNL     1      -7.090  -9.501  12.203  0.00  0.00    +0.149 HD
BRANCH   4  25
ATOM     25  C   UNL     1      -6.192  -9.813  10.314  0.00  0.00    +0.119 C 
BRANCH  25  26
ATOM     26  C   UNL     1      -5.356  -8.569  10.051  0.00  0.00    +0.102 C 
BRANCH  26   5
ATOM      5  N   UNL     1      -4.183  -8.906   9.254  0.00  0.00    -0.307 NA
ATOM     31  C   UNL     1      -3.032  -9.174  10.117  0.00  0.00    +0.104 C 
ATOM     32  C   UNL     1      -4.456 -10.063   8.399  0.00  0.00    +0.104 C 
ENDBRANCH  26   5
ENDBRANCH  25  26
ENDBRANCH   4  25
ENDBRANCH  10  18
BRANCH   7  11
ATOM     11  C   UNL     1      -3.157 -10.738  16.333  0.00  0.00    +0.026 C 
BRANCH  11  15
ATOM     15  C   UNL     1      -2.175 -10.654  15.159  0.00  0.00    -0.015 C 
ATOM     22  C   UNL     1      -1.848 -12.068  14.674  0.00  0.00    +0.007 C 
ATOM     23  C   UNL     1      -0.884  -9.920  15.524  0.00  0.00    +0.007 C 
ENDBRANCH  11  15
ENDBRANCH   7  11
BRANCH   3  20
ATOM     20  C   UNL     1     -10.127  -9.268  18.072  0.00  0.00    +0.157 C 
BRANCH  20  24
ATOM      6  N   UNL     1     -12.818  -6.650  15.968  0.00  0.00    -0.263 NA
ATOM     24  C   UNL     1     -11.071  -8.350  17.335  0.00  0.00    -0.025 A 
ATOM     27  C   UNL     1     -12.338  -8.795  16.972  0.00  0.00    +0.025 A 
ATOM     28  C   UNL     1     -10.677  -7.056  17.015  0.00  0.00    +0.025 A 
ATOM     29  C   UNL     1     -13.166  -7.914  16.296  0.00  0.00    +0.111 A 
ATOM     30  C   UNL     1     -11.580  -6.252  16.337  0.00  0.00    +0.111 A 
ENDBRANCH  20  24
ENDBRANCH   3  20
TORSDOF 8
ENDMDL
MODEL 8
REMARK VINA RESULT:      -6.3     25.315     29.008
REMARK  Name = 51138043
REMARK  12 active torsions:
REMARK  status: ('A' for Active; 'I' for Inactive)
REMARK    1  A    between atoms: N_3  and  C_20
REMARK    2  A    between atoms: N_4  and  C_25
REMARK    3  A    between atoms: N_5  and  C_26
REMARK    4  A    between atoms: N_5  and  C_31
REMARK    5  A    between atoms: N_5  and  C_32
REMARK    6  A    between atoms: C_7  and  C_11
REMARK    7  A    between atoms: C_10  and  C_18
REMARK    8  A    between atoms: C_11  and  C_15
REMARK    9  A    between atoms: C_15  and  C_22
REMARK   10  A    between atoms: C_15  and  C_23
REMARK   11  A    between atoms: C_20  and  C_24
REMARK   12  A    between atoms: C_25  and  C_26
REMARK                            x       y       z     vdW  Elec       q    Type
REMARK                         _______ _______ _______ _____ _____    ______ ____
ROOT
ATOM      2  N   UNL     1      15.268   6.207   2.769  0.00  0.00    -0.299 NA
ATOM      3  N   UNL     1      10.748   6.806   4.938  0.00  0.00    -0.342 N 
ATOM      7  C   UNL     1      14.306   5.560   1.868  0.00  0.00    +0.085 C 
ATOM      8  C   UNL     1      12.871   5.442   2.393  0.00  0.00    -0.021 A 
ATOM      9  C   UNL     1      12.335   6.182   3.487  0.00  0.00    +0.008 A 
ATOM     10  C   UNL     1      14.987   7.606   3.056  0.00  0.00    +0.145 C 
ATOM     12  C   UNL     1      12.865   7.185   4.370  0.00  0.00    -0.020 A 
ATOM     13  C   UNL     1      14.239   7.768   4.378  0.00  0.00    +0.065 C 
ATOM     14  C   UNL     1      10.999   5.992   3.859  0.00  0.00    +0.050 A 
ATOM     16  C   UNL     1      11.859   7.531   5.250  0.00  0.00    +0.091 A 
ATOM     17  C   UNL     1      11.964   4.595   1.707  0.00  0.00    +0.006 A 
ATOM     19  C   UNL     1      10.135   5.117   3.199  0.00  0.00    +0.026 A 
ATOM     21  C   UNL     1      10.638   4.428   2.104  0.00  0.00    +0.002 A 
ATOM     33  H   UNL     1      15.381   5.670   3.627  0.00  0.00    +0.123 HD
ENDROOT
BRANCH  10  18
ATOM      1  O   UNL     1      16.811   8.912   2.246  0.00  0.00    -0.274 OA
ATOM      4  N   UNL     1      16.929   8.020   4.393  0.00  0.00    -0.313 N 
ATOM     18  C   UNL     1      16.329   8.262   3.169  0.00  0.00    +0.230 C 
ATOM     34  H   UNL     1      16.432   7.479   5.094  0.00  0.00    +0.149 HD
BRANCH   4  25
ATOM     25  C   UNL     1      18.237   8.523   4.745  0.00  0.00    +0.119 C 
BRANCH  25  26
ATOM     26  C   UNL     1      19.338   7.679   4.119  0.00  0.00    +0.102 C 
BRANCH  26   5
ATOM      5  N   UNL     1      20.559   7.772   4.910  0.00  0.00    -0.307 NA
ATOM     31  C   UNL     1      20.245   8.049   6.313  0.00  0.00    +0.104 C 
ATOM     32  C   UNL     1      21.340   6.539   4.798  0.00  0.00    +0.104 C 
ENDBRANCH  26   5
ENDBRANCH  25  26
ENDBRANCH   4  25
ENDBRANCH  10  18
BRANCH   7  11
ATOM     11  C   UNL     1      14.931   4.190   1.549  0.00  0.00    +0.026 C 
BRANCH  11  15
ATOM     15  C   UNL     1      15.401   4.071   0.096  0.00  0.00    -0.015 C 
ATOM     22  C   UNL     1      16.257   5.289  -0.259  0.00  0.00    +0.007 C 
ATOM     23  C   UNL     1      14.240   3.950  -0.892  0.00  0.00    +0.007 C 
ENDBRANCH  11  15
ENDBRANCH   7  11
BRANCH   3  20
ATOM     20  C   UNL     1       9.487   6.907   5.641  0.00  0.00    +0.157 C 
BRANCH  20  24
ATOM      6  N   UNL     1       9.393   4.659   9.311  0.00  0.00    -0.263 NA
ATOM     24  C   UNL     1       9.454   6.119   6.927  0.00  0.00    -0.025 A 
ATOM     27  C   UNL     1       9.862   4.789   6.943  0.00  0.00    +0.025 A 
ATOM     28  C   UNL     1       9.015   6.719   8.102  0.00  0.00    +0.025 A 
ATOM     29  C   UNL     1       9.813   4.110   8.149  0.00  0.00    +0.111 A 
ATOM     30  C   UNL     1       9.004   5.954   9.257  0.00  0.00    +0.111 A 
ENDBRANCH  20  24
ENDBRANCH   3  20
TORSDOF 8
ENDMDL
MODEL 9
REMARK VINA RESULT:      -6.1     19.865     22.957
REMARK  Name = 51138043
REMARK  12 active torsions:
REMARK  status: ('A' for Active; 'I' for Inactive)
REMARK    1  A    between atoms: N_3  and  C_20
REMARK    2  A    between atoms: N_4  and  C_25
REMARK    3  A    between atoms: N_5  and  C_26
REMARK    4  A    between atoms: N_5  and  C_31
REMARK    5  A    between atoms: N_5  and  C_32
REMARK    6  A    between atoms: C_7  and  C_11
REMARK    7  A    between atoms: C_10  and  C_18
REMARK    8  A    between atoms: C_11  and  C_15
REMARK    9  A    between atoms: C_15  and  C_22
REMARK   10  A    between atoms: C_15  and  C_23
REMARK   11  A    between atoms: C_20  and  C_24
REMARK   12  A    between atoms: C_25  and  C_26
REMARK                            x       y       z     vdW  Elec       q    Type
REMARK                         _______ _______ _______ _____ _____    ______ ____
ROOT
ATOM      2  N   UNL     1     -12.971   9.133  21.457  0.00  0.00    -0.299 NA
ATOM      3  N   UNL     1     -11.223  12.132  17.791  0.00  0.00    -0.342 N 
ATOM      7  C   UNL     1     -12.065   8.298  20.659  0.00  0.00    +0.085 C 
ATOM      8  C   UNL     1     -11.538   8.928  19.365  0.00  0.00    -0.021 A 
ATOM      9  C   UNL     1     -11.575  10.319  19.057  0.00  0.00    +0.008 A 
ATOM     10  C   UNL     1     -12.369  10.346  21.991  0.00  0.00    +0.145 C 
ATOM     12  C   UNL     1     -12.042  11.486  19.755  0.00  0.00    -0.020 A 
ATOM     13  C   UNL     1     -12.668  11.556  21.109  0.00  0.00    +0.065 C 
ATOM     14  C   UNL     1     -11.046  10.770  17.842  0.00  0.00    +0.050 A 
ATOM     16  C   UNL     1     -11.814  12.574  18.937  0.00  0.00    +0.091 A 
ATOM     17  C   UNL     1     -10.891   8.095  18.418  0.00  0.00    +0.006 A 
ATOM     19  C   UNL     1     -10.455   9.926  16.901  0.00  0.00    +0.026 A 
ATOM     21  C   UNL     1     -10.374   8.576  17.217  0.00  0.00    +0.002 A 
ATOM     33  H   UNL     1     -13.824   9.342  20.940  0.00  0.00    +0.123 HD
ENDROOT
BRANCH  10  18
ATOM      1  O   UNL     1     -13.863   9.776  23.762  0.00  0.00    -0.274 OA
ATOM      4  N   UNL     1     -12.543  11.682  23.970  0.00  0.00    -0.313 N 
ATOM     18  C   UNL     1     -13.010  10.546  23.331  0.00  0.00    +0.230 C 
ATOM     34  H   UNL     1     -11.821  12.243  23.527  0.00  0.00    +0.149 HD
BRANCH   4  25
ATOM     25  C   UNL     1     -13.018  12.111  25.266  0.00  0.00    +0.119 C 
BRANCH  25  26
ATOM     26  C   UNL     1     -12.046  11.717  26.368  0.00  0.00    +0.102 C 
BRANCH  26   5
ATOM      5  N   UNL     1     -12.394  10.408  26.906  0.00  0.00    -0.307 NA
ATOM     31  C   UNL     1     -11.205   9.731  27.426  0.00  0.00    +0.104 C 
ATOM     32  C   UNL     1     -13.406  10.535  27.957  0.00  0.00    +0.104 C 
ENDBRANCH  26   5
ENDBRANCH  25  26
ENDBRANCH   4  25
ENDBRANCH  10  18
BRANCH   7  11
ATOM     11  C   UNL     1     -12.852   7.000  20.405  0.00  0.00    +0.026 C 
BRANCH  11  15
ATOM     15  C   UNL     1     -13.895   6.711  21.489  0.00  0.00    -0.015 C 
ATOM     22  C   UNL     1     -13.524   5.415  22.214  0.00  0.00    +0.007 C 
ATOM     23  C   UNL     1     -15.314   6.601  20.927  0.00  0.00    +0.007 C 
ENDBRANCH  11  15
ENDBRANCH   7  11
BRANCH   3  20
ATOM     20  C   UNL     1     -10.826  12.993  16.697  0.00  0.00    +0.157 C 
BRANCH  20  24
ATOM      6  N   UNL     1      -6.959  14.797  17.259  0.00  0.00    -0.263 NA
ATOM     24  C   UNL     1      -9.470  13.625  16.894  0.00  0.00    -0.025 A 
ATOM     27  C   UNL     1      -8.322  12.960  16.477  0.00  0.00    +0.025 A 
ATOM     28  C   UNL     1      -9.364  14.875  17.492  0.00  0.00    +0.025 A 
ATOM     29  C   UNL     1      -7.102  13.584  16.681  0.00  0.00    +0.111 A 
ATOM     30  C   UNL     1      -8.097  15.414  17.651  0.00  0.00    +0.111 A 
ENDBRANCH  20  24
ENDBRANCH   3  20
TORSDOF 8
ENDMDL
MODEL 10
REMARK VINA RESULT:      -6.1     18.975     21.268
REMARK  Name = 51138043
REMARK  12 active torsions:
REMARK  status: ('A' for Active; 'I' for Inactive)
REMARK    1  A    between atoms: N_3  and  C_20
REMARK    2  A    between atoms: N_4  and  C_25
REMARK    3  A    between atoms: N_5  and  C_26
REMARK    4  A    between atoms: N_5  and  C_31
REMARK    5  A    between atoms: N_5  and  C_32
REMARK    6  A    between atoms: C_7  and  C_11
REMARK    7  A    between atoms: C_10  and  C_18
REMARK    8  A    between atoms: C_11  and  C_15
REMARK    9  A    between atoms: C_15  and  C_22
REMARK   10  A    between atoms: C_15  and  C_23
REMARK   11  A    between atoms: C_20  and  C_24
REMARK   12  A    between atoms: C_25  and  C_26
REMARK                            x       y       z     vdW  Elec       q    Type
REMARK                         _______ _______ _______ _____ _____    ______ ____
ROOT
ATOM      2  N   UNL     1     -13.869   8.394  22.587  0.00  0.00    -0.299 NA
ATOM      3  N   UNL     1     -10.849   9.174  18.616  0.00  0.00    -0.342 N 
ATOM      7  C   UNL     1     -14.168   9.754  22.122  0.00  0.00    +0.085 C 
ATOM      8  C   UNL     1     -13.247  10.305  21.028  0.00  0.00    -0.021 A 
ATOM      9  C   UNL     1     -12.378   9.520  20.215  0.00  0.00    +0.008 A 
ATOM     10  C   UNL     1     -14.025   7.357  21.577  0.00  0.00    +0.145 C 
ATOM     12  C   UNL     1     -12.096   8.113  20.122  0.00  0.00    -0.020 A 
ATOM     13  C   UNL     1     -12.689   7.004  20.926  0.00  0.00    +0.065 C 
ATOM     14  C   UNL     1     -11.596  10.146  19.238  0.00  0.00    +0.050 A 
ATOM     16  C   UNL     1     -11.145   7.948  19.135  0.00  0.00    +0.091 A 
ATOM     17  C   UNL     1     -13.299  11.690  20.730  0.00  0.00    +0.006 A 
ATOM     19  C   UNL     1     -11.628  11.520  18.991  0.00  0.00    +0.026 A 
ATOM     21  C   UNL     1     -12.506  12.283  19.749  0.00  0.00    +0.002 A 
ATOM     33  H   UNL     1     -12.948   8.351  23.020  0.00  0.00    +0.123 HD
ENDROOT
BRANCH  10  18
ATOM      1  O   UNL     1     -13.787   5.301  22.764  0.00  0.00    -0.274 OA
ATOM      4  N   UNL     1     -15.924   6.153  22.400  0.00  0.00    -0.313 N 
ATOM     18  C   UNL     1     -14.541   6.161  22.317  0.00  0.00    +0.230 C 
ATOM     34  H   UNL     1     -16.451   6.927  22.007  0.00  0.00    +0.149 HD
BRANCH   4  25
ATOM     25  C   UNL     1     -16.670   5.097  23.045  0.00  0.00    +0.119 C 
BRANCH  25  26
ATOM     26  C   UNL     1     -16.832   5.366  24.534  0.00  0.00    +0.102 C 
BRANCH  26   5
ATOM      5  N   UNL     1     -16.166   4.329  25.311  0.00  0.00    -0.307 NA
ATOM     31  C   UNL     1     -16.921   4.032  26.530  0.00  0.00    +0.104 C 
ATOM     32  C   UNL     1     -15.994   3.114  24.511  0.00  0.00    +0.104 C 
ENDBRANCH  26   5
ENDBRANCH  25  26
ENDBRANCH   4  25
ENDBRANCH  10  18
BRANCH   7  11
ATOM     11  C   UNL     1     -14.149  10.616  23.397  0.00  0.00    +0.026 C 
BRANCH  11  15
ATOM     15  C   UNL     1     -12.906  10.378  24.261  0.00  0.00    -0.015 C 
ATOM     22  C   UNL     1     -13.318  10.327  25.734  0.00  0.00    +0.007 C 
ATOM     23  C   UNL     1     -11.836  11.452  24.061  0.00  0.00    +0.007 C 
ENDBRANCH  11  15
ENDBRANCH   7  11
BRANCH   3  20
ATOM     20  C   UNL     1      -9.896   9.396  17.550  0.00  0.00    +0.157 C 
BRANCH  20  24
ATOM      6  N   UNL     1     -11.626   9.082  13.621  0.00  0.00    -0.263 NA
ATOM     24  C   UNL     1     -10.502   9.286  16.173  0.00  0.00    -0.025 A 
ATOM     27  C   UNL     1     -11.108  10.392  15.586  0.00  0.00    +0.025 A 
ATOM     28  C   UNL     1     -10.457   8.079  15.485  0.00  0.00    +0.025 A 
ATOM     29  C   UNL     1     -11.650  10.239  14.320  0.00  0.00    +0.111 A 
ATOM     30  C   UNL     1     -11.028   8.029  14.223  0.00  0.00    +0.111 A 
ENDBRANCH  20  24
ENDBRANCH   3  20
TORSDOF 8
ENDMDL
