MODEL 1
REMARK VINA RESULT:      -6.3      0.000      0.000
REMARK  Name = 25339256
REMARK  9 active torsions:
REMARK  status: ('A' for Active; 'I' for Inactive)
REMARK    1  A    between atoms: N_7  and  C_11
REMARK    2  A    between atoms: N_8  and  C_21
REMARK    3  A    between atoms: N_8  and  C_22
REMARK    4  A    between atoms: C_10  and  C_15
REMARK    5  A    between atoms: C_15  and  C_17
REMARK    6  A    between atoms: C_17  and  C_19
REMARK    7  A    between atoms: C_18  and  C_20
REMARK    8  A    between atoms: C_21  and  C_24
REMARK    9  A    between atoms: C_22  and  C_25
REMARK                            x       y       z     vdW  Elec       q    Type
REMARK                         _______ _______ _______ _____ _____    ______ ____
ROOT
ATOM      2  O   UNL     1      15.703   6.155  19.583  0.00  0.00    -0.274 OA
ATOM      5  N   UNL     1      12.764   8.089  19.229  0.00  0.00    -0.285 NA
ATOM      6  N   UNL     1      14.019   6.535  21.095  0.00  0.00    -0.313 N 
ATOM      9  C   UNL     1      13.622   7.007  18.737  0.00  0.00    +0.145 C 
ATOM     10  C   UNL     1      11.886   7.593  20.290  0.00  0.00    +0.075 C 
ATOM     11  C   UNL     1      13.240   8.638  17.005  0.00  0.00    +0.089 C 
ATOM     12  C   UNL     1      14.281   7.637  17.519  0.00  0.00    +0.052 C 
ATOM     13  C   UNL     1      12.102   8.604  18.030  0.00  0.00    +0.107 C 
ATOM     14  C   UNL     1      12.788   7.215  21.472  0.00  0.00    +0.123 C 
ATOM     16  C   UNL     1      14.569   6.563  19.827  0.00  0.00    +0.230 C 
ATOM     28  H   UNL     1      14.597   6.172  21.847  0.00  0.00    +0.149 HD
ENDROOT
BRANCH  11   7
ATOM      3  O   UNL     1      14.741   9.650  14.777  0.00  0.00    -0.270 OA
ATOM      7  N   UNL     1      13.806   9.958  16.877  0.00  0.00    -0.307 N 
ATOM     18  C   UNL     1      14.520  10.358  15.757  0.00  0.00    +0.251 C 
ATOM     29  H   UNL     1      13.714  10.582  17.671  0.00  0.00    +0.149 HD
BRANCH  18  20
ATOM      1  S   UNL     1      16.526  12.083  14.971  0.00  0.00    -0.092 S 
ATOM     20  C   UNL     1      15.062  11.741  15.790  0.00  0.00    +0.074 A 
ATOM     23  C   UNL     1      14.544  12.856  16.410  0.00  0.00    +0.021 A 
ATOM     26  C   UNL     1      15.360  14.007  16.210  0.00  0.00    +0.008 A 
ATOM     27  C   UNL     1      16.471  13.727  15.445  0.00  0.00    +0.046 A 
ENDBRANCH  18  20
ENDBRANCH  11   7
BRANCH  10  15
ATOM     15  C   UNL     1      10.852   8.625  20.745  0.00  0.00    +0.029 C 
BRANCH  15  17
ATOM     17  C   UNL     1      11.329   9.374  21.985  0.00  0.00    +0.097 C 
BRANCH  17  19
ATOM      4  O   UNL     1      12.151  11.166  20.622  0.00  0.00    -0.276 OA
ATOM      8  N   UNL     1      11.299  11.750  22.698  0.00  0.00    -0.302 N 
ATOM     19  C   UNL     1      11.635  10.837  21.694  0.00  0.00    +0.216 C 
BRANCH   8  21
ATOM     21  C   UNL     1      10.688  11.408  23.981  0.00  0.00    +0.104 C 
ATOM     24  C   UNL     1      11.481  11.972  25.141  0.00  0.00    +0.024 C 
ENDBRANCH   8  21
BRANCH   8  22
ATOM     22  C   UNL     1      11.570  13.168  22.501  0.00  0.00    +0.104 C 
ATOM     25  C   UNL     1      10.325  13.916  22.070  0.00  0.00    +0.024 C 
ENDBRANCH   8  22
ENDBRANCH  17  19
ENDBRANCH  15  17
ENDBRANCH  10  15
TORSDOF 7
ENDMDL
MODEL 2
REMARK VINA RESULT:      -5.8     28.195     30.366
REMARK  Name = 25339256
REMARK  9 active torsions:
REMARK  status: ('A' for Active; 'I' for Inactive)
REMARK    1  A    between atoms: N_7  and  C_11
REMARK    2  A    between atoms: N_8  and  C_21
REMARK    3  A    between atoms: N_8  and  C_22
REMARK    4  A    between atoms: C_10  and  C_15
REMARK    5  A    between atoms: C_15  and  C_17
REMARK    6  A    between atoms: C_17  and  C_19
REMARK    7  A    between atoms: C_18  and  C_20
REMARK    8  A    between atoms: C_21  and  C_24
REMARK    9  A    between atoms: C_22  and  C_25
REMARK                            x       y       z     vdW  Elec       q    Type
REMARK                         _______ _______ _______ _____ _____    ______ ____
ROOT
ATOM      2  O   UNL     1     -18.121   0.887  22.346  0.00  0.00    -0.274 OA
ATOM      5  N   UNL     1     -16.866   3.203  24.704  0.00  0.00    -0.285 NA
ATOM      6  N   UNL     1     -17.452   0.540  24.513  0.00  0.00    -0.313 N 
ATOM      9  C   UNL     1     -17.925   2.812  23.769  0.00  0.00    +0.145 C 
ATOM     10  C   UNL     1     -17.058   2.534  25.992  0.00  0.00    +0.075 C 
ATOM     11  C   UNL     1     -17.100   5.014  23.242  0.00  0.00    +0.089 C 
ATOM     12  C   UNL     1     -17.695   3.756  22.599  0.00  0.00    +0.052 C 
ATOM     13  C   UNL     1     -16.915   4.665  24.722  0.00  0.00    +0.107 C 
ATOM     14  C   UNL     1     -16.856   1.033  25.747  0.00  0.00    +0.123 C 
ATOM     16  C   UNL     1     -17.811   1.341  23.446  0.00  0.00    +0.230 C 
ATOM     28  H   UNL     1     -17.436  -0.464  24.359  0.00  0.00    +0.149 HD
ENDROOT
BRANCH  11   7
ATOM      3  O   UNL     1     -15.878   7.612  23.237  0.00  0.00    -0.270 OA
ATOM      7  N   UNL     1     -15.852   5.377  22.617  0.00  0.00    -0.307 N 
ATOM     18  C   UNL     1     -15.340   6.666  22.668  0.00  0.00    +0.251 C 
ATOM     29  H   UNL     1     -15.377   4.661  22.079  0.00  0.00    +0.149 HD
BRANCH  18  20
ATOM      1  S   UNL     1     -13.649   8.465  21.435  0.00  0.00    -0.092 S 
ATOM     20  C   UNL     1     -14.056   6.885  21.951  0.00  0.00    +0.074 A 
ATOM     23  C   UNL     1     -13.087   5.966  21.617  0.00  0.00    +0.021 A 
ATOM     26  C   UNL     1     -11.995   6.567  20.927  0.00  0.00    +0.008 A 
ATOM     27  C   UNL     1     -12.172   7.923  20.761  0.00  0.00    +0.046 A 
ENDBRANCH  18  20
ENDBRANCH  11   7
BRANCH  10  15
ATOM     15  C   UNL     1     -16.083   3.013  27.069  0.00  0.00    +0.029 C 
BRANCH  15  17
ATOM     17  C   UNL     1     -16.141   2.119  28.303  0.00  0.00    +0.097 C 
BRANCH  17  19
ATOM      4  O   UNL     1     -15.023   3.816  29.572  0.00  0.00    -0.276 OA
ATOM      8  N   UNL     1     -14.647   1.621  30.219  0.00  0.00    -0.302 N 
ATOM     19  C   UNL     1     -15.224   2.609  29.415  0.00  0.00    +0.216 C 
BRANCH   8  21
ATOM     21  C   UNL     1     -14.855   0.183  30.071  0.00  0.00    +0.104 C 
ATOM     24  C   UNL     1     -13.563  -0.533  29.736  0.00  0.00    +0.024 C 
ENDBRANCH   8  21
BRANCH   8  22
ATOM     22  C   UNL     1     -13.747   2.009  31.299  0.00  0.00    +0.104 C 
ATOM     25  C   UNL     1     -14.407   1.848  32.654  0.00  0.00    +0.024 C 
ENDBRANCH   8  22
ENDBRANCH  17  19
ENDBRANCH  15  17
ENDBRANCH  10  15
TORSDOF 7
ENDMDL
MODEL 3
REMARK VINA RESULT:      -5.7     15.518     19.555
REMARK  Name = 25339256
REMARK  9 active torsions:
REMARK  status: ('A' for Active; 'I' for Inactive)
REMARK    1  A    between atoms: N_7  and  C_11
REMARK    2  A    between atoms: N_8  and  C_21
REMARK    3  A    between atoms: N_8  and  C_22
REMARK    4  A    between atoms: C_10  and  C_15
REMARK    5  A    between atoms: C_15  and  C_17
REMARK    6  A    between atoms: C_17  and  C_19
REMARK    7  A    between atoms: C_18  and  C_20
REMARK    8  A    between atoms: C_21  and  C_24
REMARK    9  A    between atoms: C_22  and  C_25
REMARK                            x       y       z     vdW  Elec       q    Type
REMARK                         _______ _______ _______ _____ _____    ______ ____
ROOT
ATOM      2  O   UNL     1      15.413   7.946   3.087  0.00  0.00    -0.274 OA
ATOM      5  N   UNL     1      12.854   5.634   2.305  0.00  0.00    -0.285 NA
ATOM      6  N   UNL     1      15.502   6.063   1.777  0.00  0.00    -0.313 N 
ATOM      9  C   UNL     1      13.329   7.021   2.329  0.00  0.00    +0.145 C 
ATOM     10  C   UNL     1      13.348   4.954   1.107  0.00  0.00    +0.075 C 
ATOM     11  C   UNL     1      11.237   6.822   3.508  0.00  0.00    +0.089 C 
ATOM     12  C   UNL     1      12.548   7.616   3.492  0.00  0.00    +0.052 C 
ATOM     13  C   UNL     1      11.401   5.744   2.432  0.00  0.00    +0.107 C 
ATOM     14  C   UNL     1      14.874   4.862   1.246  0.00  0.00    +0.123 C 
ATOM     16  C   UNL     1      14.832   7.049   2.479  0.00  0.00    +0.230 C 
ATOM     28  H   UNL     1      16.517   6.090   1.789  0.00  0.00    +0.149 HD
ENDROOT
BRANCH  11   7
ATOM      3  O   UNL     1       8.721   6.710   4.887  0.00  0.00    -0.270 OA
ATOM      7  N   UNL     1      10.992   6.248   4.808  0.00  0.00    -0.307 N 
ATOM     18  C   UNL     1       9.736   6.242   5.396  0.00  0.00    +0.251 C 
ATOM     29  H   UNL     1      11.794   5.892   5.317  0.00  0.00    +0.149 HD
BRANCH  18  20
ATOM      1  S   UNL     1       9.229   6.626   8.082  0.00  0.00    -0.092 S 
ATOM     20  C   UNL     1       9.654   5.637   6.751  0.00  0.00    +0.074 A 
ATOM     23  C   UNL     1       9.879   4.332   7.128  0.00  0.00    +0.021 A 
ATOM     26  C   UNL     1       9.700   4.141   8.529  0.00  0.00    +0.008 A 
ATOM     27  C   UNL     1       9.345   5.309   9.169  0.00  0.00    +0.046 A 
ENDBRANCH  18  20
ENDBRANCH  11   7
BRANCH  10  15
ATOM     15  C   UNL     1      12.766   3.550   0.931  0.00  0.00    +0.029 C 
BRANCH  15  17
ATOM     17  C   UNL     1      12.748   3.141  -0.538  0.00  0.00    +0.097 C 
BRANCH  17  19
ATOM      4  O   UNL     1      10.499   3.968  -0.568  0.00  0.00    -0.276 OA
ATOM      8  N   UNL     1      11.361   3.233  -2.592  0.00  0.00    -0.302 N 
ATOM     19  C   UNL     1      11.432   3.489  -1.219  0.00  0.00    +0.216 C 
BRANCH   8  21
ATOM     21  C   UNL     1      12.436   2.667  -3.403  0.00  0.00    +0.104 C 
ATOM     24  C   UNL     1      12.939   3.660  -4.429  0.00  0.00    +0.024 C 
ENDBRANCH   8  21
BRANCH   8  22
ATOM     22  C   UNL     1      10.130   3.528  -3.315  0.00  0.00    +0.104 C 
ATOM     25  C   UNL     1       9.460   2.262  -3.808  0.00  0.00    +0.024 C 
ENDBRANCH   8  22
ENDBRANCH  17  19
ENDBRANCH  15  17
ENDBRANCH  10  15
TORSDOF 7
ENDMDL
MODEL 4
REMARK VINA RESULT:      -5.6     27.248     29.095
REMARK  Name = 25339256
REMARK  9 active torsions:
REMARK  status: ('A' for Active; 'I' for Inactive)
REMARK    1  A    between atoms: N_7  and  C_11
REMARK    2  A    between atoms: N_8  and  C_21
REMARK    3  A    between atoms: N_8  and  C_22
REMARK    4  A    between atoms: C_10  and  C_15
REMARK    5  A    between atoms: C_15  and  C_17
REMARK    6  A    between atoms: C_17  and  C_19
REMARK    7  A    between atoms: C_18  and  C_20
REMARK    8  A    between atoms: C_21  and  C_24
REMARK    9  A    between atoms: C_22  and  C_25
REMARK                            x       y       z     vdW  Elec       q    Type
REMARK                         _______ _______ _______ _____ _____    ______ ____
ROOT
ATOM      2  O   UNL     1      -3.494 -15.454  11.628  0.00  0.00    -0.274 OA
ATOM      5  N   UNL     1      -2.997 -12.020  12.308  0.00  0.00    -0.285 NA
ATOM      6  N   UNL     1      -3.816 -13.637  10.262  0.00  0.00    -0.313 N 
ATOM      9  C   UNL     1      -2.460 -13.383  12.272  0.00  0.00    +0.145 C 
ATOM     10  C   UNL     1      -2.907 -11.407  10.982  0.00  0.00    +0.075 C 
ATOM     11  C   UNL     1      -2.206 -12.431  14.471  0.00  0.00    +0.089 C 
ATOM     12  C   UNL     1      -2.427 -13.763  13.745  0.00  0.00    +0.052 C 
ATOM     13  C   UNL     1      -2.247 -11.360  13.377  0.00  0.00    +0.107 C 
ATOM     14  C   UNL     1      -3.851 -12.196  10.064  0.00  0.00    +0.123 C 
ATOM     16  C   UNL     1      -3.329 -14.257  11.398  0.00  0.00    +0.230 C 
ATOM     28  H   UNL     1      -4.343 -14.208   9.608  0.00  0.00    +0.149 HD
ENDROOT
BRANCH  11   7
ATOM      3  O   UNL     1      -2.022 -10.676  16.735  0.00  0.00    -0.270 OA
ATOM      7  N   UNL     1      -3.218 -12.212  15.475  0.00  0.00    -0.307 N 
ATOM     18  C   UNL     1      -3.036 -11.340  16.538  0.00  0.00    +0.251 C 
ATOM     29  H   UNL     1      -4.063 -12.768  15.411  0.00  0.00    +0.149 HD
BRANCH  18  20
ATOM      1  S   UNL     1      -5.596 -10.434  17.032  0.00  0.00    -0.092 S 
ATOM     20  C   UNL     1      -4.164 -11.245  17.502  0.00  0.00    +0.074 A 
ATOM     23  C   UNL     1      -4.244 -11.734  18.787  0.00  0.00    +0.021 A 
ATOM     26  C   UNL     1      -5.499 -11.439  19.394  0.00  0.00    +0.008 A 
ATOM     27  C   UNL     1      -6.329 -10.736  18.549  0.00  0.00    +0.046 A 
ENDBRANCH  18  20
ENDBRANCH  11   7
BRANCH  10  15
ATOM     15  C   UNL     1      -3.303  -9.929  10.976  0.00  0.00    +0.029 C 
BRANCH  15  17
ATOM     17  C   UNL     1      -3.777  -9.491   9.593  0.00  0.00    +0.097 C 
BRANCH  17  19
ATOM      4  O   UNL     1      -5.092  -7.685  10.461  0.00  0.00    -0.276 OA
ATOM      8  N   UNL     1      -6.054  -8.951   8.773  0.00  0.00    -0.302 N 
ATOM     19  C   UNL     1      -5.024  -8.621   9.660  0.00  0.00    +0.216 C 
BRANCH   8  21
ATOM     21  C   UNL     1      -6.020 -10.049   7.809  0.00  0.00    +0.104 C 
ATOM     24  C   UNL     1      -6.357  -9.571   6.412  0.00  0.00    +0.024 C 
ENDBRANCH   8  21
BRANCH   8  22
ATOM     22  C   UNL     1      -7.287  -8.173   8.782  0.00  0.00    +0.104 C 
ATOM     25  C   UNL     1      -8.341  -8.816   9.661  0.00  0.00    +0.024 C 
ENDBRANCH   8  22
ENDBRANCH  17  19
ENDBRANCH  15  17
ENDBRANCH  10  15
TORSDOF 7
ENDMDL
MODEL 5
REMARK VINA RESULT:      -5.6     27.517     30.135
REMARK  Name = 25339256
REMARK  9 active torsions:
REMARK  status: ('A' for Active; 'I' for Inactive)
REMARK    1  A    between atoms: N_7  and  C_11
REMARK    2  A    between atoms: N_8  and  C_21
REMARK    3  A    between atoms: N_8  and  C_22
REMARK    4  A    between atoms: C_10  and  C_15
REMARK    5  A    between atoms: C_15  and  C_17
REMARK    6  A    between atoms: C_17  and  C_19
REMARK    7  A    between atoms: C_18  and  C_20
REMARK    8  A    between atoms: C_21  and  C_24
REMARK    9  A    between atoms: C_22  and  C_25
REMARK                            x       y       z     vdW  Elec       q    Type
REMARK                         _______ _______ _______ _____ _____    ______ ____
ROOT
ATOM      2  O   UNL     1      -3.557 -12.172  19.620  0.00  0.00    -0.274 OA
ATOM      5  N   UNL     1      -5.869 -10.774  17.339  0.00  0.00    -0.285 NA
ATOM      6  N   UNL     1      -3.332 -11.791  17.368  0.00  0.00    -0.313 N 
ATOM      9  C   UNL     1      -5.112 -10.658  18.588  0.00  0.00    +0.145 C 
ATOM     10  C   UNL     1      -5.039 -10.358  16.207  0.00  0.00    +0.075 C 
ATOM     11  C   UNL     1      -7.470 -10.389  19.000  0.00  0.00    +0.089 C 
ATOM     12  C   UNL     1      -6.179 -10.906  19.644  0.00  0.00    +0.052 C 
ATOM     13  C   UNL     1      -7.082  -9.990  17.573  0.00  0.00    +0.107 C 
ATOM     14  C   UNL     1      -3.900 -11.380  16.092  0.00  0.00    +0.123 C 
ATOM     16  C   UNL     1      -3.962 -11.639  18.588  0.00  0.00    +0.230 C 
ATOM     28  H   UNL     1      -2.508 -12.385  17.339  0.00  0.00    +0.149 HD
ENDROOT
BRANCH  11   7
ATOM      3  O   UNL     1      -9.939 -10.305  20.464  0.00  0.00    -0.270 OA
ATOM      7  N   UNL     1      -8.499 -11.400  19.012  0.00  0.00    -0.307 N 
ATOM     18  C   UNL     1      -9.663 -11.270  19.756  0.00  0.00    +0.251 C 
ATOM     29  H   UNL     1      -8.317 -12.253  18.495  0.00  0.00    +0.149 HD
BRANCH  18  20
ATOM      1  S   UNL     1     -10.798 -13.249  18.201  0.00  0.00    -0.092 S 
ATOM     20  C   UNL     1     -10.612 -12.412  19.683  0.00  0.00    +0.074 A 
ATOM     23  C   UNL     1     -11.413 -12.933  20.675  0.00  0.00    +0.021 A 
ATOM     26  C   UNL     1     -12.189 -14.035  20.213  0.00  0.00    +0.008 A 
ATOM     27  C   UNL     1     -11.952 -14.313  18.884  0.00  0.00    +0.046 A 
ENDBRANCH  18  20
ENDBRANCH  11   7
BRANCH  10  15
ATOM     15  C   UNL     1      -5.810 -10.301  14.887  0.00  0.00    +0.029 C 
BRANCH  15  17
ATOM     17  C   UNL     1      -4.965 -10.826  13.731  0.00  0.00    +0.097 C 
BRANCH  17  19
ATOM      4  O   UNL     1      -6.028  -9.217  12.307  0.00  0.00    -0.276 OA
ATOM      8  N   UNL     1      -3.925  -9.949  11.656  0.00  0.00    -0.302 N 
ATOM     19  C   UNL     1      -5.035  -9.922  12.508  0.00  0.00    +0.216 C 
BRANCH   8  21
ATOM     21  C   UNL     1      -2.730 -10.766  11.851  0.00  0.00    +0.104 C 
ATOM     24  C   UNL     1      -1.473  -9.922  11.839  0.00  0.00    +0.024 C 
ENDBRANCH   8  21
BRANCH   8  22
ATOM     22  C   UNL     1      -3.920  -9.120  10.457  0.00  0.00    +0.104 C 
ATOM     25  C   UNL     1      -4.195  -9.943   9.214  0.00  0.00    +0.024 C 
ENDBRANCH   8  22
ENDBRANCH  17  19
ENDBRANCH  15  17
ENDBRANCH  10  15
TORSDOF 7
ENDMDL
MODEL 6
REMARK VINA RESULT:      -5.5     28.472     30.428
REMARK  Name = 25339256
REMARK  9 active torsions:
REMARK  status: ('A' for Active; 'I' for Inactive)
REMARK    1  A    between atoms: N_7  and  C_11
REMARK    2  A    between atoms: N_8  and  C_21
REMARK    3  A    between atoms: N_8  and  C_22
REMARK    4  A    between atoms: C_10  and  C_15
REMARK    5  A    between atoms: C_15  and  C_17
REMARK    6  A    between atoms: C_17  and  C_19
REMARK    7  A    between atoms: C_18  and  C_20
REMARK    8  A    between atoms: C_21  and  C_24
REMARK    9  A    between atoms: C_22  and  C_25
REMARK                            x       y       z     vdW  Elec       q    Type
REMARK                         _______ _______ _______ _____ _____    ______ ____
ROOT
ATOM      2  O   UNL     1     -14.751  -9.037  15.642  0.00  0.00    -0.274 OA
ATOM      5  N   UNL     1     -11.595  -7.444  15.698  0.00  0.00    -0.285 NA
ATOM      6  N   UNL     1     -12.755  -9.790  16.488  0.00  0.00    -0.313 N 
ATOM      9  C   UNL     1     -13.024  -7.412  16.025  0.00  0.00    +0.145 C 
ATOM     10  C   UNL     1     -10.857  -8.161  16.737  0.00  0.00    +0.075 C 
ATOM     11  C   UNL     1     -12.417  -5.498  14.693  0.00  0.00    +0.089 C 
ATOM     12  C   UNL     1     -13.580  -6.456  14.980  0.00  0.00    +0.052 C 
ATOM     13  C   UNL     1     -11.234  -6.040  15.501  0.00  0.00    +0.107 C 
ATOM     14  C   UNL     1     -11.322  -9.623  16.685  0.00  0.00    +0.123 C 
ATOM     16  C   UNL     1     -13.593  -8.811  15.988  0.00  0.00    +0.230 C 
ATOM     28  H   UNL     1     -13.125 -10.734  16.551  0.00  0.00    +0.149 HD
ENDROOT
BRANCH  11   7
ATOM      3  O   UNL     1     -12.921  -3.298  12.918  0.00  0.00    -0.270 OA
ATOM      7  N   UNL     1     -12.123  -5.445  13.282  0.00  0.00    -0.307 N 
ATOM     18  C   UNL     1     -12.405  -4.332  12.503  0.00  0.00    +0.251 C 
ATOM     29  H   UNL     1     -11.748  -6.284  12.854  0.00  0.00    +0.149 HD
BRANCH  18  20
ATOM      1  S   UNL     1     -12.324  -5.935  10.257  0.00  0.00    -0.092 S 
ATOM     20  C   UNL     1     -12.066  -4.445  11.060  0.00  0.00    +0.074 A 
ATOM     23  C   UNL     1     -11.547  -3.487  10.218  0.00  0.00    +0.021 A 
ATOM     26  C   UNL     1     -11.359  -3.982   8.895  0.00  0.00    +0.008 A 
ATOM     27  C   UNL     1     -11.741  -5.301   8.778  0.00  0.00    +0.046 A 
ENDBRANCH  18  20
ENDBRANCH  11   7
BRANCH  10  15
ATOM     15  C   UNL     1      -9.340  -8.100  16.546  0.00  0.00    +0.029 C 
BRANCH  15  17
ATOM     17  C   UNL     1      -8.627  -9.078  17.476  0.00  0.00    +0.097 C 
BRANCH  17  19
ATOM      4  O   UNL     1      -7.453  -9.867  15.541  0.00  0.00    -0.276 OA
ATOM      8  N   UNL     1      -6.557 -10.438  17.603  0.00  0.00    -0.302 N 
ATOM     19  C   UNL     1      -7.501  -9.825  16.774  0.00  0.00    +0.216 C 
BRANCH   8  21
ATOM     21  C   UNL     1      -6.573 -10.415  19.064  0.00  0.00    +0.104 C 
ATOM     24  C   UNL     1      -6.782 -11.801  19.638  0.00  0.00    +0.024 C 
ENDBRANCH   8  21
BRANCH   8  22
ATOM     22  C   UNL     1      -5.454 -11.183  17.008  0.00  0.00    +0.104 C 
ATOM     25  C   UNL     1      -4.238 -10.302  16.802  0.00  0.00    +0.024 C 
ENDBRANCH   8  22
ENDBRANCH  17  19
ENDBRANCH  15  17
ENDBRANCH  10  15
TORSDOF 7
ENDMDL
MODEL 7
REMARK VINA RESULT:      -5.4     27.661     30.064
REMARK  Name = 25339256
REMARK  9 active torsions:
REMARK  status: ('A' for Active; 'I' for Inactive)
REMARK    1  A    between atoms: N_7  and  C_11
REMARK    2  A    between atoms: N_8  and  C_21
REMARK    3  A    between atoms: N_8  and  C_22
REMARK    4  A    between atoms: C_10  and  C_15
REMARK    5  A    between atoms: C_15  and  C_17
REMARK    6  A    between atoms: C_17  and  C_19
REMARK    7  A    between atoms: C_18  and  C_20
REMARK    8  A    between atoms: C_21  and  C_24
REMARK    9  A    between atoms: C_22  and  C_25
REMARK                            x       y       z     vdW  Elec       q    Type
REMARK                         _______ _______ _______ _____ _____    ______ ____
ROOT
ATOM      2  O   UNL     1      -8.607 -14.806  17.215  0.00  0.00    -0.274 OA
ATOM      5  N   UNL     1      -6.767 -12.014  18.365  0.00  0.00    -0.285 NA
ATOM      6  N   UNL     1      -6.350 -14.405  17.107  0.00  0.00    -0.313 N 
ATOM      9  C   UNL     1      -7.713 -13.098  18.648  0.00  0.00    +0.145 C 
ATOM     10  C   UNL     1      -5.393 -12.510  18.451  0.00  0.00    +0.075 C 
ATOM     11  C   UNL     1      -8.663 -10.966  19.247  0.00  0.00    +0.089 C 
ATOM     12  C   UNL     1      -9.041 -12.361  18.735  0.00  0.00    +0.052 C 
ATOM     13  C   UNL     1      -7.133 -10.955  19.305  0.00  0.00    +0.107 C 
ATOM     14  C   UNL     1      -5.212 -13.521  17.311  0.00  0.00    +0.123 C 
ATOM     16  C   UNL     1      -7.628 -14.152  17.569  0.00  0.00    +0.230 C 
ATOM     28  H   UNL     1      -6.237 -15.159  16.435  0.00  0.00    +0.149 HD
ENDROOT
BRANCH  11   7
ATOM      3  O   UNL     1     -11.377 -10.042  19.091  0.00  0.00    -0.270 OA
ATOM      7  N   UNL     1      -9.174  -9.936  18.376  0.00  0.00    -0.307 N 
ATOM     18  C   UNL     1     -10.508  -9.557  18.372  0.00  0.00    +0.251 C 
ATOM     29  H   UNL     1      -8.526  -9.527  17.711  0.00  0.00    +0.149 HD
BRANCH  18  20
ATOM      1  S   UNL     1     -12.460  -8.495  16.734  0.00  0.00    -0.092 S 
ATOM     20  C   UNL     1     -10.881  -8.499  17.397  0.00  0.00    +0.074 A 
ATOM     23  C   UNL     1     -10.115  -7.462  16.913  0.00  0.00    +0.021 A 
ATOM     26  C   UNL     1     -10.833  -6.653  15.986  0.00  0.00    +0.008 A 
ATOM     27  C   UNL     1     -12.122  -7.103  15.797  0.00  0.00    +0.046 A 
ENDBRANCH  18  20
ENDBRANCH  11   7
BRANCH  10  15
ATOM     15  C   UNL     1      -4.346 -11.401  18.323  0.00  0.00    +0.029 C 
BRANCH  15  17
ATOM     17  C   UNL     1      -4.387 -10.761  16.939  0.00  0.00    +0.097 C 
BRANCH  17  19
ATOM      4  O   UNL     1      -1.999 -10.815  16.747  0.00  0.00    -0.276 OA
ATOM      8  N   UNL     1      -3.205 -11.289  14.823  0.00  0.00    -0.302 N 
ATOM     19  C   UNL     1      -3.084 -10.954  16.176  0.00  0.00    +0.216 C 
BRANCH   8  21
ATOM     21  C   UNL     1      -4.465 -11.463  14.105  0.00  0.00    +0.104 C 
ATOM     24  C   UNL     1      -4.597 -10.473  12.967  0.00  0.00    +0.024 C 
ENDBRANCH   8  21
BRANCH   8  22
ATOM     22  C   UNL     1      -2.003 -11.479  14.020  0.00  0.00    +0.104 C 
ATOM     25  C   UNL     1      -1.698 -12.950  13.820  0.00  0.00    +0.024 C 
ENDBRANCH   8  22
ENDBRANCH  17  19
ENDBRANCH  15  17
ENDBRANCH  10  15
TORSDOF 7
ENDMDL
MODEL 8
REMARK VINA RESULT:      -5.4     24.585     26.469
REMARK  Name = 25339256
REMARK  9 active torsions:
REMARK  status: ('A' for Active; 'I' for Inactive)
REMARK    1  A    between atoms: N_7  and  C_11
REMARK    2  A    between atoms: N_8  and  C_21
REMARK    3  A    between atoms: N_8  and  C_22
REMARK    4  A    between atoms: C_10  and  C_15
REMARK    5  A    between atoms: C_15  and  C_17
REMARK    6  A    between atoms: C_17  and  C_19
REMARK    7  A    between atoms: C_18  and  C_20
REMARK    8  A    between atoms: C_21  and  C_24
REMARK    9  A    between atoms: C_22  and  C_25
REMARK                            x       y       z     vdW  Elec       q    Type
REMARK                         _______ _______ _______ _____ _____    ______ ____
ROOT
ATOM      2  O   UNL     1     -10.726  12.513  17.548  0.00  0.00    -0.274 OA
ATOM      5  N   UNL     1     -11.022   9.044  18.167  0.00  0.00    -0.285 NA
ATOM      6  N   UNL     1     -11.109  11.414  19.527  0.00  0.00    -0.313 N 
ATOM      9  C   UNL     1     -10.243  10.160  17.624  0.00  0.00    +0.145 C 
ATOM     10  C   UNL     1     -10.791   8.922  19.607  0.00  0.00    +0.075 C 
ATOM     11  C   UNL     1     -10.605   8.480  15.936  0.00  0.00    +0.089 C 
ATOM     12  C   UNL     1     -10.427   9.991  16.123  0.00  0.00    +0.052 C 
ATOM     13  C   UNL     1     -10.631   7.894  17.351  0.00  0.00    +0.107 C 
ATOM     14  C   UNL     1     -11.373  10.184  20.259  0.00  0.00    +0.123 C 
ATOM     16  C   UNL     1     -10.746  11.466  18.194  0.00  0.00    +0.230 C 
ATOM     28  H   UNL     1     -11.383  12.286  19.971  0.00  0.00    +0.149 HD
ENDROOT
BRANCH  11   7
ATOM      3  O   UNL     1     -10.865   8.143  13.097  0.00  0.00    -0.270 OA
ATOM      7  N   UNL     1     -11.816   8.184  15.211  0.00  0.00    -0.307 N 
ATOM     18  C   UNL     1     -11.843   8.040  13.832  0.00  0.00    +0.251 C 
ATOM     29  H   UNL     1     -12.677   8.140  15.745  0.00  0.00    +0.149 HD
BRANCH  18  20
ATOM      1  S   UNL     1     -14.169   9.076  12.765  0.00  0.00    -0.092 S 
ATOM     20  C   UNL     1     -13.175   7.762  13.232  0.00  0.00    +0.074 A 
ATOM     23  C   UNL     1     -13.771   6.547  12.980  0.00  0.00    +0.021 A 
ATOM     26  C   UNL     1     -15.061   6.696  12.393  0.00  0.00    +0.008 A 
ATOM     27  C   UNL     1     -15.402   8.020  12.221  0.00  0.00    +0.046 A 
ENDBRANCH  18  20
ENDBRANCH  11   7
BRANCH  10  15
ATOM     15  C   UNL     1     -11.447   7.682  20.218  0.00  0.00    +0.029 C 
BRANCH  15  17
ATOM     17  C   UNL     1     -12.772   8.031  20.887  0.00  0.00    +0.097 C 
BRANCH  17  19
ATOM      4  O   UNL     1     -14.156   7.729  18.954  0.00  0.00    -0.276 OA
ATOM      8  N   UNL     1     -14.802   6.607  20.878  0.00  0.00    -0.302 N 
ATOM     19  C   UNL     1     -13.966   7.451  20.141  0.00  0.00    +0.216 C 
BRANCH   8  21
ATOM     21  C   UNL     1     -14.618   6.250  22.283  0.00  0.00    +0.104 C 
ATOM     24  C   UNL     1     -13.971   4.890  22.430  0.00  0.00    +0.024 C 
ENDBRANCH   8  21
BRANCH   8  22
ATOM     22  C   UNL     1     -15.974   6.019  20.239  0.00  0.00    +0.104 C 
ATOM     25  C   UNL     1     -17.258   6.608  20.788  0.00  0.00    +0.024 C 
ENDBRANCH   8  22
ENDBRANCH  17  19
ENDBRANCH  15  17
ENDBRANCH  10  15
TORSDOF 7
ENDMDL
MODEL 9
REMARK VINA RESULT:      -5.2     14.320     17.250
REMARK  Name = 25339256
REMARK  9 active torsions:
REMARK  status: ('A' for Active; 'I' for Inactive)
REMARK    1  A    between atoms: N_7  and  C_11
REMARK    2  A    between atoms: N_8  and  C_21
REMARK    3  A    between atoms: N_8  and  C_22
REMARK    4  A    between atoms: C_10  and  C_15
REMARK    5  A    between atoms: C_15  and  C_17
REMARK    6  A    between atoms: C_17  and  C_19
REMARK    7  A    between atoms: C_18  and  C_20
REMARK    8  A    between atoms: C_21  and  C_24
REMARK    9  A    between atoms: C_22  and  C_25
REMARK                            x       y       z     vdW  Elec       q    Type
REMARK                         _______ _______ _______ _____ _____    ______ ____
ROOT
ATOM      2  O   UNL     1      14.006   9.415   3.246  0.00  0.00    -0.274 OA
ATOM      5  N   UNL     1      11.438   6.984   3.218  0.00  0.00    -0.285 NA
ATOM      6  N   UNL     1      11.815   9.604   3.902  0.00  0.00    -0.313 N 
ATOM      9  C   UNL     1      12.785   7.384   3.638  0.00  0.00    +0.145 C 
ATOM     10  C   UNL     1      10.443   7.513   4.151  0.00  0.00    +0.075 C 
ATOM     11  C   UNL     1      12.859   5.308   2.417  0.00  0.00    +0.089 C 
ATOM     12  C   UNL     1      13.674   6.574   2.706  0.00  0.00    +0.052 C 
ATOM     13  C   UNL     1      11.508   5.528   3.104  0.00  0.00    +0.107 C 
ATOM     14  C   UNL     1      10.477   9.042   4.018  0.00  0.00    +0.123 C 
ATOM     16  C   UNL     1      12.935   8.884   3.533  0.00  0.00    +0.230 C 
ATOM     28  H   UNL     1      11.896  10.617   3.918  0.00  0.00    +0.149 HD
ENDROOT
BRANCH  11   7
ATOM      3  O   UNL     1      13.512   2.921   0.962  0.00  0.00    -0.270 OA
ATOM      7  N   UNL     1      12.711   5.096   0.998  0.00  0.00    -0.307 N 
ATOM     18  C   UNL     1      13.056   3.903   0.382  0.00  0.00    +0.251 C 
ATOM     29  H   UNL     1      12.393   5.883   0.443  0.00  0.00    +0.149 HD
BRANCH  18  20
ATOM      1  S   UNL     1      11.304   3.563  -1.724  0.00  0.00    -0.092 S 
ATOM     20  C   UNL     1      12.869   3.853  -1.092  0.00  0.00    +0.074 A 
ATOM     23  C   UNL     1      13.807   4.011  -2.087  0.00  0.00    +0.021 A 
ATOM     26  C   UNL     1      13.234   3.894  -3.386  0.00  0.00    +0.008 A 
ATOM     27  C   UNL     1      11.879   3.650  -3.334  0.00  0.00    +0.046 A 
ENDBRANCH  18  20
ENDBRANCH  11   7
BRANCH  10  15
ATOM     15  C   UNL     1       9.027   7.007   3.868  0.00  0.00    +0.029 C 
BRANCH  15  17
ATOM     17  C   UNL     1       8.296   6.661   5.161  0.00  0.00    +0.097 C 
BRANCH  17  19
ATOM      4  O   UNL     1       9.476   4.618   5.576  0.00  0.00    -0.276 OA
ATOM      8  N   UNL     1       9.337   6.112   7.344  0.00  0.00    -0.302 N 
ATOM     19  C   UNL     1       9.089   5.697   6.032  0.00  0.00    +0.216 C 
BRANCH   8  21
ATOM     21  C   UNL     1       8.898   7.378   7.927  0.00  0.00    +0.104 C 
ATOM     24  C   UNL     1       9.978   8.435   7.837  0.00  0.00    +0.024 C 
ENDBRANCH   8  21
BRANCH   8  22
ATOM     22  C   UNL     1      10.080   5.240   8.245  0.00  0.00    +0.104 C 
ATOM     25  C   UNL     1       9.278   4.917   9.490  0.00  0.00    +0.024 C 
ENDBRANCH   8  22
ENDBRANCH  17  19
ENDBRANCH  15  17
ENDBRANCH  10  15
TORSDOF 7
ENDMDL
MODEL 10
REMARK VINA RESULT:      -5.2     25.018     26.956
REMARK  Name = 25339256
REMARK  9 active torsions:
REMARK  status: ('A' for Active; 'I' for Inactive)
REMARK    1  A    between atoms: N_7  and  C_11
REMARK    2  A    between atoms: N_8  and  C_21
REMARK    3  A    between atoms: N_8  and  C_22
REMARK    4  A    between atoms: C_10  and  C_15
REMARK    5  A    between atoms: C_15  and  C_17
REMARK    6  A    between atoms: C_17  and  C_19
REMARK    7  A    between atoms: C_18  and  C_20
REMARK    8  A    between atoms: C_21  and  C_24
REMARK    9  A    between atoms: C_22  and  C_25
REMARK                            x       y       z     vdW  Elec       q    Type
REMARK                         _______ _______ _______ _____ _____    ______ ____
ROOT
ATOM      2  O   UNL     1     -11.581  11.842  19.609  0.00  0.00    -0.274 OA
ATOM      5  N   UNL     1     -11.832   8.319  19.440  0.00  0.00    -0.285 NA
ATOM      6  N   UNL     1     -12.348  10.359  21.185  0.00  0.00    -0.313 N 
ATOM      9  C   UNL     1     -11.008   9.526  19.327  0.00  0.00    +0.145 C 
ATOM     10  C   UNL     1     -11.929   7.905  20.841  0.00  0.00    +0.075 C 
ATOM     11  C   UNL     1     -10.889   8.226  17.302  0.00  0.00    +0.089 C 
ATOM     12  C   UNL     1     -10.836   9.667  17.822  0.00  0.00    +0.052 C 
ATOM     13  C   UNL     1     -11.207   7.363  18.526  0.00  0.00    +0.107 C 
ATOM     14  C   UNL     1     -12.708   9.004  21.576  0.00  0.00    +0.123 C 
ATOM     16  C   UNL     1     -11.694  10.685  20.011  0.00  0.00    +0.230 C 
ATOM     28  H   UNL     1     -12.760  11.120  21.716  0.00  0.00    +0.149 HD
ENDROOT
BRANCH  11   7
ATOM      3  O   UNL     1     -10.581   8.858  14.518  0.00  0.00    -0.270 OA
ATOM      7  N   UNL     1     -11.886   8.081  16.270  0.00  0.00    -0.307 N 
ATOM     18  C   UNL     1     -11.644   8.415  14.946  0.00  0.00    +0.251 C 
ATOM     29  H   UNL     1     -12.809   7.773  16.557  0.00  0.00    +0.149 HD
BRANCH  18  20
ATOM      1  S   UNL     1     -12.872   9.206  12.604  0.00  0.00    -0.092 S 
ATOM     20  C   UNL     1     -12.783   8.233  14.009  0.00  0.00    +0.074 A 
ATOM     23  C   UNL     1     -13.840   7.355  14.098  0.00  0.00    +0.021 A 
ATOM     26  C   UNL     1     -14.735   7.483  12.996  0.00  0.00    +0.008 A 
ATOM     27  C   UNL     1     -14.327   8.454  12.108  0.00  0.00    +0.046 A 
ENDBRANCH  18  20
ENDBRANCH  11   7
BRANCH  10  15
ATOM     15  C   UNL     1     -12.642   6.564  21.023  0.00  0.00    +0.029 C 
BRANCH  15  17
ATOM     17  C   UNL     1     -13.973   6.740  21.746  0.00  0.00    +0.097 C 
BRANCH  17  19
ATOM      4  O   UNL     1     -15.225   4.702  21.598  0.00  0.00    -0.276 OA
ATOM      8  N   UNL     1     -15.847   6.408  20.155  0.00  0.00    -0.302 N 
ATOM     19  C   UNL     1     -15.065   5.849  21.171  0.00  0.00    +0.216 C 
BRANCH   8  21
ATOM     21  C   UNL     1     -15.694   7.757  19.616  0.00  0.00    +0.104 C 
ATOM     24  C   UNL     1     -15.209   7.731  18.182  0.00  0.00    +0.024 C 
ENDBRANCH   8  21
BRANCH   8  22
ATOM     22  C   UNL     1     -16.906   5.615  19.544  0.00  0.00    +0.104 C 
ATOM     25  C   UNL     1     -18.188   5.689  20.348  0.00  0.00    +0.024 C 
ENDBRANCH   8  22
ENDBRANCH  17  19
ENDBRANCH  15  17
ENDBRANCH  10  15
TORSDOF 7
ENDMDL
