MODEL 1
REMARK VINA RESULT:      -8.5      0.000      0.000
REMARK  Name = 11885938
REMARK  9 active torsions:
REMARK  status: ('A' for Active; 'I' for Inactive)
REMARK    1  A    between atoms: O_3  and  C_14
REMARK    2  A    between atoms: O_3  and  C_18
REMARK    3  A    between atoms: O_7  and  C_29
REMARK    4  A    between atoms: O_7  and  C_30
REMARK    5  A    between atoms: N_8  and  C_13
REMARK    6  A    between atoms: N_9  and  C_22
REMARK    7  A    between atoms: C_17  and  C_19
REMARK    8  A    between atoms: C_20  and  C_23
REMARK    9  A    between atoms: C_21  and  C_24
REMARK                            x       y       z     vdW  Elec       q    Type
REMARK                         _______ _______ _______ _____ _____    ______ ____
ROOT
ATOM      1  O   UNL     1     -16.991   4.601  25.365  0.00  0.00    -0.368 OA
ATOM      2  O   UNL     1     -17.032   1.801  24.114  0.00  0.00    -0.368 OA
ATOM     11  C   UNL     1     -16.197   2.379  25.140  0.00  0.00    +0.173 C 
ATOM     12  C   UNL     1     -15.953   3.822  24.747  0.00  0.00    +0.192 C 
ATOM     13  C   UNL     1     -16.963   2.479  26.438  0.00  0.00    +0.130 C 
ATOM     14  C   UNL     1     -16.103   3.783  23.246  0.00  0.00    +0.235 C 
ATOM     15  C   UNL     1     -17.755   3.761  26.245  0.00  0.00    +0.185 C 
ATOM     16  C   UNL     1     -17.203   2.762  23.061  0.00  0.00    +0.207 C 
ENDROOT
BRANCH  13   8
ATOM      4  O   UNL     1     -16.752   0.619  28.570  0.00  0.00    -0.270 OA
ATOM      8  N   UNL     1     -16.069   2.579  27.566  0.00  0.00    -0.304 N 
ATOM     17  C   UNL     1     -16.032   1.616  28.570  0.00  0.00    +0.250 C 
ATOM     36  H   UNL     1     -15.542   3.438  27.670  0.00  0.00    +0.149 HD
BRANCH  17  19
ATOM      6  O   UNL     1     -13.452   1.603  31.155  0.00  0.00    -0.359 OA
ATOM     10  N   UNL     1     -13.969   2.873  31.383  0.00  0.00    -0.083 NA
ATOM     19  C   UNL     1     -15.091   1.878  29.668  0.00  0.00    +0.101 A 
ATOM     20  C   UNL     1     -14.128   1.021  30.132  0.00  0.00    +0.147 A 
ATOM     21  C   UNL     1     -14.947   3.014  30.483  0.00  0.00    +0.093 A 
ATOM     23  C   UNL     1     -13.704  -0.336  29.762  0.00  0.00    +0.090 C 
ATOM     24  C   UNL     1     -15.722   4.265  30.440  0.00  0.00    +0.070 C 
ENDBRANCH  17  19
ENDBRANCH  13   8
BRANCH  14   3
ATOM      3  O   UNL     1     -16.436   5.030  22.679  0.00  0.00    -0.442 OA
BRANCH   3  18
ATOM      5  O   UNL     1     -15.764   5.238  20.504  0.00  0.00    -0.226 OA
ATOM      9  N   UNL     1     -14.621   6.298  22.249  0.00  0.00    -0.251 N 
ATOM     18  C   UNL     1     -15.605   5.507  21.688  0.00  0.00    +0.405 C 
ATOM     37  H   UNL     1     -14.653   6.406  23.260  0.00  0.00    +0.158 HD
BRANCH   9  22
ATOM     22  C   UNL     1     -13.570   6.979  21.593  0.00  0.00    +0.037 A 
ATOM     25  C   UNL     1     -13.695   8.337  21.301  0.00  0.00    +0.027 A 
ATOM     26  C   UNL     1     -12.410   6.292  21.238  0.00  0.00    +0.027 A 
ATOM     27  C   UNL     1     -12.658   9.009  20.654  0.00  0.00    +0.048 A 
ATOM     28  C   UNL     1     -11.373   6.964  20.591  0.00  0.00    +0.048 A 
ATOM     29  C   UNL     1     -11.496   8.321  20.298  0.00  0.00    +0.129 A 
BRANCH  29   7
ATOM      7  O   UNL     1     -10.484   8.977  19.669  0.00  0.00    -0.456 OA
BRANCH   7  30
ATOM     30  C   UNL     1     -10.597   9.179  18.303  0.00  0.00    +0.128 A 
ATOM     31  C   UNL     1     -10.736  10.472  17.799  0.00  0.00    +0.046 A 
ATOM     32  C   UNL     1     -10.574   8.089  17.433  0.00  0.00    +0.046 A 
ATOM     33  C   UNL     1     -10.851  10.674  16.423  0.00  0.00    +0.004 A 
ATOM     34  C   UNL     1     -10.689   8.291  16.058  0.00  0.00    +0.004 A 
ATOM     35  C   UNL     1     -10.828   9.585  15.553  0.00  0.00    +0.000 A 
ENDBRANCH   7  30
ENDBRANCH  29   7
ENDBRANCH   9  22
ENDBRANCH   3  18
ENDBRANCH  14   3
TORSDOF 7
ENDMDL
MODEL 2
REMARK VINA RESULT:      -7.7     26.957     30.481
REMARK  Name = 11885938
REMARK  9 active torsions:
REMARK  status: ('A' for Active; 'I' for Inactive)
REMARK    1  A    between atoms: O_3  and  C_14
REMARK    2  A    between atoms: O_3  and  C_18
REMARK    3  A    between atoms: O_7  and  C_29
REMARK    4  A    between atoms: O_7  and  C_30
REMARK    5  A    between atoms: N_8  and  C_13
REMARK    6  A    between atoms: N_9  and  C_22
REMARK    7  A    between atoms: C_17  and  C_19
REMARK    8  A    between atoms: C_20  and  C_23
REMARK    9  A    between atoms: C_21  and  C_24
REMARK                            x       y       z     vdW  Elec       q    Type
REMARK                         _______ _______ _______ _____ _____    ______ ____
ROOT
ATOM      1  O   UNL     1      12.223  10.188  20.924  0.00  0.00    -0.368 OA
ATOM      2  O   UNL     1      10.523   8.335  22.681  0.00  0.00    -0.368 OA
ATOM     11  C   UNL     1      11.596   9.245  23.007  0.00  0.00    +0.173 C 
ATOM     12  C   UNL     1      12.595   9.172  21.870  0.00  0.00    +0.192 C 
ATOM     13  C   UNL     1      11.099  10.670  22.963  0.00  0.00    +0.130 C 
ATOM     14  C   UNL     1      12.364   7.785  21.320  0.00  0.00    +0.235 C 
ATOM     15  C   UNL     1      11.168  10.990  21.480  0.00  0.00    +0.185 C 
ATOM     16  C   UNL     1      10.871   7.621  21.485  0.00  0.00    +0.207 C 
ENDROOT
BRANCH  13   8
ATOM      4  O   UNL     1      10.669  11.495  25.644  0.00  0.00    -0.270 OA
ATOM      8  N   UNL     1      11.952  11.546  23.729  0.00  0.00    -0.304 N 
ATOM     17  C   UNL     1      11.664  11.899  25.043  0.00  0.00    +0.250 C 
ATOM     36  H   UNL     1      12.719  11.995  23.241  0.00  0.00    +0.149 HD
BRANCH  17  19
ATOM      6  O   UNL     1      13.471  14.659  26.610  0.00  0.00    -0.359 OA
ATOM     10  N   UNL     1      14.499  13.724  26.586  0.00  0.00    -0.083 NA
ATOM     19  C   UNL     1      12.614  12.825  25.676  0.00  0.00    +0.101 A 
ATOM     20  C   UNL     1      12.355  14.112  26.066  0.00  0.00    +0.147 A 
ATOM     21  C   UNL     1      13.964  12.637  26.023  0.00  0.00    +0.093 A 
ATOM     23  C   UNL     1      11.167  14.976  26.014  0.00  0.00    +0.090 C 
ATOM     24  C   UNL     1      14.788  11.431  25.838  0.00  0.00    +0.070 C 
ENDBRANCH  17  19
ENDBRANCH  13   8
BRANCH  14   3
ATOM      3  O   UNL     1      12.769   7.636  19.978  0.00  0.00    -0.442 OA
BRANCH   3  18
ATOM      5  O   UNL     1      14.461   8.742  18.909  0.00  0.00    -0.226 OA
ATOM      9  N   UNL     1      14.890   7.015  20.429  0.00  0.00    -0.251 N 
ATOM     18  C   UNL     1      14.098   7.878  19.697  0.00  0.00    +0.405 C 
ATOM     37  H   UNL     1      14.401   6.361  21.036  0.00  0.00    +0.158 HD
BRANCH   9  22
ATOM     22  C   UNL     1      16.301   6.925  20.440  0.00  0.00    +0.037 A 
ATOM     25  C   UNL     1      17.042   7.696  21.335  0.00  0.00    +0.027 A 
ATOM     26  C   UNL     1      16.951   6.063  19.556  0.00  0.00    +0.027 A 
ATOM     27  C   UNL     1      18.434   7.607  21.346  0.00  0.00    +0.048 A 
ATOM     28  C   UNL     1      18.343   5.974  19.568  0.00  0.00    +0.048 A 
ATOM     29  C   UNL     1      19.085   6.746  20.461  0.00  0.00    +0.129 A 
BRANCH  29   7
ATOM      7  O   UNL     1      20.442   6.657  20.474  0.00  0.00    -0.456 OA
BRANCH   7  30
ATOM     30  C   UNL     1      21.012   5.600  21.165  0.00  0.00    +0.128 A 
ATOM     31  C   UNL     1      21.500   5.794  22.457  0.00  0.00    +0.046 A 
ATOM     32  C   UNL     1      21.098   4.342  20.568  0.00  0.00    +0.046 A 
ATOM     33  C   UNL     1      22.075   4.729  23.152  0.00  0.00    +0.004 A 
ATOM     34  C   UNL     1      21.672   3.277  21.263  0.00  0.00    +0.004 A 
ATOM     35  C   UNL     1      22.160   3.472  22.555  0.00  0.00    +0.000 A 
ENDBRANCH   7  30
ENDBRANCH  29   7
ENDBRANCH   9  22
ENDBRANCH   3  18
ENDBRANCH  14   3
TORSDOF 7
ENDMDL
MODEL 3
REMARK VINA RESULT:      -7.4      1.230      2.118
REMARK  Name = 11885938
REMARK  9 active torsions:
REMARK  status: ('A' for Active; 'I' for Inactive)
REMARK    1  A    between atoms: O_3  and  C_14
REMARK    2  A    between atoms: O_3  and  C_18
REMARK    3  A    between atoms: O_7  and  C_29
REMARK    4  A    between atoms: O_7  and  C_30
REMARK    5  A    between atoms: N_8  and  C_13
REMARK    6  A    between atoms: N_9  and  C_22
REMARK    7  A    between atoms: C_17  and  C_19
REMARK    8  A    between atoms: C_20  and  C_23
REMARK    9  A    between atoms: C_21  and  C_24
REMARK                            x       y       z     vdW  Elec       q    Type
REMARK                         _______ _______ _______ _____ _____    ______ ____
ROOT
ATOM      1  O   UNL     1     -17.664   3.772  25.493  0.00  0.00    -0.368 OA
ATOM      2  O   UNL     1     -17.360   0.942  24.349  0.00  0.00    -0.368 OA
ATOM     11  C   UNL     1     -16.577   1.672  25.318  0.00  0.00    +0.173 C 
ATOM     12  C   UNL     1     -16.550   3.118  24.863  0.00  0.00    +0.192 C 
ATOM     13  C   UNL     1     -17.304   1.721  26.641  0.00  0.00    +0.130 C 
ATOM     14  C   UNL     1     -16.746   2.994  23.371  0.00  0.00    +0.235 C 
ATOM     15  C   UNL     1     -18.272   2.873  26.434  0.00  0.00    +0.185 C 
ATOM     16  C   UNL     1     -17.699   1.826  23.269  0.00  0.00    +0.207 C 
ENDROOT
BRANCH  13   8
ATOM      4  O   UNL     1     -17.015   0.169  28.999  0.00  0.00    -0.270 OA
ATOM      8  N   UNL     1     -16.394   1.990  27.728  0.00  0.00    -0.304 N 
ATOM     17  C   UNL     1     -16.318   1.172  28.851  0.00  0.00    +0.250 C 
ATOM     36  H   UNL     1     -15.884   2.866  27.705  0.00  0.00    +0.149 HD
BRANCH  17  19
ATOM      6  O   UNL     1     -14.401   2.784  31.510  0.00  0.00    -0.359 OA
ATOM     10  N   UNL     1     -13.569   1.694  31.283  0.00  0.00    -0.083 NA
ATOM     19  C   UNL     1     -15.365   1.598  29.886  0.00  0.00    +0.101 A 
ATOM     20  C   UNL     1     -15.467   2.715  30.672  0.00  0.00    +0.147 A 
ATOM     21  C   UNL     1     -14.164   1.001  30.309  0.00  0.00    +0.093 A 
ATOM     23  C   UNL     1     -16.451   3.800  30.782  0.00  0.00    +0.090 C 
ATOM     24  C   UNL     1     -13.543  -0.238  29.811  0.00  0.00    +0.070 C 
ENDBRANCH  17  19
ENDBRANCH  13   8
BRANCH  14   3
ATOM      3  O   UNL     1     -17.268   4.159  22.773  0.00  0.00    -0.442 OA
BRANCH   3  18
ATOM      5  O   UNL     1     -16.877   4.716  20.590  0.00  0.00    -0.226 OA
ATOM      9  N   UNL     1     -15.374   5.285  22.291  0.00  0.00    -0.251 N 
ATOM     18  C   UNL     1     -16.523   4.729  21.762  0.00  0.00    +0.405 C 
ATOM     37  H   UNL     1     -15.253   5.196  23.298  0.00  0.00    +0.158 HD
BRANCH   9  22
ATOM     22  C   UNL     1     -14.340   5.965  21.607  0.00  0.00    +0.037 A 
ATOM     25  C   UNL     1     -14.654   6.954  20.676  0.00  0.00    +0.027 A 
ATOM     26  C   UNL     1     -13.007   5.646  21.864  0.00  0.00    +0.027 A 
ATOM     27  C   UNL     1     -13.634   7.625  20.001  0.00  0.00    +0.048 A 
ATOM     28  C   UNL     1     -11.987   6.317  21.190  0.00  0.00    +0.048 A 
ATOM     29  C   UNL     1     -12.300   7.306  20.258  0.00  0.00    +0.129 A 
BRANCH  29   7
ATOM      7  O   UNL     1     -11.305   7.963  19.601  0.00  0.00    -0.456 OA
BRANCH   7  30
ATOM     30  C   UNL     1     -11.453   9.326  19.407  0.00  0.00    +0.128 A 
ATOM     31  C   UNL     1     -11.843  10.143  20.468  0.00  0.00    +0.046 A 
ATOM     32  C   UNL     1     -11.214   9.882  18.150  0.00  0.00    +0.046 A 
ATOM     33  C   UNL     1     -11.993  11.516  20.272  0.00  0.00    +0.004 A 
ATOM     34  C   UNL     1     -11.363  11.255  17.954  0.00  0.00    +0.004 A 
ATOM     35  C   UNL     1     -11.753  12.071  19.015  0.00  0.00    +0.000 A 
ENDBRANCH   7  30
ENDBRANCH  29   7
ENDBRANCH   9  22
ENDBRANCH   3  18
ENDBRANCH  14   3
TORSDOF 7
ENDMDL
MODEL 4
REMARK VINA RESULT:      -7.3     17.041     18.945
REMARK  Name = 11885938
REMARK  9 active torsions:
REMARK  status: ('A' for Active; 'I' for Inactive)
REMARK    1  A    between atoms: O_3  and  C_14
REMARK    2  A    between atoms: O_3  and  C_18
REMARK    3  A    between atoms: O_7  and  C_29
REMARK    4  A    between atoms: O_7  and  C_30
REMARK    5  A    between atoms: N_8  and  C_13
REMARK    6  A    between atoms: N_9  and  C_22
REMARK    7  A    between atoms: C_17  and  C_19
REMARK    8  A    between atoms: C_20  and  C_23
REMARK    9  A    between atoms: C_21  and  C_24
REMARK                            x       y       z     vdW  Elec       q    Type
REMARK                         _______ _______ _______ _____ _____    ______ ____
ROOT
ATOM      1  O   UNL     1      -6.741 -10.013  18.708  0.00  0.00    -0.368 OA
ATOM      2  O   UNL     1      -7.295 -13.013  18.395  0.00  0.00    -0.368 OA
ATOM     11  C   UNL     1      -6.785 -12.033  17.467  0.00  0.00    +0.173 C 
ATOM     12  C   UNL     1      -7.523 -10.738  17.744  0.00  0.00    +0.192 C 
ATOM     13  C   UNL     1      -5.346 -11.708  17.794  0.00  0.00    +0.130 C 
ATOM     14  C   UNL     1      -8.825 -11.224  18.333  0.00  0.00    +0.235 C 
ATOM     15  C   UNL     1      -5.492 -10.693  18.914  0.00  0.00    +0.185 C 
ATOM     16  C   UNL     1      -8.385 -12.433  19.128  0.00  0.00    +0.207 C 
ENDROOT
BRANCH  13   8
ATOM      4  O   UNL     1      -4.087 -13.158  15.705  0.00  0.00    -0.270 OA
ATOM      8  N   UNL     1      -4.666 -11.139  16.656  0.00  0.00    -0.304 N 
ATOM     17  C   UNL     1      -4.075 -11.929  15.675  0.00  0.00    +0.250 C 
ATOM     36  H   UNL     1      -4.529 -10.135  16.647  0.00  0.00    +0.149 HD
BRANCH  17  19
ATOM      6  O   UNL     1      -2.988 -10.235  12.627  0.00  0.00    -0.359 OA
ATOM     10  N   UNL     1      -1.843 -10.044  13.391  0.00  0.00    -0.083 NA
ATOM     19  C   UNL     1      -3.393 -11.199  14.596  0.00  0.00    +0.101 A 
ATOM     20  C   UNL     1      -3.903 -10.923  13.355  0.00  0.00    +0.147 A 
ATOM     21  C   UNL     1      -2.108 -10.630  14.563  0.00  0.00    +0.093 A 
ATOM     23  C   UNL     1      -5.181 -11.211  12.689  0.00  0.00    +0.090 C 
ATOM     24  C   UNL     1      -1.093 -10.618  15.630  0.00  0.00    +0.070 C 
ENDBRANCH  17  19
ENDBRANCH  13   8
BRANCH  14   3
ATOM      3  O   UNL     1      -9.472 -10.266  19.139  0.00  0.00    -0.442 OA
BRANCH   3  18
ATOM      5  O   UNL     1     -11.721  -9.862  19.067  0.00  0.00    -0.226 OA
ATOM      9  N   UNL     1     -10.243  -8.858  17.554  0.00  0.00    -0.251 N 
ATOM     18  C   UNL     1     -10.599  -9.668  18.616  0.00  0.00    +0.405 C 
ATOM     37  H   UNL     1      -9.252  -8.825  17.327  0.00  0.00    +0.158 HD
BRANCH   9  22
ATOM     22  C   UNL     1     -11.086  -8.068  16.741  0.00  0.00    +0.037 A 
ATOM     25  C   UNL     1     -10.851  -6.699  16.616  0.00  0.00    +0.027 A 
ATOM     26  C   UNL     1     -12.152  -8.658  16.062  0.00  0.00    +0.027 A 
ATOM     27  C   UNL     1     -11.683  -5.919  15.813  0.00  0.00    +0.048 A 
ATOM     28  C   UNL     1     -12.984  -7.878  15.258  0.00  0.00    +0.048 A 
ATOM     29  C   UNL     1     -12.750  -6.509  15.134  0.00  0.00    +0.129 A 
BRANCH  29   7
ATOM      7  O   UNL     1     -13.560  -5.749  14.348  0.00  0.00    -0.456 OA
BRANCH   7  30
ATOM     30  C   UNL     1     -13.033  -5.259  13.165  0.00  0.00    +0.128 A 
ATOM     31  C   UNL     1     -12.721  -6.135  12.125  0.00  0.00    +0.046 A 
ATOM     32  C   UNL     1     -12.813  -3.890  13.012  0.00  0.00    +0.046 A 
ATOM     33  C   UNL     1     -12.189  -5.642  10.933  0.00  0.00    +0.004 A 
ATOM     34  C   UNL     1     -12.282  -3.396  11.821  0.00  0.00    +0.004 A 
ATOM     35  C   UNL     1     -11.969  -4.273  10.782  0.00  0.00    +0.000 A 
ENDBRANCH   7  30
ENDBRANCH  29   7
ENDBRANCH   9  22
ENDBRANCH   3  18
ENDBRANCH  14   3
TORSDOF 7
ENDMDL
MODEL 5
REMARK VINA RESULT:      -7.3     27.240     30.848
REMARK  Name = 11885938
REMARK  9 active torsions:
REMARK  status: ('A' for Active; 'I' for Inactive)
REMARK    1  A    between atoms: O_3  and  C_14
REMARK    2  A    between atoms: O_3  and  C_18
REMARK    3  A    between atoms: O_7  and  C_29
REMARK    4  A    between atoms: O_7  and  C_30
REMARK    5  A    between atoms: N_8  and  C_13
REMARK    6  A    between atoms: N_9  and  C_22
REMARK    7  A    between atoms: C_17  and  C_19
REMARK    8  A    between atoms: C_20  and  C_23
REMARK    9  A    between atoms: C_21  and  C_24
REMARK                            x       y       z     vdW  Elec       q    Type
REMARK                         _______ _______ _______ _____ _____    ______ ____
ROOT
ATOM      1  O   UNL     1      12.517   9.262  20.243  0.00  0.00    -0.368 OA
ATOM      2  O   UNL     1      10.952   7.564  22.263  0.00  0.00    -0.368 OA
ATOM     11  C   UNL     1      11.904   8.634  22.446  0.00  0.00    +0.173 C 
ATOM     12  C   UNL     1      12.955   8.477  21.365  0.00  0.00    +0.192 C 
ATOM     13  C   UNL     1      11.258   9.963  22.134  0.00  0.00    +0.130 C 
ATOM     14  C   UNL     1      12.901   6.998  21.068  0.00  0.00    +0.235 C 
ATOM     15  C   UNL     1      11.358  10.023  20.621  0.00  0.00    +0.185 C 
ATOM     16  C   UNL     1      11.428   6.695  21.224  0.00  0.00    +0.207 C 
ENDROOT
BRANCH  13   8
ATOM      4  O   UNL     1      10.440  11.415  24.431  0.00  0.00    -0.270 OA
ATOM      8  N   UNL     1      11.976  11.052  22.751  0.00  0.00    -0.304 N 
ATOM     17  C   UNL     1      11.500  11.710  23.881  0.00  0.00    +0.250 C 
ATOM     36  H   UNL     1      12.793  11.406  22.267  0.00  0.00    +0.149 HD
BRANCH  17  19
ATOM      6  O   UNL     1      14.031  13.944  25.274  0.00  0.00    -0.359 OA
ATOM     10  N   UNL     1      13.088  14.898  24.910  0.00  0.00    -0.083 NA
ATOM     19  C   UNL     1      12.331  12.818  24.370  0.00  0.00    +0.101 A 
ATOM     20  C   UNL     1      13.569  12.710  24.947  0.00  0.00    +0.147 A 
ATOM     21  C   UNL     1      12.081  14.202  24.373  0.00  0.00    +0.093 A 
ATOM     23  C   UNL     1      14.452  11.580  25.267  0.00  0.00    +0.090 C 
ATOM     24  C   UNL     1      10.892  14.910  23.872  0.00  0.00    +0.070 C 
ENDBRANCH  17  19
ENDBRANCH  13   8
BRANCH  14   3
ATOM      3  O   UNL     1      13.379   6.664  19.785  0.00  0.00    -0.442 OA
BRANCH   3  18
ATOM      5  O   UNL     1      15.006   7.647  18.516  0.00  0.00    -0.226 OA
ATOM      9  N   UNL     1      15.517   6.481  20.480  0.00  0.00    -0.251 N 
ATOM     18  C   UNL     1      14.687   6.994  19.501  0.00  0.00    +0.405 C 
ATOM     37  H   UNL     1      15.063   5.961  21.227  0.00  0.00    +0.158 HD
BRANCH   9  22
ATOM     22  C   UNL     1      16.923   6.587  20.573  0.00  0.00    +0.037 A 
ATOM     25  C   UNL     1      17.737   5.673  19.904  0.00  0.00    +0.027 A 
ATOM     26  C   UNL     1      17.496   7.607  21.332  0.00  0.00    +0.027 A 
ATOM     27  C   UNL     1      19.125   5.779  19.995  0.00  0.00    +0.048 A 
ATOM     28  C   UNL     1      18.884   7.713  21.423  0.00  0.00    +0.048 A 
ATOM     29  C   UNL     1      19.699   6.798  20.756  0.00  0.00    +0.129 A 
BRANCH  29   7
ATOM      7  O   UNL     1      21.053   6.903  20.842  0.00  0.00    -0.456 OA
BRANCH   7  30
ATOM     30  C   UNL     1      21.756   5.798  21.294  0.00  0.00    +0.128 A 
ATOM     31  C   UNL     1      22.562   5.078  20.412  0.00  0.00    +0.046 A 
ATOM     32  C   UNL     1      21.657   5.405  22.628  0.00  0.00    +0.046 A 
ATOM     33  C   UNL     1      23.270   3.964  20.866  0.00  0.00    +0.004 A 
ATOM     34  C   UNL     1      22.365   4.292  23.082  0.00  0.00    +0.004 A 
ATOM     35  C   UNL     1      23.171   3.572  22.201  0.00  0.00    +0.000 A 
ENDBRANCH   7  30
ENDBRANCH  29   7
ENDBRANCH   9  22
ENDBRANCH   3  18
ENDBRANCH  14   3
TORSDOF 7
ENDMDL
MODEL 6
REMARK VINA RESULT:      -7.2     29.060     32.023
REMARK  Name = 11885938
REMARK  9 active torsions:
REMARK  status: ('A' for Active; 'I' for Inactive)
REMARK    1  A    between atoms: O_3  and  C_14
REMARK    2  A    between atoms: O_3  and  C_18
REMARK    3  A    between atoms: O_7  and  C_29
REMARK    4  A    between atoms: O_7  and  C_30
REMARK    5  A    between atoms: N_8  and  C_13
REMARK    6  A    between atoms: N_9  and  C_22
REMARK    7  A    between atoms: C_17  and  C_19
REMARK    8  A    between atoms: C_20  and  C_23
REMARK    9  A    between atoms: C_21  and  C_24
REMARK                            x       y       z     vdW  Elec       q    Type
REMARK                         _______ _______ _______ _____ _____    ______ ____
ROOT
ATOM      1  O   UNL     1      12.016  11.868  12.497  0.00  0.00    -0.368 OA
ATOM      2  O   UNL     1      13.359  14.325  11.245  0.00  0.00    -0.368 OA
ATOM     11  C   UNL     1      13.393  12.928  10.883  0.00  0.00    +0.173 C 
ATOM     12  C   UNL     1      13.391  12.138  12.177  0.00  0.00    +0.192 C 
ATOM     13  C   UNL     1      12.096  12.533  10.215  0.00  0.00    +0.130 C 
ATOM     14  C   UNL     1      14.011  13.109  13.153  0.00  0.00    +0.235 C 
ATOM     15  C   UNL     1      11.183  12.289  11.404  0.00  0.00    +0.185 C 
ATOM     16  C   UNL     1      13.468  14.436  12.672  0.00  0.00    +0.207 C 
ENDROOT
BRANCH  13   8
ATOM      4  O   UNL     1      11.007  12.081   7.634  0.00  0.00    -0.270 OA
ATOM      8  N   UNL     1      12.258  11.339   9.423  0.00  0.00    -0.304 N 
ATOM     17  C   UNL     1      11.687  11.202   8.162  0.00  0.00    +0.250 C 
ATOM     36  H   UNL     1      12.711  10.545   9.862  0.00  0.00    +0.149 HD
BRANCH  17  19
ATOM      6  O   UNL     1      11.580   7.857   6.698  0.00  0.00    -0.359 OA
ATOM     10  N   UNL     1      12.887   8.189   6.364  0.00  0.00    -0.083 NA
ATOM     19  C   UNL     1      11.918   9.912   7.496  0.00  0.00    +0.101 A 
ATOM     20  C   UNL     1      11.013   8.891   7.372  0.00  0.00    +0.147 A 
ATOM     21  C   UNL     1      13.066   9.420   6.851  0.00  0.00    +0.093 A 
ATOM     23  C   UNL     1       9.621   8.701   7.801  0.00  0.00    +0.090 C 
ATOM     24  C   UNL     1      14.364  10.093   6.674  0.00  0.00    +0.070 C 
ENDBRANCH  17  19
ENDBRANCH  13   8
BRANCH  14   3
ATOM      3  O   UNL     1      13.670  12.852  14.496  0.00  0.00    -0.442 OA
BRANCH   3  18
ATOM      5  O   UNL     1      15.514  11.560  14.898  0.00  0.00    -0.226 OA
ATOM      9  N   UNL     1      13.484  11.180  16.000  0.00  0.00    -0.251 N 
ATOM     18  C   UNL     1      14.338  11.821  15.123  0.00  0.00    +0.405 C 
ATOM     37  H   UNL     1      12.535  11.545  16.051  0.00  0.00    +0.158 HD
BRANCH   9  22
ATOM     22  C   UNL     1      13.763  10.077  16.838  0.00  0.00    +0.037 A 
ATOM     25  C   UNL     1      13.893   8.801  16.291  0.00  0.00    +0.027 A 
ATOM     26  C   UNL     1      13.909  10.265  18.213  0.00  0.00    +0.027 A 
ATOM     27  C   UNL     1      14.169   7.712  17.118  0.00  0.00    +0.048 A 
ATOM     28  C   UNL     1      14.185   9.177  19.040  0.00  0.00    +0.048 A 
ATOM     29  C   UNL     1      14.314   7.900  18.493  0.00  0.00    +0.129 A 
BRANCH  29   7
ATOM      7  O   UNL     1      14.586   6.839  19.300  0.00  0.00    -0.456 OA
BRANCH   7  30
ATOM     30  C   UNL     1      15.904   6.632  19.670  0.00  0.00    +0.128 A 
ATOM     31  C   UNL     1      16.745   5.871  18.857  0.00  0.00    +0.046 A 
ATOM     32  C   UNL     1      16.391   7.183  20.855  0.00  0.00    +0.046 A 
ATOM     33  C   UNL     1      18.073   5.662  19.230  0.00  0.00    +0.004 A 
ATOM     34  C   UNL     1      17.719   6.975  21.228  0.00  0.00    +0.004 A 
ATOM     35  C   UNL     1      18.560   6.214  20.415  0.00  0.00    +0.000 A 
ENDBRANCH   7  30
ENDBRANCH  29   7
ENDBRANCH   9  22
ENDBRANCH   3  18
ENDBRANCH  14   3
TORSDOF 7
ENDMDL
MODEL 7
REMARK VINA RESULT:      -7.2     18.724     20.360
REMARK  Name = 11885938
REMARK  9 active torsions:
REMARK  status: ('A' for Active; 'I' for Inactive)
REMARK    1  A    between atoms: O_3  and  C_14
REMARK    2  A    between atoms: O_3  and  C_18
REMARK    3  A    between atoms: O_7  and  C_29
REMARK    4  A    between atoms: O_7  and  C_30
REMARK    5  A    between atoms: N_8  and  C_13
REMARK    6  A    between atoms: N_9  and  C_22
REMARK    7  A    between atoms: C_17  and  C_19
REMARK    8  A    between atoms: C_20  and  C_23
REMARK    9  A    between atoms: C_21  and  C_24
REMARK                            x       y       z     vdW  Elec       q    Type
REMARK                         _______ _______ _______ _____ _____    ______ ____
ROOT
ATOM      1  O   UNL     1      -5.229 -11.633  12.352  0.00  0.00    -0.368 OA
ATOM      2  O   UNL     1      -2.237 -11.030  12.657  0.00  0.00    -0.368 OA
ATOM     11  C   UNL     1      -3.358 -10.774  13.529  0.00  0.00    +0.173 C 
ATOM     12  C   UNL     1      -4.532 -10.410  12.641  0.00  0.00    +0.192 C 
ATOM     13  C   UNL     1      -3.796 -12.053  14.202  0.00  0.00    +0.130 C 
ATOM     14  C   UNL     1      -3.852  -9.851  11.414  0.00  0.00    +0.235 C 
ATOM     15  C   UNL     1      -4.666 -12.697  13.137  0.00  0.00    +0.185 C 
ATOM     16  C   UNL     1      -2.619 -10.720  11.309  0.00  0.00    +0.207 C 
ENDROOT
BRANCH  13   8
ATOM      4  O   UNL     1      -2.831 -10.725  16.517  0.00  0.00    -0.270 OA
ATOM      8  N   UNL     1      -4.550 -11.781  15.402  0.00  0.00    -0.304 N 
ATOM     17  C   UNL     1      -3.995 -11.121  16.494  0.00  0.00    +0.250 C 
ATOM     36  H   UNL     1      -5.475 -12.190  15.475  0.00  0.00    +0.149 HD
BRANCH  17  19
ATOM      6  O   UNL     1      -5.715 -11.098  19.716  0.00  0.00    -0.359 OA
ATOM     10  N   UNL     1      -6.618 -10.329  18.992  0.00  0.00    -0.083 NA
ATOM     19  C   UNL     1      -4.883 -10.949  17.652  0.00  0.00    +0.101 A 
ATOM     20  C   UNL     1      -4.687 -11.462  18.908  0.00  0.00    +0.147 A 
ATOM     21  C   UNL     1      -6.100 -10.254  17.762  0.00  0.00    +0.093 A 
ATOM     23  C   UNL     1      -3.637 -12.285  19.522  0.00  0.00    +0.090 C 
ATOM     24  C   UNL     1      -6.811  -9.500  16.717  0.00  0.00    +0.070 C 
ENDBRANCH  17  19
ENDBRANCH  13   8
BRANCH  14   3
ATOM      3  O   UNL     1      -4.646  -9.914  10.252  0.00  0.00    -0.442 OA
BRANCH   3  18
ATOM      5  O   UNL     1      -5.089  -7.671  10.245  0.00  0.00    -0.226 OA
ATOM      9  N   UNL     1      -6.599  -9.224   9.358  0.00  0.00    -0.251 N 
ATOM     18  C   UNL     1      -5.430  -8.815   9.971  0.00  0.00    +0.405 C 
ATOM     37  H   UNL     1      -6.703 -10.225   9.212  0.00  0.00    +0.158 HD
BRANCH   9  22
ATOM     22  C   UNL     1      -7.672  -8.422   8.907  0.00  0.00    +0.037 A 
ATOM     25  C   UNL     1      -7.497  -7.574   7.814  0.00  0.00    +0.027 A 
ATOM     26  C   UNL     1      -8.906  -8.481   9.555  0.00  0.00    +0.027 A 
ATOM     27  C   UNL     1      -8.557  -6.784   7.368  0.00  0.00    +0.048 A 
ATOM     28  C   UNL     1      -9.966  -7.691   9.109  0.00  0.00    +0.048 A 
ATOM     29  C   UNL     1      -9.791  -6.842   8.017  0.00  0.00    +0.129 A 
BRANCH  29   7
ATOM      7  O   UNL     1     -10.826  -6.073   7.580  0.00  0.00    -0.456 OA
BRANCH   7  30
ATOM     30  C   UNL     1     -11.476  -5.280   8.511  0.00  0.00    +0.128 A 
ATOM     31  C   UNL     1     -10.821  -4.185   9.073  0.00  0.00    +0.046 A 
ATOM     32  C   UNL     1     -12.786  -5.578   8.888  0.00  0.00    +0.046 A 
ATOM     33  C   UNL     1     -11.476  -3.387  10.012  0.00  0.00    +0.004 A 
ATOM     34  C   UNL     1     -13.441  -4.781   9.826  0.00  0.00    +0.004 A 
ATOM     35  C   UNL     1     -12.786  -3.685  10.388  0.00  0.00    +0.000 A 
ENDBRANCH   7  30
ENDBRANCH  29   7
ENDBRANCH   9  22
ENDBRANCH   3  18
ENDBRANCH  14   3
TORSDOF 7
ENDMDL
MODEL 8
REMARK VINA RESULT:      -7.1     19.053     20.567
REMARK  Name = 11885938
REMARK  9 active torsions:
REMARK  status: ('A' for Active; 'I' for Inactive)
REMARK    1  A    between atoms: O_3  and  C_14
REMARK    2  A    between atoms: O_3  and  C_18
REMARK    3  A    between atoms: O_7  and  C_29
REMARK    4  A    between atoms: O_7  and  C_30
REMARK    5  A    between atoms: N_8  and  C_13
REMARK    6  A    between atoms: N_9  and  C_22
REMARK    7  A    between atoms: C_17  and  C_19
REMARK    8  A    between atoms: C_20  and  C_23
REMARK    9  A    between atoms: C_21  and  C_24
REMARK                            x       y       z     vdW  Elec       q    Type
REMARK                         _______ _______ _______ _____ _____    ______ ____
ROOT
ATOM      1  O   UNL     1      -3.968 -12.427  14.651  0.00  0.00    -0.368 OA
ATOM      2  O   UNL     1      -2.144 -10.895  16.582  0.00  0.00    -0.368 OA
ATOM     11  C   UNL     1      -3.564 -10.812  16.339  0.00  0.00    +0.173 C 
ATOM     12  C   UNL     1      -3.768 -11.018  14.851  0.00  0.00    +0.192 C 
ATOM     13  C   UNL     1      -4.269 -11.991  16.969  0.00  0.00    +0.130 C 
ATOM     14  C   UNL     1      -2.453 -10.552  14.273  0.00  0.00    +0.235 C 
ATOM     15  C   UNL     1      -4.070 -13.078  15.928  0.00  0.00    +0.185 C 
ATOM     16  C   UNL     1      -1.464 -11.008  15.323  0.00  0.00    +0.207 C 
ENDROOT
BRANCH  13   8
ATOM      4  O   UNL     1      -5.393 -10.676  19.218  0.00  0.00    -0.270 OA
ATOM      8  N   UNL     1      -5.669 -11.713  17.177  0.00  0.00    -0.304 N 
ATOM     17  C   UNL     1      -6.134 -11.061  18.314  0.00  0.00    +0.250 C 
ATOM     36  H   UNL     1      -6.327 -12.112  16.518  0.00  0.00    +0.149 HD
BRANCH  17  19
ATOM      6  O   UNL     1      -9.731 -11.198  18.933  0.00  0.00    -0.359 OA
ATOM     10  N   UNL     1      -9.704 -10.081  18.108  0.00  0.00    -0.083 NA
ATOM     19  C   UNL     1      -7.591 -10.881  18.394  0.00  0.00    +0.101 A 
ATOM     20  C   UNL     1      -8.468 -11.666  19.096  0.00  0.00    +0.147 A 
ATOM     21  C   UNL     1      -8.416  -9.911  17.797  0.00  0.00    +0.093 A 
ATOM     23  C   UNL     1      -8.319 -12.854  19.947  0.00  0.00    +0.090 C 
ATOM     24  C   UNL     1      -8.017  -8.797  16.921  0.00  0.00    +0.070 C 
ENDBRANCH  17  19
ENDBRANCH  13   8
BRANCH  14   3
ATOM      3  O   UNL     1      -2.170 -11.099  13.005  0.00  0.00    -0.442 OA
BRANCH   3  18
ATOM      5  O   UNL     1      -1.827  -9.714  11.218  0.00  0.00    -0.226 OA
ATOM      9  N   UNL     1      -3.954 -10.539  11.742  0.00  0.00    -0.251 N 
ATOM     18  C   UNL     1      -2.591 -10.377  11.907  0.00  0.00    +0.405 C 
ATOM     37  H   UNL     1      -4.421 -11.135  12.421  0.00  0.00    +0.158 HD
BRANCH   9  22
ATOM     22  C   UNL     1      -4.783  -9.976  10.745  0.00  0.00    +0.037 A 
ATOM     25  C   UNL     1      -4.917  -8.591  10.650  0.00  0.00    +0.027 A 
ATOM     26  C   UNL     1      -5.464 -10.806   9.856  0.00  0.00    +0.027 A 
ATOM     27  C   UNL     1      -5.735  -8.036   9.666  0.00  0.00    +0.048 A 
ATOM     28  C   UNL     1      -6.282 -10.251   8.871  0.00  0.00    +0.048 A 
ATOM     29  C   UNL     1      -6.418  -8.867   8.776  0.00  0.00    +0.129 A 
BRANCH  29   7
ATOM      7  O   UNL     1      -7.213  -8.325   7.814  0.00  0.00    -0.456 OA
BRANCH   7  30
ATOM     30  C   UNL     1      -8.288  -7.555   8.226  0.00  0.00    +0.128 A 
ATOM     31  C   UNL     1      -9.398  -8.166   8.810  0.00  0.00    +0.046 A 
ATOM     32  C   UNL     1      -8.263  -6.171   8.056  0.00  0.00    +0.046 A 
ATOM     33  C   UNL     1     -10.483  -7.391   9.224  0.00  0.00    +0.004 A 
ATOM     34  C   UNL     1      -9.346  -5.396   8.470  0.00  0.00    +0.004 A 
ATOM     35  C   UNL     1     -10.456  -6.007   9.054  0.00  0.00    +0.000 A 
ENDBRANCH   7  30
ENDBRANCH  29   7
ENDBRANCH   9  22
ENDBRANCH   3  18
ENDBRANCH  14   3
TORSDOF 7
ENDMDL
MODEL 9
REMARK VINA RESULT:      -7.0      5.364      7.400
REMARK  Name = 11885938
REMARK  9 active torsions:
REMARK  status: ('A' for Active; 'I' for Inactive)
REMARK    1  A    between atoms: O_3  and  C_14
REMARK    2  A    between atoms: O_3  and  C_18
REMARK    3  A    between atoms: O_7  and  C_29
REMARK    4  A    between atoms: O_7  and  C_30
REMARK    5  A    between atoms: N_8  and  C_13
REMARK    6  A    between atoms: N_9  and  C_22
REMARK    7  A    between atoms: C_17  and  C_19
REMARK    8  A    between atoms: C_20  and  C_23
REMARK    9  A    between atoms: C_21  and  C_24
REMARK                            x       y       z     vdW  Elec       q    Type
REMARK                         _______ _______ _______ _____ _____    ______ ____
ROOT
ATOM      1  O   UNL     1     -11.198   9.239  31.041  0.00  0.00    -0.368 OA
ATOM      2  O   UNL     1     -13.237  11.315  32.012  0.00  0.00    -0.368 OA
ATOM     11  C   UNL     1     -13.378   9.917  31.683  0.00  0.00    +0.173 C 
ATOM     12  C   UNL     1     -12.466   9.649  30.502  0.00  0.00    +0.192 C 
ATOM     13  C   UNL     1     -12.802   9.062  32.787  0.00  0.00    +0.130 C 
ATOM     14  C   UNL     1     -12.381  11.003  29.841  0.00  0.00    +0.235 C 
ATOM     15  C   UNL     1     -11.319   9.074  32.463  0.00  0.00    +0.185 C 
ATOM     16  C   UNL     1     -12.399  11.940  31.028  0.00  0.00    +0.207 C 
ENDROOT
BRANCH  13   8
ATOM      4  O   UNL     1     -15.348   8.252  33.744  0.00  0.00    -0.270 OA
ATOM      8  N   UNL     1     -13.338   7.723  32.747  0.00  0.00    -0.304 N 
ATOM     17  C   UNL     1     -14.601   7.414  33.240  0.00  0.00    +0.250 C 
ATOM     36  H   UNL     1     -12.716   6.980  32.449  0.00  0.00    +0.149 HD
BRANCH  17  19
ATOM      6  O   UNL     1     -15.841   4.085  32.390  0.00  0.00    -0.359 OA
ATOM     10  N   UNL     1     -15.293   3.793  33.633  0.00  0.00    -0.083 NA
ATOM     19  C   UNL     1     -14.989   5.999  33.155  0.00  0.00    +0.101 A 
ATOM     20  C   UNL     1     -15.654   5.402  32.117  0.00  0.00    +0.147 A 
ATOM     21  C   UNL     1     -14.791   4.951  34.071  0.00  0.00    +0.093 A 
ATOM     23  C   UNL     1     -16.178   5.879  30.830  0.00  0.00    +0.090 C 
ATOM     24  C   UNL     1     -14.125   5.008  35.383  0.00  0.00    +0.070 C 
ENDBRANCH  17  19
ENDBRANCH  13   8
BRANCH  14   3
ATOM      3  O   UNL     1     -11.227  11.173  29.049  0.00  0.00    -0.442 OA
BRANCH   3  18
ATOM      5  O   UNL     1     -10.522   9.677  27.470  0.00  0.00    -0.226 OA
ATOM      9  N   UNL     1     -12.184  11.260  27.008  0.00  0.00    -0.251 N 
ATOM     18  C   UNL     1     -11.247  10.611  27.790  0.00  0.00    +0.405 C 
ATOM     37  H   UNL     1     -12.694  12.018  27.455  0.00  0.00    +0.158 HD
BRANCH   9  22
ATOM     22  C   UNL     1     -12.522  11.002  25.660  0.00  0.00    +0.037 A 
ATOM     25  C   UNL     1     -11.687  11.444  24.635  0.00  0.00    +0.027 A 
ATOM     26  C   UNL     1     -13.691  10.303  25.357  0.00  0.00    +0.027 A 
ATOM     27  C   UNL     1     -12.021  11.189  23.305  0.00  0.00    +0.048 A 
ATOM     28  C   UNL     1     -14.024  10.047  24.027  0.00  0.00    +0.048 A 
ATOM     29  C   UNL     1     -13.191  10.491  23.001  0.00  0.00    +0.129 A 
BRANCH  29   7
ATOM      7  O   UNL     1     -13.515  10.239  21.704  0.00  0.00    -0.456 OA
BRANCH   7  30
ATOM     30  C   UNL     1     -12.779   9.278  21.031  0.00  0.00    +0.128 A 
ATOM     31  C   UNL     1     -12.946   7.929  21.342  0.00  0.00    +0.046 A 
ATOM     32  C   UNL     1     -11.870   9.659  20.044  0.00  0.00    +0.046 A 
ATOM     33  C   UNL     1     -12.204   6.960  20.665  0.00  0.00    +0.004 A 
ATOM     34  C   UNL     1     -11.128   8.691  19.367  0.00  0.00    +0.004 A 
ATOM     35  C   UNL     1     -11.295   7.342  19.678  0.00  0.00    +0.000 A 
ENDBRANCH   7  30
ENDBRANCH  29   7
ENDBRANCH   9  22
ENDBRANCH   3  18
ENDBRANCH  14   3
TORSDOF 7
ENDMDL
MODEL 10
REMARK VINA RESULT:      -6.8     18.831     20.323
REMARK  Name = 11885938
REMARK  9 active torsions:
REMARK  status: ('A' for Active; 'I' for Inactive)
REMARK    1  A    between atoms: O_3  and  C_14
REMARK    2  A    between atoms: O_3  and  C_18
REMARK    3  A    between atoms: O_7  and  C_29
REMARK    4  A    between atoms: O_7  and  C_30
REMARK    5  A    between atoms: N_8  and  C_13
REMARK    6  A    between atoms: N_9  and  C_22
REMARK    7  A    between atoms: C_17  and  C_19
REMARK    8  A    between atoms: C_20  and  C_23
REMARK    9  A    between atoms: C_21  and  C_24
REMARK                            x       y       z     vdW  Elec       q    Type
REMARK                         _______ _______ _______ _____ _____    ______ ____
ROOT
ATOM      1  O   UNL     1      -6.084 -12.409  16.695  0.00  0.00    -0.368 OA
ATOM      2  O   UNL     1      -5.178 -11.416  19.453  0.00  0.00    -0.368 OA
ATOM     11  C   UNL     1      -6.198 -10.936  18.551  0.00  0.00    +0.173 C 
ATOM     12  C   UNL     1      -5.659 -11.112  17.145  0.00  0.00    +0.192 C 
ATOM     13  C   UNL     1      -7.401 -11.848  18.594  0.00  0.00    +0.130 C 
ATOM     14  C   UNL     1      -4.165 -11.056  17.358  0.00  0.00    +0.235 C 
ATOM     15  C   UNL     1      -6.987 -12.972  17.661  0.00  0.00    +0.185 C 
ATOM     16  C   UNL     1      -4.007 -11.750  18.692  0.00  0.00    +0.207 C 
ENDROOT
BRANCH  13   8
ATOM      4  O   UNL     1      -9.465 -10.751  20.203  0.00  0.00    -0.270 OA
ATOM      8  N   UNL     1      -8.584 -11.177  18.115  0.00  0.00    -0.304 N 
ATOM     17  C   UNL     1      -9.549 -10.667  18.978  0.00  0.00    +0.250 C 
ATOM     36  H   UNL     1      -8.754 -11.186  17.116  0.00  0.00    +0.149 HD
BRANCH  17  19
ATOM      6  O   UNL     1     -12.797  -9.676  17.635  0.00  0.00    -0.359 OA
ATOM     10  N   UNL     1     -12.043  -8.608  17.165  0.00  0.00    -0.083 NA
ATOM     19  C   UNL     1     -10.712 -10.039  18.334  0.00  0.00    +0.101 A 
ATOM     20  C   UNL     1     -11.994 -10.521  18.329  0.00  0.00    +0.147 A 
ATOM     21  C   UNL     1     -10.800  -8.847  17.595  0.00  0.00    +0.093 A 
ATOM     23  C   UNL     1     -12.640 -11.712  18.897  0.00  0.00    +0.090 C 
ATOM     24  C   UNL     1      -9.722  -7.898  17.271  0.00  0.00    +0.070 C 
ENDBRANCH  17  19
ENDBRANCH  13   8
BRANCH  14   3
ATOM      3  O   UNL     1      -3.427 -11.691  16.339  0.00  0.00    -0.442 OA
BRANCH   3  18
ATOM      5  O   UNL     1      -2.182 -10.171  15.169  0.00  0.00    -0.226 OA
ATOM      9  N   UNL     1      -4.059 -11.206  14.229  0.00  0.00    -0.251 N 
ATOM     18  C   UNL     1      -3.134 -10.940  15.220  0.00  0.00    +0.405 C 
ATOM     37  H   UNL     1      -4.783 -11.882  14.459  0.00  0.00    +0.158 HD
BRANCH   9  22
ATOM     22  C   UNL     1      -4.126 -10.653  12.929  0.00  0.00    +0.037 A 
ATOM     25  C   UNL     1      -3.014 -10.710  12.090  0.00  0.00    +0.027 A 
ATOM     26  C   UNL     1      -5.305 -10.053  12.487  0.00  0.00    +0.027 A 
ATOM     27  C   UNL     1      -3.080 -10.165  10.807  0.00  0.00    +0.048 A 
ATOM     28  C   UNL     1      -5.371  -9.509  11.205  0.00  0.00    +0.048 A 
ATOM     29  C   UNL     1      -4.259  -9.564  10.365  0.00  0.00    +0.129 A 
BRANCH  29   7
ATOM      7  O   UNL     1      -4.325  -9.035   9.113  0.00  0.00    -0.456 OA
BRANCH   7  30
ATOM     30  C   UNL     1      -5.105  -9.693   8.176  0.00  0.00    +0.128 A 
ATOM     31  C   UNL     1      -4.668 -10.899   7.629  0.00  0.00    +0.046 A 
ATOM     32  C   UNL     1      -6.327  -9.149   7.780  0.00  0.00    +0.046 A 
ATOM     33  C   UNL     1      -5.454 -11.561   6.685  0.00  0.00    +0.004 A 
ATOM     34  C   UNL     1      -7.112  -9.811   6.836  0.00  0.00    +0.004 A 
ATOM     35  C   UNL     1      -6.675 -11.017   6.289  0.00  0.00    +0.000 A 
ENDBRANCH   7  30
ENDBRANCH  29   7
ENDBRANCH   9  22
ENDBRANCH   3  18
ENDBRANCH  14   3
TORSDOF 7
ENDMDL
