MODEL 1
REMARK VINA RESULT:      -6.7      0.000      0.000
REMARK  Name = 11885911
REMARK  5 active torsions:
REMARK  status: ('A' for Active; 'I' for Inactive)
REMARK    1  A    between atoms: S_1  and  C_26
REMARK    2  A    between atoms: S_1  and  C_28
REMARK    3  A    between atoms: N_7  and  C_19
REMARK    4  A    between atoms: C_18  and  C_21
REMARK    5  A    between atoms: C_23  and  C_26
REMARK                            x       y       z     vdW  Elec       q    Type
REMARK                         _______ _______ _______ _____ _____    ______ ____
ROOT
ATOM      2  O   UNL     1      13.675   9.428  16.335  0.00  0.00    -0.266 OA
ATOM      3  O   UNL     1      11.062   7.715  20.460  0.00  0.00    -0.268 OA
ATOM      5  N   UNL     1      13.319   7.864  21.060  0.00  0.00    -0.295 N 
ATOM      6  N   UNL     1      14.626   9.088  18.443  0.00  0.00    -0.310 N 
ATOM      9  C   UNL     1      14.896   6.762  19.482  0.00  0.00    +0.027 C 
ATOM     10  C   UNL     1      15.614   8.755  20.737  0.00  0.00    +0.054 C 
ATOM     11  C   UNL     1      16.069   7.388  20.228  0.00  0.00    +0.018 C 
ATOM     12  C   UNL     1      13.686   6.601  20.420  0.00  0.00    +0.113 C 
ATOM     13  C   UNL     1      14.568   7.631  18.261  0.00  0.00    +0.130 C 
ATOM     14  C   UNL     1      14.431   8.578  21.709  0.00  0.00    +0.117 C 
ATOM     15  C   UNL     1      15.199   9.653  19.586  0.00  0.00    +0.027 A 
ATOM     16  C   UNL     1      15.348  10.986  19.681  0.00  0.00    +0.024 A 
ATOM     17  C   UNL     1      14.170   9.879  17.369  0.00  0.00    +0.273 A 
ATOM     18  C   UNL     1      11.995   8.307  21.000  0.00  0.00    +0.265 C 
ATOM     19  C   UNL     1      14.328  11.360  17.526  0.00  0.00    +0.099 A 
ATOM     20  C   UNL     1      14.901  11.854  18.629  0.00  0.00    +0.030 A 
ENDROOT
BRANCH  18  21
ATOM      8  N   UNL     1      11.147   9.538  22.854  0.00  0.00    -0.250 NA
ATOM     21  C   UNL     1      11.674   9.600  21.614  0.00  0.00    +0.126 A 
ATOM     22  C   UNL     1      11.917  10.773  20.924  0.00  0.00    +0.033 A 
ATOM     24  C   UNL     1      11.593  11.970  21.551  0.00  0.00    +0.004 A 
ATOM     25  C   UNL     1      10.845  10.722  23.432  0.00  0.00    +0.111 A 
ATOM     27  C   UNL     1      11.047  11.953  22.830  0.00  0.00    +0.020 A 
ENDBRANCH  18  21
BRANCH  19   7
ATOM      4  O   UNL     1      15.823  12.185  15.229  0.00  0.00    -0.275 OA
ATOM      7  N   UNL     1      13.882  12.162  16.516  0.00  0.00    -0.281 N 
ATOM     23  C   UNL     1      14.656  12.522  15.423  0.00  0.00    +0.227 C 
ATOM     29  H   UNL     1      13.031  12.690  16.693  0.00  0.00    +0.155 HD
BRANCH  23  26
ATOM     26  C   UNL     1      13.919  13.418  14.454  0.00  0.00    +0.164 C 
BRANCH  26   1
ATOM      1  S   UNL     1      13.766  12.564  12.867  0.00  0.00    -0.155 S 
ATOM     28  C   UNL     1      11.989  12.229  12.910  0.00  0.00    +0.085 C 
ENDBRANCH  26   1
ENDBRANCH  23  26
ENDBRANCH  19   7
TORSDOF 4
ENDMDL
MODEL 2
REMARK VINA RESULT:      -6.0     24.668     27.071
REMARK  Name = 11885911
REMARK  5 active torsions:
REMARK  status: ('A' for Active; 'I' for Inactive)
REMARK    1  A    between atoms: S_1  and  C_26
REMARK    2  A    between atoms: S_1  and  C_28
REMARK    3  A    between atoms: N_7  and  C_19
REMARK    4  A    between atoms: C_18  and  C_21
REMARK    5  A    between atoms: C_23  and  C_26
REMARK                            x       y       z     vdW  Elec       q    Type
REMARK                         _______ _______ _______ _____ _____    ______ ____
ROOT
ATOM      2  O   UNL     1     -13.702   8.713  17.718  0.00  0.00    -0.266 OA
ATOM      3  O   UNL     1     -16.203  10.456  21.898  0.00  0.00    -0.268 OA
ATOM      5  N   UNL     1     -15.650   8.216  22.284  0.00  0.00    -0.295 N 
ATOM      6  N   UNL     1     -13.999   7.478  19.680  0.00  0.00    -0.310 N 
ATOM      9  C   UNL     1     -16.294   6.650  20.460  0.00  0.00    +0.027 C 
ATOM     10  C   UNL     1     -14.296   6.186  21.822  0.00  0.00    +0.054 C 
ATOM     11  C   UNL     1     -15.503   5.541  21.144  0.00  0.00    +0.018 C 
ATOM     12  C   UNL     1     -16.763   7.691  21.494  0.00  0.00    +0.113 C 
ATOM     13  C   UNL     1     -15.420   7.277  19.366  0.00  0.00    +0.130 C 
ATOM     14  C   UNL     1     -14.778   7.193  22.886  0.00  0.00    +0.117 C 
ATOM     15  C   UNL     1     -13.417   6.895  20.809  0.00  0.00    +0.027 A 
ATOM     16  C   UNL     1     -12.092   6.994  21.015  0.00  0.00    +0.024 A 
ATOM     17  C   UNL     1     -13.238   8.197  18.736  0.00  0.00    +0.273 A 
ATOM     18  C   UNL     1     -15.478   9.598  22.398  0.00  0.00    +0.265 C 
ATOM     19  C   UNL     1     -11.771   8.308  19.017  0.00  0.00    +0.099 A 
ATOM     20  C   UNL     1     -11.256   7.717  20.100  0.00  0.00    +0.030 A 
ENDROOT
BRANCH  18  21
ATOM      8  N   UNL     1     -14.495  10.141  24.498  0.00  0.00    -0.250 NA
ATOM     21  C   UNL     1     -14.325  10.087  23.160  0.00  0.00    +0.126 A 
ATOM     22  C   UNL     1     -13.165  10.454  22.503  0.00  0.00    +0.033 A 
ATOM     24  C   UNL     1     -12.103  10.911  23.274  0.00  0.00    +0.004 A 
ATOM     25  C   UNL     1     -13.440  10.590  25.214  0.00  0.00    +0.111 A 
ATOM     27  C   UNL     1     -12.235  10.983  24.656  0.00  0.00    +0.020 A 
ENDBRANCH  18  21
BRANCH  19   7
ATOM      4  O   UNL     1     -10.974  11.045  19.273  0.00  0.00    -0.275 OA
ATOM      7  N   UNL     1     -11.002   9.012  18.137  0.00  0.00    -0.281 N 
ATOM     23  C   UNL     1     -10.643  10.339  18.321  0.00  0.00    +0.227 C 
ATOM     29  H   UNL     1     -10.881   8.609  17.211  0.00  0.00    +0.155 HD
BRANCH  23  26
ATOM     26  C   UNL     1      -9.789  10.875  17.197  0.00  0.00    +0.164 C 
BRANCH  26   1
ATOM      1  S   UNL     1      -9.928  12.679  17.163  0.00  0.00    -0.155 S 
ATOM     28  C   UNL     1      -8.300  13.064  16.476  0.00  0.00    +0.085 C 
ENDBRANCH  26   1
ENDBRANCH  23  26
ENDBRANCH  19   7
TORSDOF 4
ENDMDL
MODEL 3
REMARK VINA RESULT:      -5.9     27.340     29.502
REMARK  Name = 11885911
REMARK  5 active torsions:
REMARK  status: ('A' for Active; 'I' for Inactive)
REMARK    1  A    between atoms: S_1  and  C_26
REMARK    2  A    between atoms: S_1  and  C_28
REMARK    3  A    between atoms: N_7  and  C_19
REMARK    4  A    between atoms: C_18  and  C_21
REMARK    5  A    between atoms: C_23  and  C_26
REMARK                            x       y       z     vdW  Elec       q    Type
REMARK                         _______ _______ _______ _____ _____    ______ ____
ROOT
ATOM      2  O   UNL     1      -6.572  -9.646  13.912  0.00  0.00    -0.266 OA
ATOM      3  O   UNL     1      -5.151 -14.430  12.551  0.00  0.00    -0.268 OA
ATOM      5  N   UNL     1      -3.205 -13.217  13.013  0.00  0.00    -0.295 N 
ATOM      6  N   UNL     1      -4.371 -10.429  13.977  0.00  0.00    -0.310 N 
ATOM      9  C   UNL     1      -3.047 -11.015  11.864  0.00  0.00    +0.027 C 
ATOM     10  C   UNL     1      -2.014 -11.315  14.078  0.00  0.00    +0.054 C 
ATOM     11  C   UNL     1      -1.824 -10.671  12.706  0.00  0.00    +0.018 C 
ATOM     12  C   UNL     1      -3.186 -12.542  11.716  0.00  0.00    +0.113 C 
ATOM     13  C   UNL     1      -4.286 -10.383  12.511  0.00  0.00    +0.130 C 
ATOM     14  C   UNL     1      -2.108 -12.846  13.923  0.00  0.00    +0.117 C 
ATOM     15  C   UNL     1      -3.268 -10.793  14.756  0.00  0.00    +0.027 A 
ATOM     16  C   UNL     1      -3.331 -10.717  16.096  0.00  0.00    +0.024 A 
ATOM     17  C   UNL     1      -5.580  -9.992  14.556  0.00  0.00    +0.273 A 
ATOM     18  C   UNL     1      -4.233 -14.117  13.306  0.00  0.00    +0.265 C 
ATOM     19  C   UNL     1      -5.619  -9.949  16.052  0.00  0.00    +0.099 A 
ATOM     20  C   UNL     1      -4.532 -10.287  16.754  0.00  0.00    +0.030 A 
ENDROOT
BRANCH  18  21
ATOM      8  N   UNL     1      -3.550 -15.893  14.740  0.00  0.00    -0.250 NA
ATOM     21  C   UNL     1      -4.243 -14.740  14.634  0.00  0.00    +0.126 A 
ATOM     22  C   UNL     1      -4.933 -14.142  15.673  0.00  0.00    +0.033 A 
ATOM     24  C   UNL     1      -4.912 -14.775  16.910  0.00  0.00    +0.004 A 
ATOM     25  C   UNL     1      -3.552 -16.478  15.958  0.00  0.00    +0.111 A 
ATOM     27  C   UNL     1      -4.210 -15.966  17.064  0.00  0.00    +0.020 A 
ENDBRANCH  18  21
BRANCH  19   7
ATOM      4  O   UNL     1      -7.713 -11.653  17.002  0.00  0.00    -0.275 OA
ATOM      7  N   UNL     1      -6.777  -9.549  16.651  0.00  0.00    -0.281 N 
ATOM     23  C   UNL     1      -7.754 -10.427  17.098  0.00  0.00    +0.227 C 
ATOM     29  H   UNL     1      -7.024  -8.567  16.560  0.00  0.00    +0.155 HD
BRANCH  23  26
ATOM     26  C   UNL     1      -8.934  -9.721  17.722  0.00  0.00    +0.164 C 
BRANCH  26   1
ATOM      1  S   UNL     1      -9.431  -8.350  16.651  0.00  0.00    -0.155 S 
ATOM     28  C   UNL     1     -10.053  -9.312  15.252  0.00  0.00    +0.085 C 
ENDBRANCH  26   1
ENDBRANCH  23  26
ENDBRANCH  19   7
TORSDOF 4
ENDMDL
MODEL 4
REMARK VINA RESULT:      -5.8     28.387     30.579
REMARK  Name = 11885911
REMARK  5 active torsions:
REMARK  status: ('A' for Active; 'I' for Inactive)
REMARK    1  A    between atoms: S_1  and  C_26
REMARK    2  A    between atoms: S_1  and  C_28
REMARK    3  A    between atoms: N_7  and  C_19
REMARK    4  A    between atoms: C_18  and  C_21
REMARK    5  A    between atoms: C_23  and  C_26
REMARK                            x       y       z     vdW  Elec       q    Type
REMARK                         _______ _______ _______ _____ _____    ______ ____
ROOT
ATOM      2  O   UNL     1     -10.723  -8.977  18.381  0.00  0.00    -0.266 OA
ATOM      3  O   UNL     1      -6.382 -10.941  20.396  0.00  0.00    -0.268 OA
ATOM      5  N   UNL     1      -7.354 -12.595  19.057  0.00  0.00    -0.295 N 
ATOM      6  N   UNL     1      -9.854 -11.077  17.832  0.00  0.00    -0.310 N 
ATOM      9  C   UNL     1      -9.766 -13.018  19.502  0.00  0.00    +0.027 C 
ATOM     10  C   UNL     1      -8.871 -13.316  17.228  0.00  0.00    +0.054 C 
ATOM     11  C   UNL     1      -9.832 -13.900  18.261  0.00  0.00    +0.018 C 
ATOM     12  C   UNL     1      -8.334 -12.992  20.068  0.00  0.00    +0.113 C 
ATOM     13  C   UNL     1     -10.267 -11.614  19.136  0.00  0.00    +0.130 C 
ATOM     14  C   UNL     1      -7.434 -13.337  17.788  0.00  0.00    +0.117 C 
ATOM     15  C   UNL     1      -9.258 -11.894  16.867  0.00  0.00    +0.027 A 
ATOM     16  C   UNL     1      -8.995 -11.411  15.640  0.00  0.00    +0.024 A 
ATOM     17  C   UNL     1     -10.182  -9.731  17.570  0.00  0.00    +0.273 A 
ATOM     18  C   UNL     1      -6.454 -11.564  19.339  0.00  0.00    +0.265 C 
ATOM     19  C   UNL     1      -9.847  -9.224  16.201  0.00  0.00    +0.099 A 
ATOM     20  C   UNL     1      -9.295 -10.048  15.305  0.00  0.00    +0.030 A 
ENDROOT
BRANCH  18  21
ATOM      8  N   UNL     1      -6.002 -10.288  17.379  0.00  0.00    -0.250 NA
ATOM     21  C   UNL     1      -5.516 -11.163  18.285  0.00  0.00    +0.126 A 
ATOM     22  C   UNL     1      -4.233 -11.677  18.266  0.00  0.00    +0.033 A 
ATOM     24  C   UNL     1      -3.387 -11.265  17.244  0.00  0.00    +0.004 A 
ATOM     25  C   UNL     1      -5.150  -9.910  16.400  0.00  0.00    +0.111 A 
ATOM     27  C   UNL     1      -3.846 -10.364  16.289  0.00  0.00    +0.020 A 
ENDBRANCH  18  21
BRANCH  19   7
ATOM      4  O   UNL     1     -12.273  -8.231  15.052  0.00  0.00    -0.275 OA
ATOM      7  N   UNL     1     -10.131  -7.921  15.913  0.00  0.00    -0.281 N 
ATOM     23  C   UNL     1     -11.332  -7.501  15.361  0.00  0.00    +0.227 C 
ATOM     29  H   UNL     1      -9.347  -7.274  15.898  0.00  0.00    +0.155 HD
BRANCH  23  26
ATOM     26  C   UNL     1     -11.385  -6.007  15.143  0.00  0.00    +0.164 C 
BRANCH  26   1
ATOM      1  S   UNL     1     -12.918  -5.595  14.276  0.00  0.00    -0.155 S 
ATOM     28  C   UNL     1     -12.218  -4.567  12.963  0.00  0.00    +0.085 C 
ENDBRANCH  26   1
ENDBRANCH  23  26
ENDBRANCH  19   7
TORSDOF 4
ENDMDL
MODEL 5
REMARK VINA RESULT:      -5.8     11.388     13.521
REMARK  Name = 11885911
REMARK  5 active torsions:
REMARK  status: ('A' for Active; 'I' for Inactive)
REMARK    1  A    between atoms: S_1  and  C_26
REMARK    2  A    between atoms: S_1  and  C_28
REMARK    3  A    between atoms: N_7  and  C_19
REMARK    4  A    between atoms: C_18  and  C_21
REMARK    5  A    between atoms: C_23  and  C_26
REMARK                            x       y       z     vdW  Elec       q    Type
REMARK                         _______ _______ _______ _____ _____    ______ ____
ROOT
ATOM      2  O   UNL     1      12.473   7.174   3.350  0.00  0.00    -0.266 OA
ATOM      3  O   UNL     1       8.673   9.715   5.772  0.00  0.00    -0.268 OA
ATOM      5  N   UNL     1       9.061   7.730   6.947  0.00  0.00    -0.295 N 
ATOM      6  N   UNL     1      11.516   6.489   5.369  0.00  0.00    -0.310 N 
ATOM      9  C   UNL     1       9.094   5.674   5.546  0.00  0.00    +0.027 C 
ATOM     10  C   UNL     1      10.495   5.799   7.566  0.00  0.00    +0.054 C 
ATOM     11  C   UNL     1       9.600   4.876   6.742  0.00  0.00    +0.018 C 
ATOM     12  C   UNL     1       8.293   6.901   6.018  0.00  0.00    +0.113 C 
ATOM     13  C   UNL     1      10.292   6.068   4.672  0.00  0.00    +0.130 C 
ATOM     14  C   UNL     1       9.672   7.001   8.071  0.00  0.00    +0.117 C 
ATOM     15  C   UNL     1      11.670   6.294   6.745  0.00  0.00    +0.027 A 
ATOM     16  C   UNL     1      12.841   6.578   7.341  0.00  0.00    +0.024 A 
ATOM     17  C   UNL     1      12.556   7.001   4.567  0.00  0.00    +0.273 A 
ATOM     18  C   UNL     1       9.181   9.102   6.708  0.00  0.00    +0.265 C 
ATOM     19  C   UNL     1      13.834   7.332   5.274  0.00  0.00    +0.099 A 
ATOM     20  C   UNL     1      13.942   7.109   6.588  0.00  0.00    +0.030 A 
ENDROOT
BRANCH  18  21
ATOM      8  N   UNL     1      11.302  10.002   7.311  0.00  0.00    -0.250 NA
ATOM     21  C   UNL     1       9.997   9.892   7.636  0.00  0.00    +0.126 A 
ATOM     22  C   UNL     1       9.417  10.462   8.754  0.00  0.00    +0.033 A 
ATOM     24  C   UNL     1      10.237  11.200   9.601  0.00  0.00    +0.004 A 
ATOM     25  C   UNL     1      12.067  10.727   8.158  0.00  0.00    +0.111 A 
ATOM     27  C   UNL     1      11.588  11.340   9.304  0.00  0.00    +0.020 A 
ENDBRANCH  18  21
BRANCH  19   7
ATOM      4  O   UNL     1      14.619  10.082   5.148  0.00  0.00    -0.275 OA
ATOM      7  N   UNL     1      14.859   7.847   4.537  0.00  0.00    -0.281 N 
ATOM     23  C   UNL     1      15.195   9.193   4.523  0.00  0.00    +0.227 C 
ATOM     29  H   UNL     1      15.240   7.253   3.804  0.00  0.00    +0.155 HD
BRANCH  23  26
ATOM     26  C   UNL     1      16.370   9.493   3.621  0.00  0.00    +0.164 C 
BRANCH  26   1
ATOM      1  S   UNL     1      17.766   8.453   4.112  0.00  0.00    -0.155 S 
ATOM     28  C   UNL     1      17.997   9.085   5.791  0.00  0.00    +0.085 C 
ENDBRANCH  26   1
ENDBRANCH  23  26
ENDBRANCH  19   7
TORSDOF 4
ENDMDL
MODEL 6
REMARK VINA RESULT:      -5.8     30.415     32.052
REMARK  Name = 11885911
REMARK  5 active torsions:
REMARK  status: ('A' for Active; 'I' for Inactive)
REMARK    1  A    between atoms: S_1  and  C_26
REMARK    2  A    between atoms: S_1  and  C_28
REMARK    3  A    between atoms: N_7  and  C_19
REMARK    4  A    between atoms: C_18  and  C_21
REMARK    5  A    between atoms: C_23  and  C_26
REMARK                            x       y       z     vdW  Elec       q    Type
REMARK                         _______ _______ _______ _____ _____    ______ ____
ROOT
ATOM      2  O   UNL     1     -12.248  -7.576   9.301  0.00  0.00    -0.266 OA
ATOM      3  O   UNL     1     -16.606  -5.258  10.849  0.00  0.00    -0.268 OA
ATOM      5  N   UNL     1     -14.843  -4.360  12.098  0.00  0.00    -0.295 N 
ATOM      6  N   UNL     1     -12.323  -5.810  10.831  0.00  0.00    -0.310 N 
ATOM      9  C   UNL     1     -13.353  -6.043  13.165  0.00  0.00    +0.027 C 
ATOM     10  C   UNL     1     -12.432  -3.877  12.444  0.00  0.00    +0.054 C 
ATOM     11  C   UNL     1     -12.384  -4.931  13.548  0.00  0.00    +0.018 C 
ATOM     12  C   UNL     1     -14.782  -5.487  13.028  0.00  0.00    +0.113 C 
ATOM     13  C   UNL     1     -12.863  -6.701  11.868  0.00  0.00    +0.130 C 
ATOM     14  C   UNL     1     -13.856  -3.296  12.345  0.00  0.00    +0.117 C 
ATOM     15  C   UNL     1     -12.030  -4.471  11.106  0.00  0.00    +0.027 A 
ATOM     16  C   UNL     1     -11.429  -3.705  10.179  0.00  0.00    +0.024 A 
ATOM     17  C   UNL     1     -12.024  -6.398   9.585  0.00  0.00    +0.273 A 
ATOM     18  C   UNL     1     -15.780  -4.373  11.061  0.00  0.00    +0.265 C 
ATOM     19  C   UNL     1     -11.381  -5.504   8.570  0.00  0.00    +0.099 A 
ATOM     20  C   UNL     1     -11.101  -4.235   8.886  0.00  0.00    +0.030 A 
ENDROOT
BRANCH  18  21
ATOM      8  N   UNL     1     -16.661  -2.262  10.396  0.00  0.00    -0.250 NA
ATOM     21  C   UNL     1     -15.780  -3.247  10.121  0.00  0.00    +0.126 A 
ATOM     22  C   UNL     1     -14.916  -3.246   9.042  0.00  0.00    +0.033 A 
ATOM     24  C   UNL     1     -14.959  -2.155   8.182  0.00  0.00    +0.004 A 
ATOM     25  C   UNL     1     -16.673  -1.218   9.538  0.00  0.00    +0.111 A 
ATOM     27  C   UNL     1     -15.851  -1.117   8.428  0.00  0.00    +0.020 A 
ENDBRANCH  18  21
BRANCH  19   7
ATOM      4  O   UNL     1      -8.888  -6.655   7.762  0.00  0.00    -0.275 OA
ATOM      7  N   UNL     1     -11.092  -6.029   7.345  0.00  0.00    -0.281 N 
ATOM     23  C   UNL     1      -9.863  -6.580   7.016  0.00  0.00    +0.227 C 
ATOM     29  H   UNL     1     -11.731  -5.801   6.587  0.00  0.00    +0.155 HD
BRANCH  23  26
ATOM     26  C   UNL     1      -9.812  -7.089   5.594  0.00  0.00    +0.164 C 
BRANCH  26   1
ATOM      1  S   UNL     1      -9.088  -8.747   5.590  0.00  0.00    -0.155 S 
ATOM     28  C   UNL     1      -7.435  -8.320   4.995  0.00  0.00    +0.085 C 
ENDBRANCH  26   1
ENDBRANCH  23  26
ENDBRANCH  19   7
TORSDOF 4
ENDMDL
MODEL 7
REMARK VINA RESULT:      -5.7     27.318     29.550
REMARK  Name = 11885911
REMARK  5 active torsions:
REMARK  status: ('A' for Active; 'I' for Inactive)
REMARK    1  A    between atoms: S_1  and  C_26
REMARK    2  A    between atoms: S_1  and  C_28
REMARK    3  A    between atoms: N_7  and  C_19
REMARK    4  A    between atoms: C_18  and  C_21
REMARK    5  A    between atoms: C_23  and  C_26
REMARK                            x       y       z     vdW  Elec       q    Type
REMARK                         _______ _______ _______ _____ _____    ______ ____
ROOT
ATOM      2  O   UNL     1      -6.141 -10.252  15.204  0.00  0.00    -0.266 OA
ATOM      3  O   UNL     1      -5.747 -14.067  11.732  0.00  0.00    -0.268 OA
ATOM      5  N   UNL     1      -4.150 -12.445  11.189  0.00  0.00    -0.295 N 
ATOM      6  N   UNL     1      -4.495 -10.354  13.548  0.00  0.00    -0.310 N 
ATOM      9  C   UNL     1      -5.026 -10.120  11.052  0.00  0.00    +0.027 C 
ATOM     10  C   UNL     1      -2.707 -10.512  11.780  0.00  0.00    +0.054 C 
ATOM     11  C   UNL     1      -3.599  -9.596  10.944  0.00  0.00    +0.018 C 
ATOM     12  C   UNL     1      -5.111 -11.564  10.525  0.00  0.00    +0.113 C 
ATOM     13  C   UNL     1      -5.482 -10.011  12.513  0.00  0.00    +0.130 C 
ATOM     14  C   UNL     1      -2.765 -11.946  11.216  0.00  0.00    +0.117 C 
ATOM     15  C   UNL     1      -3.143 -10.517  13.233  0.00  0.00    +0.027 A 
ATOM     16  C   UNL     1      -2.240 -10.715  14.210  0.00  0.00    +0.024 A 
ATOM     17  C   UNL     1      -4.964 -10.407  14.876  0.00  0.00    +0.273 A 
ATOM     18  C   UNL     1      -4.592 -13.646  11.752  0.00  0.00    +0.265 C 
ATOM     19  C   UNL     1      -3.931 -10.657  15.931  0.00  0.00    +0.099 A 
ATOM     20  C   UNL     1      -2.646 -10.787  15.585  0.00  0.00    +0.030 A 
ENDROOT
BRANCH  18  21
ATOM      8  N   UNL     1      -2.979 -15.397  11.683  0.00  0.00    -0.250 NA
ATOM     21  C   UNL     1      -3.608 -14.481  12.448  0.00  0.00    +0.126 A 
ATOM     22  C   UNL     1      -3.379 -14.299  13.800  0.00  0.00    +0.033 A 
ATOM     24  C   UNL     1      -2.437 -15.118  14.411  0.00  0.00    +0.004 A 
ATOM     25  C   UNL     1      -2.070 -16.175  12.312  0.00  0.00    +0.111 A 
ATOM     27  C   UNL     1      -1.765 -16.077  13.660  0.00  0.00    +0.020 A 
ENDBRANCH  18  21
BRANCH  19   7
ATOM      4  O   UNL     1      -4.841 -13.010  17.285  0.00  0.00    -0.275 OA
ATOM      7  N   UNL     1      -4.346 -10.734  17.228  0.00  0.00    -0.281 N 
ATOM     23  C   UNL     1      -4.771 -11.909  17.831  0.00  0.00    +0.227 C 
ATOM     29  H   UNL     1      -4.561  -9.855  17.693  0.00  0.00    +0.155 HD
BRANCH  23  26
ATOM     26  C   UNL     1      -5.176 -11.714  19.273  0.00  0.00    +0.164 C 
BRANCH  26   1
ATOM      1  S   UNL     1      -6.939 -12.082  19.442  0.00  0.00    -0.155 S 
ATOM     28  C   UNL     1      -7.601 -10.623  18.604  0.00  0.00    +0.085 C 
ENDBRANCH  26   1
ENDBRANCH  23  26
ENDBRANCH  19   7
TORSDOF 4
ENDMDL
MODEL 8
REMARK VINA RESULT:      -5.7     12.316     15.580
REMARK  Name = 11885911
REMARK  5 active torsions:
REMARK  status: ('A' for Active; 'I' for Inactive)
REMARK    1  A    between atoms: S_1  and  C_26
REMARK    2  A    between atoms: S_1  and  C_28
REMARK    3  A    between atoms: N_7  and  C_19
REMARK    4  A    between atoms: C_18  and  C_21
REMARK    5  A    between atoms: C_23  and  C_26
REMARK                            x       y       z     vdW  Elec       q    Type
REMARK                         _______ _______ _______ _____ _____    ______ ____
ROOT
ATOM      2  O   UNL     1      12.772   8.128   3.350  0.00  0.00    -0.266 OA
ATOM      3  O   UNL     1      10.695   8.784   8.043  0.00  0.00    -0.268 OA
ATOM      5  N   UNL     1       8.938   8.568   6.513  0.00  0.00    -0.295 N 
ATOM      6  N   UNL     1      10.481   8.007   3.800  0.00  0.00    -0.310 N 
ATOM      9  C   UNL     1       9.102  10.043   4.516  0.00  0.00    +0.027 C 
ATOM     10  C   UNL     1       8.022   7.839   4.322  0.00  0.00    +0.054 C 
ATOM     11  C   UNL     1       7.935   9.298   3.879  0.00  0.00    +0.018 C 
ATOM     12  C   UNL     1       9.024   9.953   6.051  0.00  0.00    +0.113 C 
ATOM     13  C   UNL     1      10.414   9.465   3.970  0.00  0.00    +0.130 C 
ATOM     14  C   UNL     1       7.898   7.757   5.857  0.00  0.00    +0.117 C 
ATOM     15  C   UNL     1       9.333   7.214   3.882  0.00  0.00    +0.027 A 
ATOM     16  C   UNL     1       9.397   5.899   3.608  0.00  0.00    +0.024 A 
ATOM     17  C   UNL     1      11.736   7.468   3.451  0.00  0.00    +0.273 A 
ATOM     18  C   UNL     1       9.825   8.112   7.492  0.00  0.00    +0.265 C 
ATOM     19  C   UNL     1      11.771   5.995   3.183  0.00  0.00    +0.099 A 
ATOM     20  C   UNL     1      10.643   5.281   3.253  0.00  0.00    +0.030 A 
ENDROOT
BRANCH  18  21
ATOM      8  N   UNL     1       9.078   6.472   9.050  0.00  0.00    -0.250 NA
ATOM     21  C   UNL     1       9.738   6.705   7.896  0.00  0.00    +0.126 A 
ATOM     22  C   UNL     1      10.313   5.722   7.111  0.00  0.00    +0.033 A 
ATOM     24  C   UNL     1      10.202   4.405   7.541  0.00  0.00    +0.004 A 
ATOM     25  C   UNL     1       8.991   5.180   9.436  0.00  0.00    +0.111 A 
ATOM     27  C   UNL     1       9.530   4.120   8.725  0.00  0.00    +0.020 A 
ENDBRANCH  18  21
BRANCH  19   7
ATOM      4  O   UNL     1      12.671   5.309   0.554  0.00  0.00    -0.275 OA
ATOM      7  N   UNL     1      12.970   5.431   2.860  0.00  0.00    -0.281 N 
ATOM     23  C   UNL     1      13.352   5.127   1.562  0.00  0.00    +0.227 C 
ATOM     29  H   UNL     1      13.501   5.017   3.623  0.00  0.00    +0.155 HD
BRANCH  23  26
ATOM     26  C   UNL     1      14.729   4.509   1.487  0.00  0.00    +0.164 C 
BRANCH  26   1
ATOM      1  S   UNL     1      15.670   5.332   0.180  0.00  0.00    -0.155 S 
ATOM     28  C   UNL     1      15.822   6.965   0.943  0.00  0.00    +0.085 C 
ENDBRANCH  26   1
ENDBRANCH  23  26
ENDBRANCH  19   7
TORSDOF 4
ENDMDL
MODEL 9
REMARK VINA RESULT:      -5.6     14.621     19.396
REMARK  Name = 11885911
REMARK  5 active torsions:
REMARK  status: ('A' for Active; 'I' for Inactive)
REMARK    1  A    between atoms: S_1  and  C_26
REMARK    2  A    between atoms: S_1  and  C_28
REMARK    3  A    between atoms: N_7  and  C_19
REMARK    4  A    between atoms: C_18  and  C_21
REMARK    5  A    between atoms: C_23  and  C_26
REMARK                            x       y       z     vdW  Elec       q    Type
REMARK                         _______ _______ _______ _____ _____    ______ ____
ROOT
ATOM      2  O   UNL     1      12.459   7.246   3.472  0.00  0.00    -0.266 OA
ATOM      3  O   UNL     1      13.263   7.368  -1.637  0.00  0.00    -0.268 OA
ATOM      5  N   UNL     1      13.819   5.225  -0.882  0.00  0.00    -0.295 N 
ATOM      6  N   UNL     1      13.069   5.386   2.195  0.00  0.00    -0.310 N 
ATOM      9  C   UNL     1      15.361   5.171   1.070  0.00  0.00    +0.027 C 
ATOM     10  C   UNL     1      13.685   3.390   0.786  0.00  0.00    +0.054 C 
ATOM     11  C   UNL     1      15.127   3.670   1.204  0.00  0.00    +0.018 C 
ATOM     12  C   UNL     1      15.136   5.623  -0.385  0.00  0.00    +0.113 C 
ATOM     13  C   UNL     1      14.437   5.904   2.052  0.00  0.00    +0.130 C 
ATOM     14  C   UNL     1      13.483   3.805  -0.685  0.00  0.00    +0.117 C 
ATOM     15  C   UNL     1      12.706   4.143   1.668  0.00  0.00    +0.027 A 
ATOM     16  C   UNL     1      11.485   3.636   1.910  0.00  0.00    +0.024 A 
ATOM     17  C   UNL     1      12.180   6.155   2.973  0.00  0.00    +0.273 A 
ATOM     18  C   UNL     1      12.987   6.182  -1.470  0.00  0.00    +0.265 C 
ATOM     19  C   UNL     1      10.820   5.568   3.195  0.00  0.00    +0.099 A 
ATOM     20  C   UNL     1      10.525   4.366   2.688  0.00  0.00    +0.030 A 
ENDROOT
BRANCH  18  21
ATOM      8  N   UNL     1      11.582   5.328  -3.193  0.00  0.00    -0.250 NA
ATOM     21  C   UNL     1      11.657   5.755  -1.916  0.00  0.00    +0.126 A 
ATOM     22  C   UNL     1      10.585   5.808  -1.044  0.00  0.00    +0.033 A 
ATOM     24  C   UNL     1       9.346   5.393  -1.518  0.00  0.00    +0.004 A 
ATOM     25  C   UNL     1      10.362   4.933  -3.619  0.00  0.00    +0.111 A 
ATOM     27  C   UNL     1       9.224   4.945  -2.829  0.00  0.00    +0.020 A 
ENDBRANCH  18  21
BRANCH  19   7
ATOM      4  O   UNL     1       9.946   4.986   5.858  0.00  0.00    -0.275 OA
ATOM      7  N   UNL     1       9.923   6.289   3.927  0.00  0.00    -0.281 N 
ATOM     23  C   UNL     1       9.544   5.958   5.219  0.00  0.00    +0.227 C 
ATOM     29  H   UNL     1       9.351   6.959   3.419  0.00  0.00    +0.155 HD
BRANCH  23  26
ATOM     26  C   UNL     1       8.536   6.924   5.799  0.00  0.00    +0.164 C 
BRANCH  26   1
ATOM      1  S   UNL     1       9.326   8.538   6.010  0.00  0.00    -0.155 S 
ATOM     28  C   UNL     1      10.452   8.114   7.360  0.00  0.00    +0.085 C 
ENDBRANCH  26   1
ENDBRANCH  23  26
ENDBRANCH  19   7
TORSDOF 4
ENDMDL
MODEL 10
REMARK VINA RESULT:      -5.5     12.970     15.890
REMARK  Name = 11885911
REMARK  5 active torsions:
REMARK  status: ('A' for Active; 'I' for Inactive)
REMARK    1  A    between atoms: S_1  and  C_26
REMARK    2  A    between atoms: S_1  and  C_28
REMARK    3  A    between atoms: N_7  and  C_19
REMARK    4  A    between atoms: C_18  and  C_21
REMARK    5  A    between atoms: C_23  and  C_26
REMARK                            x       y       z     vdW  Elec       q    Type
REMARK                         _______ _______ _______ _____ _____    ______ ____
ROOT
ATOM      2  O   UNL     1       8.341   8.033   2.994  0.00  0.00    -0.266 OA
ATOM      3  O   UNL     1      11.788  10.127   6.235  0.00  0.00    -0.268 OA
ATOM      5  N   UNL     1      11.157   8.051   7.113  0.00  0.00    -0.295 N 
ATOM      6  N   UNL     1       9.213   6.940   4.867  0.00  0.00    -0.310 N 
ATOM      9  C   UNL     1       8.701   7.682   7.265  0.00  0.00    +0.027 C 
ATOM     10  C   UNL     1      10.203   5.772   6.868  0.00  0.00    +0.054 C 
ATOM     11  C   UNL     1       8.950   6.220   7.619  0.00  0.00    +0.018 C 
ATOM     12  C   UNL     1       9.904   8.549   7.681  0.00  0.00    +0.113 C 
ATOM     13  C   UNL     1       8.408   7.783   5.763  0.00  0.00    +0.130 C 
ATOM     14  C   UNL     1      11.409   6.616   7.324  0.00  0.00    +0.117 C 
ATOM     15  C   UNL     1      10.018   5.913   5.368  0.00  0.00    +0.027 A 
ATOM     16  C   UNL     1      10.654   5.080   4.527  0.00  0.00    +0.024 A 
ATOM     17  C   UNL     1       9.052   7.154   3.483  0.00  0.00    +0.273 A 
ATOM     18  C   UNL     1      11.993   8.928   6.415  0.00  0.00    +0.265 C 
ATOM     19  C   UNL     1       9.800   6.223   2.579  0.00  0.00    +0.099 A 
ATOM     20  C   UNL     1      10.542   5.242   3.105  0.00  0.00    +0.030 A 
ENDROOT
BRANCH  18  21
ATOM      8  N   UNL     1      14.323   8.470   6.589  0.00  0.00    -0.250 NA
ATOM     21  C   UNL     1      13.218   8.383   5.821  0.00  0.00    +0.126 A 
ATOM     22  C   UNL     1      13.186   7.829   4.554  0.00  0.00    +0.033 A 
ATOM     24  C   UNL     1      14.375   7.328   4.038  0.00  0.00    +0.004 A 
ATOM     25  C   UNL     1      15.460   7.972   6.054  0.00  0.00    +0.111 A 
ATOM     27  C   UNL     1      15.539   7.397   4.796  0.00  0.00    +0.020 A 
ENDBRANCH  18  21
BRANCH  19   7
ATOM      4  O   UNL     1      11.695   7.530   0.879  0.00  0.00    -0.275 OA
ATOM      7  N   UNL     1       9.685   6.407   1.233  0.00  0.00    -0.281 N 
ATOM     23  C   UNL     1      10.645   7.045   0.460  0.00  0.00    +0.227 C 
ATOM     29  H   UNL     1       8.762   6.269   0.829  0.00  0.00    +0.155 HD
BRANCH  23  26
ATOM     26  C   UNL     1      10.268   7.114  -1.001  0.00  0.00    +0.164 C 
BRANCH  26   1
ATOM      1  S   UNL     1       9.815   5.457  -1.569  0.00  0.00    -0.155 S 
ATOM     28  C   UNL     1      11.430   4.661  -1.395  0.00  0.00    +0.085 C 
ENDBRANCH  26   1
ENDBRANCH  23  26
ENDBRANCH  19   7
TORSDOF 4
ENDMDL
