MODEL 1
REMARK VINA RESULT:      -5.5      0.000      0.000
REMARK  Name = 7164880
REMARK  12 active torsions:
REMARK  status: ('A' for Active; 'I' for Inactive)
REMARK    1  A    between atoms: S_1  and  N_10
REMARK    2  A    between atoms: S_1  and  C_19
REMARK    3  A    between atoms: O_7  and  C_25
REMARK    4  A    between atoms: O_7  and  C_38
REMARK    5  A    between atoms: O_9  and  C_37
REMARK    6  A    between atoms: O_9  and  C_39
REMARK    7  A    between atoms: N_12  and  C_20
REMARK    8  A    between atoms: C_13  and  C_17
REMARK    9  A    between atoms: C_18  and  C_21
REMARK   10  A    between atoms: C_20  and  C_22
REMARK   11  A    between atoms: C_20  and  C_25
REMARK   12  A    between atoms: C_22  and  C_26
REMARK                            x       y       z     vdW  Elec       q    Type
REMARK                         _______ _______ _______ _____ _____    ______ ____
ROOT
ATOM      6  O   UNL     1      16.614  10.199   6.552  0.00  0.00    -0.269 OA
ATOM     10  N   UNL     1      12.188  10.291   4.240  0.00  0.00    -0.173 NA
ATOM     11  N   UNL     1      14.906   9.862   5.015  0.00  0.00    -0.283 N 
ATOM     13  C   UNL     1      14.424   9.335   3.726  0.00  0.00    +0.178 C 
ATOM     14  C   UNL     1      13.223  10.107   3.181  0.00  0.00    +0.141 C 
ATOM     15  C   UNL     1      12.745  10.996   5.428  0.00  0.00    +0.128 C 
ATOM     16  C   UNL     1      13.875  10.164   6.015  0.00  0.00    +0.126 C 
ATOM     18  C   UNL     1      16.262   9.913   5.405  0.00  0.00    +0.254 C 
ENDROOT
BRANCH  18  21
ATOM      2  S   UNL     1      17.685  10.814   3.250  0.00  0.00    -0.092 S 
ATOM     21  C   UNL     1      17.260   9.608   4.389  0.00  0.00    +0.074 A 
ATOM     27  C   UNL     1      17.958   8.437   4.187  0.00  0.00    +0.021 A 
ATOM     31  C   UNL     1      18.853   8.532   3.082  0.00  0.00    +0.008 A 
ATOM     34  C   UNL     1      18.805   9.771   2.482  0.00  0.00    +0.046 A 
ENDBRANCH  18  21
BRANCH  13  17
ATOM      5  O   UNL     1      14.791   7.172   4.673  0.00  0.00    -0.274 OA
ATOM     12  N   UNL     1      12.983   7.482   3.240  0.00  0.00    -0.301 N 
ATOM     17  C   UNL     1      14.101   7.885   3.950  0.00  0.00    +0.236 C 
ATOM     40  H   UNL     1      12.562   8.132   2.586  0.00  0.00    +0.150 HD
BRANCH  12  20
ATOM     20  C   UNL     1      12.477   6.129   3.266  0.00  0.00    +0.186 C 
BRANCH  20  25
ATOM      8  O   UNL     1      12.450   5.969   0.855  0.00  0.00    -0.249 OA
ATOM     25  C   UNL     1      12.656   5.417   1.932  0.00  0.00    +0.328 C 
BRANCH  25   7
ATOM      7  O   UNL     1      13.047   4.122   2.088  0.00  0.00    -0.467 OA
ATOM     38  C   UNL     1      13.837   3.579   1.025  0.00  0.00    +0.280 C 
ENDBRANCH  25   7
ENDBRANCH  20  25
BRANCH  20  22
ATOM     22  C   UNL     1      11.019   6.088   3.748  0.00  0.00    +0.069 C 
BRANCH  22  26
ATOM     26  C   UNL     1      10.850   5.860   5.234  0.00  0.00    -0.045 A 
ATOM     32  C   UNL     1       9.946   4.905   5.695  0.00  0.00    +0.007 A 
ATOM     33  C   UNL     1      11.601   6.606   6.143  0.00  0.00    +0.007 A 
ATOM     35  C   UNL     1       9.792   4.694   7.065  0.00  0.00    +0.046 A 
ATOM     36  C   UNL     1      11.447   6.396   7.513  0.00  0.00    +0.046 A 
ATOM     37  C   UNL     1      10.541   5.440   7.975  0.00  0.00    +0.120 A 
BRANCH  37   9
ATOM      9  O   UNL     1      10.391   5.234   9.311  0.00  0.00    -0.495 OA
ATOM     39  C   UNL     1       9.242   4.498   9.730  0.00  0.00    +0.277 C 
ENDBRANCH  37   9
ENDBRANCH  22  26
ENDBRANCH  20  22
ENDBRANCH  12  20
ENDBRANCH  13  17
BRANCH  10   1
ATOM      1  S   UNL     1      10.668  10.861   3.692  0.00  0.00    +0.061 S 
ATOM      3  O   UNL     1      10.557  10.617   2.270  0.00  0.00    -0.153 OA
ATOM      4  O   UNL     1      10.433  12.178   4.245  0.00  0.00    -0.153 OA
BRANCH   1  19
ATOM     19  C   UNL     1       9.598   9.726   4.519  0.00  0.00    +0.105 A 
ATOM     23  C   UNL     1       9.589   9.665   5.912  0.00  0.00    +0.028 A 
ATOM     24  C   UNL     1       8.762   8.890   3.780  0.00  0.00    +0.028 A 
ATOM     28  C   UNL     1       8.743   8.769   6.567  0.00  0.00    +0.002 A 
ATOM     29  C   UNL     1       7.916   7.994   4.433  0.00  0.00    +0.002 A 
ATOM     30  C   UNL     1       7.907   7.934   5.826  0.00  0.00    +0.000 A 
ENDBRANCH   1  19
ENDBRANCH  10   1
TORSDOF 10
ENDMDL
MODEL 2
REMARK VINA RESULT:      -5.4      2.707      7.199
REMARK  Name = 7164880
REMARK  12 active torsions:
REMARK  status: ('A' for Active; 'I' for Inactive)
REMARK    1  A    between atoms: S_1  and  N_10
REMARK    2  A    between atoms: S_1  and  C_19
REMARK    3  A    between atoms: O_7  and  C_25
REMARK    4  A    between atoms: O_7  and  C_38
REMARK    5  A    between atoms: O_9  and  C_37
REMARK    6  A    between atoms: O_9  and  C_39
REMARK    7  A    between atoms: N_12  and  C_20
REMARK    8  A    between atoms: C_13  and  C_17
REMARK    9  A    between atoms: C_18  and  C_21
REMARK   10  A    between atoms: C_20  and  C_22
REMARK   11  A    between atoms: C_20  and  C_25
REMARK   12  A    between atoms: C_22  and  C_26
REMARK                            x       y       z     vdW  Elec       q    Type
REMARK                         _______ _______ _______ _____ _____    ______ ____
ROOT
ATOM      6  O   UNL     1       8.891  10.915   1.449  0.00  0.00    -0.269 OA
ATOM     10  N   UNL     1      11.104  10.476   5.904  0.00  0.00    -0.173 NA
ATOM     11  N   UNL     1       9.285  10.500   3.700  0.00  0.00    -0.283 N 
ATOM     13  C   UNL     1       8.803  10.116   5.038  0.00  0.00    +0.178 C 
ATOM     14  C   UNL     1       9.652  10.701   6.165  0.00  0.00    +0.141 C 
ATOM     15  C   UNL     1      11.520  11.065   4.601  0.00  0.00    +0.128 C 
ATOM     16  C   UNL     1      10.733  10.399   3.482  0.00  0.00    +0.126 C 
ATOM     18  C   UNL     1       8.451  10.766   2.591  0.00  0.00    +0.254 C 
ENDROOT
BRANCH  18  21
ATOM      2  S   UNL     1       6.395  12.263   3.597  0.00  0.00    -0.092 S 
ATOM     21  C   UNL     1       7.019  10.859   2.841  0.00  0.00    +0.074 A 
ATOM     27  C   UNL     1       6.030   9.946   2.549  0.00  0.00    +0.021 A 
ATOM     31  C   UNL     1       4.742  10.406   2.951  0.00  0.00    +0.008 A 
ATOM     34  C   UNL     1       4.797  11.652   3.535  0.00  0.00    +0.046 A 
ENDBRANCH  18  21
BRANCH  13  17
ATOM      5  O   UNL     1       8.239   7.952   4.195  0.00  0.00    -0.274 OA
ATOM     12  N   UNL     1       9.422   8.109   6.194  0.00  0.00    -0.301 N 
ATOM     17  C   UNL     1       8.786   8.614   5.073  0.00  0.00    +0.236 C 
ATOM     40  H   UNL     1       9.735   8.757   6.908  0.00  0.00    +0.150 HD
BRANCH  12  20
ATOM     20  C   UNL     1       9.523   6.695   6.474  0.00  0.00    +0.186 C 
BRANCH  20  25
ATOM      8  O   UNL     1       8.570   7.169   8.644  0.00  0.00    -0.249 OA
ATOM     25  C   UNL     1       9.111   6.356   7.901  0.00  0.00    +0.328 C 
BRANCH  25   7
ATOM      7  O   UNL     1       9.427   5.074   8.235  0.00  0.00    -0.467 OA
ATOM     38  C   UNL     1       9.293   4.744   9.621  0.00  0.00    +0.280 C 
ENDBRANCH  25   7
ENDBRANCH  20  25
BRANCH  20  22
ATOM     22  C   UNL     1      10.923   6.159   6.138  0.00  0.00    +0.069 C 
BRANCH  22  26
ATOM     26  C   UNL     1      11.159   5.885   4.669  0.00  0.00    -0.045 A 
ATOM     32  C   UNL     1      10.536   4.802   4.052  0.00  0.00    +0.007 A 
ATOM     33  C   UNL     1      12.002   6.718   3.932  0.00  0.00    +0.007 A 
ATOM     35  C   UNL     1      10.753   4.552   2.697  0.00  0.00    +0.046 A 
ATOM     36  C   UNL     1      12.221   6.467   2.578  0.00  0.00    +0.046 A 
ATOM     37  C   UNL     1      11.596   5.383   1.960  0.00  0.00    +0.120 A 
BRANCH  37   9
ATOM      9  O   UNL     1      11.808   5.138   0.639  0.00  0.00    -0.495 OA
ATOM     39  C   UNL     1      10.829   4.354  -0.042  0.00  0.00    +0.277 C 
ENDBRANCH  37   9
ENDBRANCH  22  26
ENDBRANCH  20  22
ENDBRANCH  12  20
ENDBRANCH  13  17
BRANCH  10   1
ATOM      1  S   UNL     1      12.148  10.800   7.224  0.00  0.00    +0.061 S 
ATOM      3  O   UNL     1      11.550  10.284   8.437  0.00  0.00    -0.153 OA
ATOM      4  O   UNL     1      12.599  12.173   7.140  0.00  0.00    -0.153 OA
BRANCH   1  19
ATOM     19  C   UNL     1      13.507   9.754   6.805  0.00  0.00    +0.105 A 
ATOM     23  C   UNL     1      14.718  10.314   6.399  0.00  0.00    +0.028 A 
ATOM     24  C   UNL     1      13.370   8.369   6.880  0.00  0.00    +0.028 A 
ATOM     28  C   UNL     1      15.793   9.488   6.069  0.00  0.00    +0.002 A 
ATOM     29  C   UNL     1      14.444   7.542   6.550  0.00  0.00    +0.002 A 
ATOM     30  C   UNL     1      15.655   8.102   6.144  0.00  0.00    +0.000 A 
ENDBRANCH   1  19
ENDBRANCH  10   1
TORSDOF 10
ENDMDL
MODEL 3
REMARK VINA RESULT:      -5.4      2.768      6.692
REMARK  Name = 7164880
REMARK  12 active torsions:
REMARK  status: ('A' for Active; 'I' for Inactive)
REMARK    1  A    between atoms: S_1  and  N_10
REMARK    2  A    between atoms: S_1  and  C_19
REMARK    3  A    between atoms: O_7  and  C_25
REMARK    4  A    between atoms: O_7  and  C_38
REMARK    5  A    between atoms: O_9  and  C_37
REMARK    6  A    between atoms: O_9  and  C_39
REMARK    7  A    between atoms: N_12  and  C_20
REMARK    8  A    between atoms: C_13  and  C_17
REMARK    9  A    between atoms: C_18  and  C_21
REMARK   10  A    between atoms: C_20  and  C_22
REMARK   11  A    between atoms: C_20  and  C_25
REMARK   12  A    between atoms: C_22  and  C_26
REMARK                            x       y       z     vdW  Elec       q    Type
REMARK                         _______ _______ _______ _____ _____    ______ ____
ROOT
ATOM      6  O   UNL     1      10.895  13.499   6.713  0.00  0.00    -0.269 OA
ATOM     10  N   UNL     1      13.686   9.515   5.580  0.00  0.00    -0.173 NA
ATOM     11  N   UNL     1      11.771  11.349   6.648  0.00  0.00    -0.283 N 
ATOM     13  C   UNL     1      11.802   9.961   7.139  0.00  0.00    +0.178 C 
ATOM     14  C   UNL     1      13.169   9.299   6.963  0.00  0.00    +0.141 C 
ATOM     15  C   UNL     1      13.780  10.965   5.255  0.00  0.00    +0.128 C 
ATOM     16  C   UNL     1      12.393  11.585   5.340  0.00  0.00    +0.126 C 
ATOM     18  C   UNL     1      11.036  12.396   7.246  0.00  0.00    +0.254 C 
ENDROOT
BRANCH  18  21
ATOM      2  S   UNL     1      11.399  12.232   9.952  0.00  0.00    -0.092 S 
ATOM     21  C   UNL     1      10.430  12.130   8.544  0.00  0.00    +0.074 A 
ATOM     27  C   UNL     1       9.128  11.790   8.836  0.00  0.00    +0.021 A 
ATOM     31  C   UNL     1       8.922  11.611  10.235  0.00  0.00    +0.008 A 
ATOM     34  C   UNL     1      10.075  11.821  10.957  0.00  0.00    +0.046 A 
ENDBRANCH  18  21
BRANCH  13  17
ATOM      5  O   UNL     1       9.657   9.752   6.108  0.00  0.00    -0.274 OA
ATOM     12  N   UNL     1      11.078   7.908   6.135  0.00  0.00    -0.301 N 
ATOM     17  C   UNL     1      10.724   9.220   6.401  0.00  0.00    +0.236 C 
ATOM     40  H   UNL     1      11.940   7.548   6.529  0.00  0.00    +0.150 HD
BRANCH  12  20
ATOM     20  C   UNL     1      10.206   6.978   5.456  0.00  0.00    +0.186 C 
BRANCH  20  25
ATOM      8  O   UNL     1       7.958   6.203   5.890  0.00  0.00    -0.249 OA
ATOM     25  C   UNL     1       9.059   6.507   6.340  0.00  0.00    +0.328 C 
BRANCH  25   7
ATOM      7  O   UNL     1       9.403   6.483   7.658  0.00  0.00    -0.467 OA
ATOM     38  C   UNL     1       9.675   5.189   8.205  0.00  0.00    +0.280 C 
ENDBRANCH  25   7
ENDBRANCH  20  25
BRANCH  20  22
ATOM     22  C   UNL     1      10.997   5.801   4.866  0.00  0.00    +0.069 C 
BRANCH  22  26
ATOM     26  C   UNL     1      10.706   5.509   3.411  0.00  0.00    -0.045 A 
ATOM     32  C   UNL     1      10.059   6.460   2.623  0.00  0.00    +0.007 A 
ATOM     33  C   UNL     1      11.085   4.286   2.856  0.00  0.00    +0.007 A 
ATOM     35  C   UNL     1       9.793   6.191   1.281  0.00  0.00    +0.046 A 
ATOM     36  C   UNL     1      10.818   4.016   1.514  0.00  0.00    +0.046 A 
ATOM     37  C   UNL     1      10.171   4.968   0.726  0.00  0.00    +0.120 A 
BRANCH  37   9
ATOM      9  O   UNL     1       9.910   4.705  -0.582  0.00  0.00    -0.495 OA
ATOM     39  C   UNL     1      11.033   4.556  -1.451  0.00  0.00    +0.277 C 
ENDBRANCH  37   9
ENDBRANCH  22  26
ENDBRANCH  20  22
ENDBRANCH  12  20
ENDBRANCH  13  17
BRANCH  10   1
ATOM      1  S   UNL     1      15.051   8.574   5.150  0.00  0.00    +0.061 S 
ATOM      3  O   UNL     1      15.219   7.514   6.121  0.00  0.00    -0.153 OA
ATOM      4  O   UNL     1      16.145   9.460   4.815  0.00  0.00    -0.153 OA
BRANCH   1  19
ATOM     19  C   UNL     1      14.463   7.846   3.652  0.00  0.00    +0.105 A 
ATOM     23  C   UNL     1      13.552   8.536   2.853  0.00  0.00    +0.028 A 
ATOM     24  C   UNL     1      14.911   6.583   3.269  0.00  0.00    +0.028 A 
ATOM     28  C   UNL     1      13.088   7.962   1.669  0.00  0.00    +0.002 A 
ATOM     29  C   UNL     1      14.447   6.008   2.085  0.00  0.00    +0.002 A 
ATOM     30  C   UNL     1      13.536   6.698   1.286  0.00  0.00    +0.000 A 
ENDBRANCH   1  19
ENDBRANCH  10   1
TORSDOF 10
ENDMDL
MODEL 4
REMARK VINA RESULT:      -5.3     25.751     28.540
REMARK  Name = 7164880
REMARK  12 active torsions:
REMARK  status: ('A' for Active; 'I' for Inactive)
REMARK    1  A    between atoms: S_1  and  N_10
REMARK    2  A    between atoms: S_1  and  C_19
REMARK    3  A    between atoms: O_7  and  C_25
REMARK    4  A    between atoms: O_7  and  C_38
REMARK    5  A    between atoms: O_9  and  C_37
REMARK    6  A    between atoms: O_9  and  C_39
REMARK    7  A    between atoms: N_12  and  C_20
REMARK    8  A    between atoms: C_13  and  C_17
REMARK    9  A    between atoms: C_18  and  C_21
REMARK   10  A    between atoms: C_20  and  C_22
REMARK   11  A    between atoms: C_20  and  C_25
REMARK   12  A    between atoms: C_22  and  C_26
REMARK                            x       y       z     vdW  Elec       q    Type
REMARK                         _______ _______ _______ _____ _____    ______ ____
ROOT
ATOM      6  O   UNL     1      -9.677 -11.569  13.637  0.00  0.00    -0.269 OA
ATOM     10  N   UNL     1      -5.871  -9.854  10.897  0.00  0.00    -0.173 NA
ATOM     11  N   UNL     1      -7.699 -10.544  12.983  0.00  0.00    -0.283 N 
ATOM     13  C   UNL     1      -6.504  -9.742  13.298  0.00  0.00    +0.178 C 
ATOM     14  C   UNL     1      -5.976  -8.966  12.092  0.00  0.00    +0.141 C 
ATOM     15  C   UNL     1      -7.183 -10.474  10.563  0.00  0.00    +0.128 C 
ATOM     16  C   UNL     1      -7.645 -11.322  11.740  0.00  0.00    +0.126 C 
ATOM     18  C   UNL     1      -8.779 -10.757  13.867  0.00  0.00    +0.254 C 
ENDROOT
BRANCH  18  21
ATOM      2  S   UNL     1      -9.859  -8.626  15.200  0.00  0.00    -0.092 S 
ATOM     21  C   UNL     1      -8.803  -9.969  15.093  0.00  0.00    +0.074 A 
ATOM     27  C   UNL     1      -8.070 -10.144  16.246  0.00  0.00    +0.021 A 
ATOM     31  C   UNL     1      -8.379  -9.161  17.231  0.00  0.00    +0.008 A 
ATOM     34  C   UNL     1      -9.337  -8.273  16.792  0.00  0.00    +0.046 A 
ENDBRANCH  18  21
BRANCH  13  17
ATOM      5  O   UNL     1      -5.473 -11.884  13.537  0.00  0.00    -0.274 OA
ATOM     12  N   UNL     1      -4.599 -10.075  14.713  0.00  0.00    -0.301 N 
ATOM     17  C   UNL     1      -5.479 -10.695  13.842  0.00  0.00    +0.236 C 
ATOM     40  H   UNL     1      -4.774  -9.112  14.978  0.00  0.00    +0.150 HD
BRANCH  12  20
ATOM     20  C   UNL     1      -3.533 -10.778  15.390  0.00  0.00    +0.186 C 
BRANCH  20  25
ATOM      8  O   UNL     1      -1.515  -9.895  14.395  0.00  0.00    -0.249 OA
ATOM     25  C   UNL     1      -2.265 -10.855  14.551  0.00  0.00    +0.328 C 
BRANCH  25   7
ATOM      7  O   UNL     1      -2.087 -12.088  14.000  0.00  0.00    -0.467 OA
ATOM     38  C   UNL     1      -2.173 -12.148  12.573  0.00  0.00    +0.280 C 
ENDBRANCH  25   7
ENDBRANCH  20  25
BRANCH  20  22
ATOM     22  C   UNL     1      -3.993 -12.164  15.865  0.00  0.00    +0.069 C 
BRANCH  22  26
ATOM     26  C   UNL     1      -4.972 -12.146  17.017  0.00  0.00    -0.045 A 
ATOM     32  C   UNL     1      -4.832 -11.207  18.037  0.00  0.00    +0.007 A 
ATOM     33  C   UNL     1      -6.016 -13.071  17.059  0.00  0.00    +0.007 A 
ATOM     35  C   UNL     1      -5.736 -11.190  19.099  0.00  0.00    +0.046 A 
ATOM     36  C   UNL     1      -6.920 -13.055  18.121  0.00  0.00    +0.046 A 
ATOM     37  C   UNL     1      -6.780 -12.114  19.142  0.00  0.00    +0.120 A 
BRANCH  37   9
ATOM      9  O   UNL     1      -7.662 -12.097  20.177  0.00  0.00    -0.495 OA
ATOM     39  C   UNL     1      -9.048 -12.020  19.849  0.00  0.00    +0.277 C 
ENDBRANCH  37   9
ENDBRANCH  22  26
ENDBRANCH  20  22
ENDBRANCH  12  20
ENDBRANCH  13  17
BRANCH  10   1
ATOM      1  S   UNL     1      -5.006  -9.202   9.569  0.00  0.00    +0.061 S 
ATOM      3  O   UNL     1      -3.705  -8.763  10.023  0.00  0.00    -0.153 OA
ATOM      4  O   UNL     1      -5.880  -8.314   8.832  0.00  0.00    -0.153 OA
BRANCH   1  19
ATOM     19  C   UNL     1      -4.777 -10.663   8.605  0.00  0.00    +0.105 A 
ATOM     23  C   UNL     1      -5.089 -10.657   7.246  0.00  0.00    +0.028 A 
ATOM     24  C   UNL     1      -4.284 -11.822   9.202  0.00  0.00    +0.028 A 
ATOM     28  C   UNL     1      -4.907 -11.811   6.483  0.00  0.00    +0.002 A 
ATOM     29  C   UNL     1      -4.102 -12.976   8.440  0.00  0.00    +0.002 A 
ATOM     30  C   UNL     1      -4.413 -12.970   7.081  0.00  0.00    +0.000 A 
ENDBRANCH   1  19
ENDBRANCH  10   1
TORSDOF 10
ENDMDL
MODEL 5
REMARK VINA RESULT:      -5.2     26.528     30.400
REMARK  Name = 7164880
REMARK  12 active torsions:
REMARK  status: ('A' for Active; 'I' for Inactive)
REMARK    1  A    between atoms: S_1  and  N_10
REMARK    2  A    between atoms: S_1  and  C_19
REMARK    3  A    between atoms: O_7  and  C_25
REMARK    4  A    between atoms: O_7  and  C_38
REMARK    5  A    between atoms: O_9  and  C_37
REMARK    6  A    between atoms: O_9  and  C_39
REMARK    7  A    between atoms: N_12  and  C_20
REMARK    8  A    between atoms: C_13  and  C_17
REMARK    9  A    between atoms: C_18  and  C_21
REMARK   10  A    between atoms: C_20  and  C_22
REMARK   11  A    between atoms: C_20  and  C_25
REMARK   12  A    between atoms: C_22  and  C_26
REMARK                            x       y       z     vdW  Elec       q    Type
REMARK                         _______ _______ _______ _____ _____    ______ ____
ROOT
ATOM      6  O   UNL     1      -6.993 -12.454  10.341  0.00  0.00    -0.269 OA
ATOM     10  N   UNL     1      -5.653 -11.193  14.984  0.00  0.00    -0.173 NA
ATOM     11  N   UNL     1      -6.695 -11.282  12.324  0.00  0.00    -0.283 N 
ATOM     13  C   UNL     1      -6.843 -10.053  13.123  0.00  0.00    +0.178 C 
ATOM     14  C   UNL     1      -5.779  -9.922  14.212  0.00  0.00    +0.141 C 
ATOM     15  C   UNL     1      -5.324 -12.340  14.092  0.00  0.00    +0.128 C 
ATOM     16  C   UNL     1      -6.444 -12.516  13.077  0.00  0.00    +0.126 C 
ATOM     18  C   UNL     1      -6.962 -11.377  10.940  0.00  0.00    +0.254 C 
ENDROOT
BRANCH  18  21
ATOM      2  S   UNL     1      -5.876  -9.256   9.597  0.00  0.00    -0.092 S 
ATOM     21  C   UNL     1      -7.207 -10.133  10.221  0.00  0.00    +0.074 A 
ATOM     27  C   UNL     1      -8.408  -9.517   9.947  0.00  0.00    +0.021 A 
ATOM     31  C   UNL     1      -8.233  -8.307   9.215  0.00  0.00    +0.008 A 
ATOM     34  C   UNL     1      -6.905  -8.045   8.958  0.00  0.00    +0.046 A 
ENDBRANCH  18  21
BRANCH  13  17
ATOM      5  O   UNL     1      -9.167 -10.609  13.106  0.00  0.00    -0.274 OA
ATOM     12  N   UNL     1      -8.303  -9.435  14.921  0.00  0.00    -0.301 N 
ATOM     17  C   UNL     1      -8.231 -10.081  13.699  0.00  0.00    +0.236 C 
ATOM     40  H   UNL     1      -7.486  -8.936  15.256  0.00  0.00    +0.150 HD
BRANCH  12  20
ATOM     20  C   UNL     1      -9.531  -9.302  15.672  0.00  0.00    +0.186 C 
BRANCH  20  25
ATOM      8  O   UNL     1     -11.155  -8.155  14.298  0.00  0.00    -0.249 OA
ATOM     25  C   UNL     1     -10.355  -8.101  15.228  0.00  0.00    +0.328 C 
BRANCH  25   7
ATOM      7  O   UNL     1     -10.082  -6.990  15.966  0.00  0.00    -0.467 OA
ATOM     38  C   UNL     1     -11.207  -6.162  16.280  0.00  0.00    +0.280 C 
ENDBRANCH  25   7
ENDBRANCH  20  25
BRANCH  20  22
ATOM     22  C   UNL     1      -9.260  -9.286  17.184  0.00  0.00    +0.069 C 
BRANCH  22  26
ATOM     26  C   UNL     1     -10.148 -10.202  17.995  0.00  0.00    -0.045 A 
ATOM     32  C   UNL     1     -10.722 -11.325  17.401  0.00  0.00    +0.007 A 
ATOM     33  C   UNL     1     -10.393  -9.924  19.340  0.00  0.00    +0.007 A 
ATOM     35  C   UNL     1     -11.540 -12.170  18.150  0.00  0.00    +0.046 A 
ATOM     36  C   UNL     1     -11.212 -10.769  20.090  0.00  0.00    +0.046 A 
ATOM     37  C   UNL     1     -11.786 -11.892  19.494  0.00  0.00    +0.120 A 
BRANCH  37   9
ATOM      9  O   UNL     1     -12.583 -12.717  20.225  0.00  0.00    -0.495 OA
ATOM     39  C   UNL     1     -13.214 -12.158  21.377  0.00  0.00    +0.277 C 
ENDBRANCH  37   9
ENDBRANCH  22  26
ENDBRANCH  20  22
ENDBRANCH  12  20
ENDBRANCH  13  17
BRANCH  10   1
ATOM      1  S   UNL     1      -4.728 -11.091  16.422  0.00  0.00    +0.061 S 
ATOM      3  O   UNL     1      -4.452  -9.699  16.708  0.00  0.00    -0.153 OA
ATOM      4  O   UNL     1      -3.661 -12.067  16.364  0.00  0.00    -0.153 OA
BRANCH   1  19
ATOM     19  C   UNL     1      -5.920 -11.657  17.595  0.00  0.00    +0.105 A 
ATOM     23  C   UNL     1      -6.757 -12.726  17.277  0.00  0.00    +0.028 A 
ATOM     24  C   UNL     1      -6.025 -11.035  18.838  0.00  0.00    +0.028 A 
ATOM     28  C   UNL     1      -7.699 -13.174  18.204  0.00  0.00    +0.002 A 
ATOM     29  C   UNL     1      -6.967 -11.482  19.765  0.00  0.00    +0.002 A 
ATOM     30  C   UNL     1      -7.803 -12.552  19.447  0.00  0.00    +0.000 A 
ENDBRANCH   1  19
ENDBRANCH  10   1
TORSDOF 10
ENDMDL
MODEL 6
REMARK VINA RESULT:      -5.2     32.635     35.983
REMARK  Name = 7164880
REMARK  12 active torsions:
REMARK  status: ('A' for Active; 'I' for Inactive)
REMARK    1  A    between atoms: S_1  and  N_10
REMARK    2  A    between atoms: S_1  and  C_19
REMARK    3  A    between atoms: O_7  and  C_25
REMARK    4  A    between atoms: O_7  and  C_38
REMARK    5  A    between atoms: O_9  and  C_37
REMARK    6  A    between atoms: O_9  and  C_39
REMARK    7  A    between atoms: N_12  and  C_20
REMARK    8  A    between atoms: C_13  and  C_17
REMARK    9  A    between atoms: C_18  and  C_21
REMARK   10  A    between atoms: C_20  and  C_22
REMARK   11  A    between atoms: C_20  and  C_25
REMARK   12  A    between atoms: C_22  and  C_26
REMARK                            x       y       z     vdW  Elec       q    Type
REMARK                         _______ _______ _______ _____ _____    ______ ____
ROOT
ATOM      6  O   UNL     1       7.317  -8.606  39.961  0.00  0.00    -0.269 OA
ATOM     10  N   UNL     1       4.226 -10.629  36.601  0.00  0.00    -0.173 NA
ATOM     11  N   UNL     1       5.963  -8.927  38.102  0.00  0.00    -0.283 N 
ATOM     13  C   UNL     1       5.325  -8.417  36.875  0.00  0.00    +0.178 C 
ATOM     14  C   UNL     1       4.030  -9.152  36.531  0.00  0.00    +0.141 C 
ATOM     15  C   UNL     1       4.704 -11.052  37.946  0.00  0.00    +0.128 C 
ATOM     16  C   UNL     1       6.043 -10.387  38.229  0.00  0.00    +0.126 C 
ATOM     18  C   UNL     1       6.652  -8.127  39.040  0.00  0.00    +0.254 C 
ENDROOT
BRANCH  18  21
ATOM      2  S   UNL     1       7.791  -5.847  38.047  0.00  0.00    -0.092 S 
ATOM     21  C   UNL     1       6.553  -6.682  38.885  0.00  0.00    +0.074 A 
ATOM     27  C   UNL     1       5.565  -5.831  39.329  0.00  0.00    +0.021 A 
ATOM     31  C   UNL     1       5.829  -4.475  38.977  0.00  0.00    +0.008 A 
ATOM     34  C   UNL     1       7.008  -4.342  38.278  0.00  0.00    +0.046 A 
ENDBRANCH  18  21
BRANCH  13  17
ATOM      5  O   UNL     1       7.120  -9.490  35.718  0.00  0.00    -0.274 OA
ATOM     12  N   UNL     1       6.304  -7.468  34.904  0.00  0.00    -0.301 N 
ATOM     17  C   UNL     1       6.345  -8.539  35.779  0.00  0.00    +0.236 C 
ATOM     40  H   UNL     1       5.697  -6.685  35.122  0.00  0.00    +0.150 HD
BRANCH  12  20
ATOM     20  C   UNL     1       7.198  -7.335  33.776  0.00  0.00    +0.186 C 
BRANCH  20  25
ATOM      8  O   UNL     1       7.167  -4.921  33.667  0.00  0.00    -0.249 OA
ATOM     25  C   UNL     1       7.832  -5.952  33.698  0.00  0.00    +0.328 C 
BRANCH  25   7
ATOM      7  O   UNL     1       9.192  -6.013  33.653  0.00  0.00    -0.467 OA
ATOM     38  C   UNL     1       9.802  -6.939  34.557  0.00  0.00    +0.280 C 
ENDBRANCH  25   7
ENDBRANCH  20  25
BRANCH  20  22
ATOM     22  C   UNL     1       6.500  -7.721  32.463  0.00  0.00    +0.069 C 
BRANCH  22  26
ATOM     26  C   UNL     1       7.064  -8.950  31.785  0.00  0.00    -0.045 A 
ATOM     32  C   UNL     1       8.184  -9.588  32.316  0.00  0.00    +0.007 A 
ATOM     33  C   UNL     1       6.464  -9.443  30.626  0.00  0.00    +0.007 A 
ATOM     35  C   UNL     1       8.702 -10.722  31.691  0.00  0.00    +0.046 A 
ATOM     36  C   UNL     1       6.983 -10.576  30.000  0.00  0.00    +0.046 A 
ATOM     37  C   UNL     1       8.103 -11.216  30.532  0.00  0.00    +0.120 A 
BRANCH  37   9
ATOM      9  O   UNL     1       8.610 -12.321  29.922  0.00  0.00    -0.495 OA
ATOM     39  C   UNL     1       7.733 -13.047  29.061  0.00  0.00    +0.277 C 
ENDBRANCH  37   9
ENDBRANCH  22  26
ENDBRANCH  20  22
ENDBRANCH  12  20
ENDBRANCH  13  17
BRANCH  10   1
ATOM      1  S   UNL     1       2.956 -11.572  35.941  0.00  0.00    +0.061 S 
ATOM      3  O   UNL     1       1.889 -10.693  35.514  0.00  0.00    -0.153 OA
ATOM      4  O   UNL     1       2.695 -12.689  36.823  0.00  0.00    -0.153 OA
BRANCH   1  19
ATOM     19  C   UNL     1       3.754 -12.195  34.495  0.00  0.00    +0.105 A 
ATOM     23  C   UNL     1       3.062 -13.036  33.624  0.00  0.00    +0.028 A 
ATOM     24  C   UNL     1       5.077 -11.847  34.225  0.00  0.00    +0.028 A 
ATOM     28  C   UNL     1       3.692 -13.527  32.481  0.00  0.00    +0.002 A 
ATOM     29  C   UNL     1       5.708 -12.338  33.082  0.00  0.00    +0.002 A 
ATOM     30  C   UNL     1       5.016 -13.179  32.211  0.00  0.00    +0.000 A 
ENDBRANCH   1  19
ENDBRANCH  10   1
TORSDOF 10
ENDMDL
MODEL 7
REMARK VINA RESULT:      -5.2      2.572      3.928
REMARK  Name = 7164880
REMARK  12 active torsions:
REMARK  status: ('A' for Active; 'I' for Inactive)
REMARK    1  A    between atoms: S_1  and  N_10
REMARK    2  A    between atoms: S_1  and  C_19
REMARK    3  A    between atoms: O_7  and  C_25
REMARK    4  A    between atoms: O_7  and  C_38
REMARK    5  A    between atoms: O_9  and  C_37
REMARK    6  A    between atoms: O_9  and  C_39
REMARK    7  A    between atoms: N_12  and  C_20
REMARK    8  A    between atoms: C_13  and  C_17
REMARK    9  A    between atoms: C_18  and  C_21
REMARK   10  A    between atoms: C_20  and  C_22
REMARK   11  A    between atoms: C_20  and  C_25
REMARK   12  A    between atoms: C_22  and  C_26
REMARK                            x       y       z     vdW  Elec       q    Type
REMARK                         _______ _______ _______ _____ _____    ______ ____
ROOT
ATOM      6  O   UNL     1      14.884   7.318   6.595  0.00  0.00    -0.269 OA
ATOM     10  N   UNL     1      11.018  10.445   6.138  0.00  0.00    -0.173 NA
ATOM     11  N   UNL     1      13.198   8.646   5.711  0.00  0.00    -0.283 N 
ATOM     13  C   UNL     1      12.494   9.226   4.553  0.00  0.00    +0.178 C 
ATOM     14  C   UNL     1      11.811  10.553   4.878  0.00  0.00    +0.141 C 
ATOM     15  C   UNL     1      11.871  10.023   7.283  0.00  0.00    +0.128 C 
ATOM     16  C   UNL     1      12.464   8.654   6.982  0.00  0.00    +0.126 C 
ATOM     18  C   UNL     1      14.415   7.934   5.636  0.00  0.00    +0.254 C 
ENDROOT
BRANCH  18  21
ATOM      2  S   UNL     1      16.129   9.273   3.978  0.00  0.00    -0.092 S 
ATOM     21  C   UNL     1      15.118   7.945   4.360  0.00  0.00    +0.074 A 
ATOM     27  C   UNL     1      15.098   7.004   3.355  0.00  0.00    +0.021 A 
ATOM     31  C   UNL     1      15.925   7.378   2.255  0.00  0.00    +0.008 A 
ATOM     34  C   UNL     1      16.544   8.591   2.463  0.00  0.00    +0.046 A 
ENDBRANCH  18  21
BRANCH  13  17
ATOM      5  O   UNL     1      11.850   7.034   3.855  0.00  0.00    -0.274 OA
ATOM     12  N   UNL     1      10.236   8.710   3.938  0.00  0.00    -0.301 N 
ATOM     17  C   UNL     1      11.511   8.191   4.086  0.00  0.00    +0.236 C 
ATOM     40  H   UNL     1      10.102   9.708   4.048  0.00  0.00    +0.150 HD
BRANCH  12  20
ATOM     20  C   UNL     1       9.114   7.924   3.478  0.00  0.00    +0.186 C 
BRANCH  20  25
ATOM      8  O   UNL     1       9.025   8.453   1.122  0.00  0.00    -0.249 OA
ATOM     25  C   UNL     1       8.479   8.501   2.220  0.00  0.00    +0.328 C 
BRANCH  25   7
ATOM      7  O   UNL     1       7.268   9.073   2.470  0.00  0.00    -0.467 OA
ATOM     38  C   UNL     1       6.613   9.659   1.341  0.00  0.00    +0.280 C 
ENDBRANCH  25   7
ENDBRANCH  20  25
BRANCH  20  22
ATOM     22  C   UNL     1       8.083   7.717   4.598  0.00  0.00    +0.069 C 
BRANCH  22  26
ATOM     26  C   UNL     1       8.616   7.013   5.826  0.00  0.00    -0.045 A 
ATOM     32  C   UNL     1       9.135   5.724   5.722  0.00  0.00    +0.007 A 
ATOM     33  C   UNL     1       8.588   7.656   7.064  0.00  0.00    +0.007 A 
ATOM     35  C   UNL     1       9.628   5.077   6.855  0.00  0.00    +0.046 A 
ATOM     36  C   UNL     1       9.080   7.009   8.198  0.00  0.00    +0.046 A 
ATOM     37  C   UNL     1       9.600   5.718   8.093  0.00  0.00    +0.120 A 
BRANCH  37   9
ATOM      9  O   UNL     1      10.080   5.087   9.198  0.00  0.00    -0.495 OA
ATOM     39  C   UNL     1       9.123   4.630  10.153  0.00  0.00    +0.277 C 
ENDBRANCH  37   9
ENDBRANCH  22  26
ENDBRANCH  20  22
ENDBRANCH  12  20
ENDBRANCH  13  17
BRANCH  10   1
ATOM      1  S   UNL     1       9.957  11.753   6.454  0.00  0.00    +0.061 S 
ATOM      3  O   UNL     1       8.605  11.355   6.124  0.00  0.00    -0.153 OA
ATOM      4  O   UNL     1      10.532  12.965   5.911  0.00  0.00    -0.153 OA
BRANCH   1  19
ATOM     19  C   UNL     1      10.083  11.832   8.213  0.00  0.00    +0.105 A 
ATOM     23  C   UNL     1       9.188  11.117   9.009  0.00  0.00    +0.028 A 
ATOM     24  C   UNL     1      11.077  12.608   8.807  0.00  0.00    +0.028 A 
ATOM     28  C   UNL     1       9.288  11.178  10.399  0.00  0.00    +0.002 A 
ATOM     29  C   UNL     1      11.177  12.670  10.197  0.00  0.00    +0.002 A 
ATOM     30  C   UNL     1      10.282  11.955  10.992  0.00  0.00    +0.000 A 
ENDBRANCH   1  19
ENDBRANCH  10   1
TORSDOF 10
ENDMDL
MODEL 8
REMARK VINA RESULT:      -5.2      2.864      6.015
REMARK  Name = 7164880
REMARK  12 active torsions:
REMARK  status: ('A' for Active; 'I' for Inactive)
REMARK    1  A    between atoms: S_1  and  N_10
REMARK    2  A    between atoms: S_1  and  C_19
REMARK    3  A    between atoms: O_7  and  C_25
REMARK    4  A    between atoms: O_7  and  C_38
REMARK    5  A    between atoms: O_9  and  C_37
REMARK    6  A    between atoms: O_9  and  C_39
REMARK    7  A    between atoms: N_12  and  C_20
REMARK    8  A    between atoms: C_13  and  C_17
REMARK    9  A    between atoms: C_18  and  C_21
REMARK   10  A    between atoms: C_20  and  C_22
REMARK   11  A    between atoms: C_20  and  C_25
REMARK   12  A    between atoms: C_22  and  C_26
REMARK                            x       y       z     vdW  Elec       q    Type
REMARK                         _______ _______ _______ _____ _____    ______ ____
ROOT
ATOM      6  O   UNL     1      15.938  10.019   1.502  0.00  0.00    -0.269 OA
ATOM     10  N   UNL     1      13.743   5.552   1.091  0.00  0.00    -0.173 NA
ATOM     11  N   UNL     1      14.931   7.987   2.002  0.00  0.00    -0.283 N 
ATOM     13  C   UNL     1      14.483   6.984   2.983  0.00  0.00    +0.178 C 
ATOM     14  C   UNL     1      14.443   5.568   2.409  0.00  0.00    +0.141 C 
ATOM     15  C   UNL     1      14.393   6.474   0.118  0.00  0.00    +0.128 C 
ATOM     16  C   UNL     1      14.335   7.893   0.664  0.00  0.00    +0.126 C 
ATOM     18  C   UNL     1      15.726   9.113   2.311  0.00  0.00    +0.254 C 
ENDROOT
BRANCH  18  21
ATOM      2  S   UNL     1      15.596  10.213   4.811  0.00  0.00    -0.092 S 
ATOM     21  C   UNL     1      16.303   9.176   3.647  0.00  0.00    +0.074 A 
ATOM     27  C   UNL     1      17.387   8.494   4.153  0.00  0.00    +0.021 A 
ATOM     31  C   UNL     1      17.642   8.828   5.515  0.00  0.00    +0.008 A 
ATOM     34  C   UNL     1      16.742   9.753   5.997  0.00  0.00    +0.046 A 
ENDBRANCH  18  21
BRANCH  13  17
ATOM      5  O   UNL     1      12.780   8.604   3.412  0.00  0.00    -0.274 OA
ATOM     12  N   UNL     1      12.385   6.380   3.974  0.00  0.00    -0.301 N 
ATOM     17  C   UNL     1      13.131   7.429   3.465  0.00  0.00    +0.236 C 
ATOM     40  H   UNL     1      12.826   5.472   4.071  0.00  0.00    +0.150 HD
BRANCH  12  20
ATOM     20  C   UNL     1      11.059   6.548   4.523  0.00  0.00    +0.186 C 
BRANCH  20  25
ATOM      8  O   UNL     1      10.169   4.678   5.769  0.00  0.00    -0.249 OA
ATOM     25  C   UNL     1      10.837   5.708   5.773  0.00  0.00    +0.328 C 
BRANCH  25   7
ATOM      7  O   UNL     1      11.448   6.243   6.867  0.00  0.00    -0.467 OA
ATOM     38  C   UNL     1      10.915   7.489   7.327  0.00  0.00    +0.280 C 
ENDBRANCH  25   7
ENDBRANCH  20  25
BRANCH  20  22
ATOM     22  C   UNL     1       9.980   6.292   3.460  0.00  0.00    +0.069 C 
BRANCH  22  26
ATOM     26  C   UNL     1       9.051   7.458   3.208  0.00  0.00    -0.045 A 
ATOM     32  C   UNL     1       8.215   7.917   4.224  0.00  0.00    +0.007 A 
ATOM     33  C   UNL     1       9.031   8.075   1.956  0.00  0.00    +0.007 A 
ATOM     35  C   UNL     1       7.359   8.994   3.991  0.00  0.00    +0.046 A 
ATOM     36  C   UNL     1       8.175   9.151   1.722  0.00  0.00    +0.046 A 
ATOM     37  C   UNL     1       7.338   9.611   2.740  0.00  0.00    +0.120 A 
BRANCH  37   9
ATOM      9  O   UNL     1       6.504  10.660   2.513  0.00  0.00    -0.495 OA
ATOM     39  C   UNL     1       5.146  10.512   2.926  0.00  0.00    +0.277 C 
ENDBRANCH  37   9
ENDBRANCH  22  26
ENDBRANCH  20  22
ENDBRANCH  12  20
ENDBRANCH  13  17
BRANCH  10   1
ATOM      1  S   UNL     1      13.353   3.998   0.484  0.00  0.00    +0.061 S 
ATOM      3  O   UNL     1      12.942   3.151   1.583  0.00  0.00    -0.153 OA
ATOM      4  O   UNL     1      14.391   3.579  -0.434  0.00  0.00    -0.153 OA
BRANCH   1  19
ATOM     19  C   UNL     1      11.915   4.390  -0.463  0.00  0.00    +0.105 A 
ATOM     23  C   UNL     1      11.790   3.917  -1.769  0.00  0.00    +0.028 A 
ATOM     24  C   UNL     1      10.905   5.172   0.096  0.00  0.00    +0.028 A 
ATOM     28  C   UNL     1      10.654   4.225  -2.517  0.00  0.00    +0.002 A 
ATOM     29  C   UNL     1       9.768   5.481  -0.652  0.00  0.00    +0.002 A 
ATOM     30  C   UNL     1       9.643   5.008  -1.958  0.00  0.00    +0.000 A 
ENDBRANCH   1  19
ENDBRANCH  10   1
TORSDOF 10
ENDMDL
MODEL 9
REMARK VINA RESULT:      -5.1     25.308     28.417
REMARK  Name = 7164880
REMARK  12 active torsions:
REMARK  status: ('A' for Active; 'I' for Inactive)
REMARK    1  A    between atoms: S_1  and  N_10
REMARK    2  A    between atoms: S_1  and  C_19
REMARK    3  A    between atoms: O_7  and  C_25
REMARK    4  A    between atoms: O_7  and  C_38
REMARK    5  A    between atoms: O_9  and  C_37
REMARK    6  A    between atoms: O_9  and  C_39
REMARK    7  A    between atoms: N_12  and  C_20
REMARK    8  A    between atoms: C_13  and  C_17
REMARK    9  A    between atoms: C_18  and  C_21
REMARK   10  A    between atoms: C_20  and  C_22
REMARK   11  A    between atoms: C_20  and  C_25
REMARK   12  A    between atoms: C_22  and  C_26
REMARK                            x       y       z     vdW  Elec       q    Type
REMARK                         _______ _______ _______ _____ _____    ______ ____
ROOT
ATOM      6  O   UNL     1      -9.428 -12.024  13.589  0.00  0.00    -0.269 OA
ATOM     10  N   UNL     1      -5.602 -10.417  10.811  0.00  0.00    -0.173 NA
ATOM     11  N   UNL     1      -7.478 -10.972  12.894  0.00  0.00    -0.283 N 
ATOM     13  C   UNL     1      -6.338 -10.077  13.160  0.00  0.00    +0.178 C 
ATOM     14  C   UNL     1      -5.799  -9.410  11.895  0.00  0.00    +0.141 C 
ATOM     15  C   UNL     1      -6.867 -11.139  10.502  0.00  0.00    +0.128 C 
ATOM     16  C   UNL     1      -7.334 -11.877  11.748  0.00  0.00    +0.126 C 
ATOM     18  C   UNL     1      -8.581 -11.144  13.758  0.00  0.00    +0.254 C 
ENDROOT
BRANCH  18  21
ATOM      2  S   UNL     1      -9.778  -8.909  14.784  0.00  0.00    -0.092 S 
ATOM     21  C   UNL     1      -8.694 -10.230  14.887  0.00  0.00    +0.074 A 
ATOM     27  C   UNL     1      -8.031 -10.261  16.094  0.00  0.00    +0.021 A 
ATOM     31  C   UNL     1      -8.417  -9.186  16.945  0.00  0.00    +0.008 A 
ATOM     34  C   UNL     1      -9.361  -8.374  16.356  0.00  0.00    +0.046 A 
ENDBRANCH  18  21
BRANCH  13  17
ATOM      5  O   UNL     1      -5.172 -12.110  13.623  0.00  0.00    -0.274 OA
ATOM     12  N   UNL     1      -4.528 -10.165  14.730  0.00  0.00    -0.301 N 
ATOM     17  C   UNL     1      -5.289 -10.908  13.843  0.00  0.00    +0.236 C 
ATOM     40  H   UNL     1      -4.795  -9.204  14.912  0.00  0.00    +0.150 HD
BRANCH  12  20
ATOM     20  C   UNL     1      -3.468 -10.735  15.529  0.00  0.00    +0.186 C 
BRANCH  20  25
ATOM      8  O   UNL     1      -1.196 -11.481  15.179  0.00  0.00    -0.249 OA
ATOM     25  C   UNL     1      -2.155 -10.834  14.766  0.00  0.00    +0.328 C 
BRANCH  25   7
ATOM      7  O   UNL     1      -2.179 -10.119  13.607  0.00  0.00    -0.467 OA
ATOM     38  C   UNL     1      -1.926 -10.865  12.412  0.00  0.00    +0.280 C 
ENDBRANCH  25   7
ENDBRANCH  20  25
BRANCH  20  22
ATOM     22  C   UNL     1      -3.888 -12.086  16.128  0.00  0.00    +0.069 C 
BRANCH  22  26
ATOM     26  C   UNL     1      -4.935 -11.998  17.216  0.00  0.00    -0.045 A 
ATOM     32  C   UNL     1      -4.894 -10.957  18.142  0.00  0.00    +0.007 A 
ATOM     33  C   UNL     1      -5.943 -12.960  17.292  0.00  0.00    +0.007 A 
ATOM     35  C   UNL     1      -5.861 -10.876  19.143  0.00  0.00    +0.046 A 
ATOM     36  C   UNL     1      -6.909 -12.880  18.295  0.00  0.00    +0.046 A 
ATOM     37  C   UNL     1      -6.868 -11.837  19.221  0.00  0.00    +0.120 A 
BRANCH  37   9
ATOM      9  O   UNL     1      -7.811 -11.758  20.198  0.00  0.00    -0.495 OA
ATOM     39  C   UNL     1      -9.175 -11.883  19.797  0.00  0.00    +0.277 C 
ENDBRANCH  37   9
ENDBRANCH  22  26
ENDBRANCH  20  22
ENDBRANCH  12  20
ENDBRANCH  13  17
BRANCH  10   1
ATOM      1  S   UNL     1      -4.717  -9.868   9.450  0.00  0.00    +0.061 S 
ATOM      3  O   UNL     1      -4.212 -11.012   8.722  0.00  0.00    -0.153 OA
ATOM      4  O   UNL     1      -3.835  -8.798   9.865  0.00  0.00    -0.153 OA
BRANCH   1  19
ATOM     19  C   UNL     1      -6.025  -9.157   8.500  0.00  0.00    +0.105 A 
ATOM     23  C   UNL     1      -6.745  -8.076   9.005  0.00  0.00    +0.028 A 
ATOM     24  C   UNL     1      -6.336  -9.677   7.244  0.00  0.00    +0.028 A 
ATOM     28  C   UNL     1      -7.777  -7.513   8.254  0.00  0.00    +0.002 A 
ATOM     29  C   UNL     1      -7.368  -9.115   6.493  0.00  0.00    +0.002 A 
ATOM     30  C   UNL     1      -8.089  -8.034   6.998  0.00  0.00    +0.000 A 
ENDBRANCH   1  19
ENDBRANCH  10   1
TORSDOF 10
ENDMDL
MODEL 10
REMARK VINA RESULT:      -5.1     12.302     15.938
REMARK  Name = 7164880
REMARK  12 active torsions:
REMARK  status: ('A' for Active; 'I' for Inactive)
REMARK    1  A    between atoms: S_1  and  N_10
REMARK    2  A    between atoms: S_1  and  C_19
REMARK    3  A    between atoms: O_7  and  C_25
REMARK    4  A    between atoms: O_7  and  C_38
REMARK    5  A    between atoms: O_9  and  C_37
REMARK    6  A    between atoms: O_9  and  C_39
REMARK    7  A    between atoms: N_12  and  C_20
REMARK    8  A    between atoms: C_13  and  C_17
REMARK    9  A    between atoms: C_18  and  C_21
REMARK   10  A    between atoms: C_20  and  C_22
REMARK   11  A    between atoms: C_20  and  C_25
REMARK   12  A    between atoms: C_22  and  C_26
REMARK                            x       y       z     vdW  Elec       q    Type
REMARK                         _______ _______ _______ _____ _____    ______ ____
ROOT
ATOM      6  O   UNL     1       0.437  14.824   3.230  0.00  0.00    -0.269 OA
ATOM     10  N   UNL     1      -1.339  10.864   0.759  0.00  0.00    -0.173 NA
ATOM     11  N   UNL     1      -0.188  12.661   2.660  0.00  0.00    -0.283 N 
ATOM     13  C   UNL     1      -0.248  11.220   2.963  0.00  0.00    +0.178 C 
ATOM     14  C   UNL     1      -0.306  10.352   1.707  0.00  0.00    +0.141 C 
ATOM     15  C   UNL     1      -1.076  12.281   0.382  0.00  0.00    +0.128 C 
ATOM     16  C   UNL     1      -1.120  13.144   1.634  0.00  0.00    +0.126 C 
ATOM     18  C   UNL     1       0.547  13.609   3.406  0.00  0.00    +0.254 C 
ENDROOT
BRANCH  18  21
ATOM      2  S   UNL     1       3.057  12.673   3.961  0.00  0.00    -0.092 S 
ATOM     21  C   UNL     1       1.462  13.097   4.418  0.00  0.00    +0.074 A 
ATOM     27  C   UNL     1       1.236  12.888   5.760  0.00  0.00    +0.021 A 
ATOM     31  C   UNL     1       2.388  12.374   6.423  0.00  0.00    +0.008 A 
ATOM     34  C   UNL     1       3.449  12.208   5.561  0.00  0.00    +0.046 A 
ENDBRANCH  18  21
BRANCH  13  17
ATOM      5  O   UNL     1      -2.341  11.855   3.924  0.00  0.00    -0.274 OA
ATOM     12  N   UNL     1      -1.398   9.814   4.526  0.00  0.00    -0.301 N 
ATOM     17  C   UNL     1      -1.450  11.015   3.841  0.00  0.00    +0.236 C 
ATOM     40  H   UNL     1      -0.555   9.255   4.465  0.00  0.00    +0.150 HD
BRANCH  12  20
ATOM     20  C   UNL     1      -2.423   9.390   5.453  0.00  0.00    +0.186 C 
BRANCH  20  25
ATOM      8  O   UNL     1      -0.858   9.619   7.281  0.00  0.00    -0.249 OA
ATOM     25  C   UNL     1      -2.026   9.627   6.904  0.00  0.00    +0.328 C 
BRANCH  25   7
ATOM      7  O   UNL     1      -3.108   9.827   7.707  0.00  0.00    -0.467 OA
ATOM     38  C   UNL     1      -3.885  10.994   7.421  0.00  0.00    +0.280 C 
ENDBRANCH  25   7
ENDBRANCH  20  25
BRANCH  20  22
ATOM     22  C   UNL     1      -2.834   7.932   5.201  0.00  0.00    +0.069 C 
BRANCH  22  26
ATOM     26  C   UNL     1      -4.279   7.743   4.796  0.00  0.00    -0.045 A 
ATOM     32  C   UNL     1      -4.988   8.798   4.225  0.00  0.00    +0.007 A 
ATOM     33  C   UNL     1      -4.902   6.511   4.995  0.00  0.00    +0.007 A 
ATOM     35  C   UNL     1      -6.320   8.623   3.851  0.00  0.00    +0.046 A 
ATOM     36  C   UNL     1      -6.235   6.335   4.622  0.00  0.00    +0.046 A 
ATOM     37  C   UNL     1      -6.944   7.391   4.051  0.00  0.00    +0.120 A 
BRANCH  37   9
ATOM      9  O   UNL     1      -8.243   7.220   3.686  0.00  0.00    -0.495 OA
ATOM     39  C   UNL     1      -8.801   5.918   3.860  0.00  0.00    +0.277 C 
ENDBRANCH  37   9
ENDBRANCH  22  26
ENDBRANCH  20  22
ENDBRANCH  12  20
ENDBRANCH  13  17
BRANCH  10   1
ATOM      1  S   UNL     1      -1.727   9.817  -0.541  0.00  0.00    +0.061 S 
ATOM      3  O   UNL     1      -1.341   8.467  -0.191  0.00  0.00    -0.153 OA
ATOM      4  O   UNL     1      -1.287  10.423  -1.779  0.00  0.00    -0.153 OA
BRANCH   1  19
ATOM     19  C   UNL     1      -3.490   9.905  -0.489  0.00  0.00    +0.105 A 
ATOM     23  C   UNL     1      -4.238   9.590  -1.623  0.00  0.00    +0.028 A 
ATOM     24  C   UNL     1      -4.135  10.288   0.687  0.00  0.00    +0.028 A 
ATOM     28  C   UNL     1      -5.630   9.657  -1.582  0.00  0.00    +0.002 A 
ATOM     29  C   UNL     1      -5.527  10.356   0.729  0.00  0.00    +0.002 A 
ATOM     30  C   UNL     1      -6.274  10.042  -0.406  0.00  0.00    +0.000 A 
ENDBRANCH   1  19
ENDBRANCH  10   1
TORSDOF 10
ENDMDL
