MODEL 1
REMARK VINA RESULT:      -6.1      0.000      0.000
REMARK  Name = 11912310
REMARK  12 active torsions:
REMARK  status: ('A' for Active; 'I' for Inactive)
REMARK    1  A    between atoms: O_4  and  C_21
REMARK    2  A    between atoms: N_6  and  CA_17
REMARK    3  A    between atoms: C_7  and  C_12
REMARK    4  A    between atoms: C_8  and  C_13
REMARK    5  A    between atoms: C_12  and  C_14
REMARK    6  A    between atoms: C_13  and  C_15
REMARK    7  A    between atoms: C_16  and  C_19
REMARK    8  A    between atoms: CA_17  and  CB_18
REMARK    9  A    between atoms: CA_17  and  C_21
REMARK   10  A    between atoms: CB_18  and  CG_20
REMARK   11  A    between atoms: CG_20  and  CD1_22
REMARK   12  A    between atoms: CG_20  and  CD2_23
REMARK                            x       y       z     vdW  Elec       q    Type
REMARK                         _______ _______ _______ _____ _____    ______ ____
ROOT
ATOM      3  O   UNL     1      -1.150  -9.914  11.942  0.00  0.00    -0.270 OA
ATOM      5  N   UNL     1      -2.670 -11.185  13.187  0.00  0.00    -0.297 N 
ATOM      7  C   UNL     1      -3.908 -11.384  15.797  0.00  0.00    +0.004 C 
ATOM      8  C   UNL     1      -4.769 -11.338  14.508  0.00  0.00    +0.010 C 
ATOM      9  C   UNL     1      -2.552 -10.687  15.597  0.00  0.00    +0.023 C 
ATOM     10  C   UNL     1      -3.958 -11.879  13.316  0.00  0.00    +0.112 C 
ATOM     11  C   UNL     1      -1.821 -11.239  14.375  0.00  0.00    +0.108 C 
ATOM     16  C   UNL     1      -2.225 -10.502  12.053  0.00  0.00    +0.247 C 
ENDROOT
BRANCH  16  19
ATOM      1  F   UNL     1      -5.573 -10.381   7.570  0.00  0.00    -0.205 F 
ATOM     19  C   UNL     1      -3.104 -10.470  10.878  0.00  0.00    +0.037 A 
ATOM     24  C   UNL     1      -3.488  -9.248  10.327  0.00  0.00    +0.016 A 
ATOM     25  C   UNL     1      -3.554 -11.663  10.311  0.00  0.00    +0.016 A 
ATOM     26  C   UNL     1      -4.322  -9.217   9.210  0.00  0.00    +0.039 A 
ATOM     27  C   UNL     1      -4.388 -11.632   9.194  0.00  0.00    +0.039 A 
ATOM     28  C   UNL     1      -4.772 -10.410   8.643  0.00  0.00    +0.123 A 
ENDBRANCH  16  19
BRANCH   8  13
ATOM     13  C   UNL     1      -5.328  -9.947  14.184  0.00  0.00    +0.002 C 
ATOM     15  C   UNL     1      -6.128  -9.967  12.899  0.00  0.00    +0.004 C 
ENDBRANCH   8  13
BRANCH   7  12
ATOM     12  C   UNL     1      -4.629 -10.822  17.022  0.00  0.00    +0.099 C 
BRANCH  12  14
ATOM      2  O   UNL     1      -5.824 -12.855  17.558  0.00  0.00    -0.276 OA
ATOM      6  N   UNL     1      -6.970 -10.832  17.522  0.00  0.00    -0.310 N 
ATOM     14  C   ACE A   0      -5.847 -11.637  17.395  0.00  0.00    +0.214 C 
ATOM     29  H   UNL     1      -6.892  -9.842  17.306  0.00  0.00    +0.149 HD
BRANCH   6  17
ATOM     17  CA  UNL     1      -8.275 -11.346  17.868  0.00  0.00    +0.098 C 
BRANCH  17  18
ATOM     18  CB  UNL     1      -9.384 -10.580  17.125  0.00  0.00    +0.027 C 
BRANCH  18  20
ATOM     20  CG  UNL     1      -8.949  -9.228  16.517  0.00  0.00    -0.015 C 
ATOM     22  CD1 UNL     1      -9.683  -8.085  17.226  0.00  0.00    +0.007 C 
ATOM     23  CD2 UNL     1      -9.209  -9.151  15.012  0.00  0.00    +0.007 C 
ENDBRANCH  18  20
ENDBRANCH  17  18
BRANCH  17  21
ATOM     21  C   UNL     1      -8.469 -11.301  19.388  0.00  0.00    +0.178 C 
BRANCH  21   4
ATOM      4  O   UNL     1      -7.586 -10.359  19.981  0.00  0.00    -0.393 OA
ATOM     30  H   UNL     1      -8.068  -9.937  20.713  0.00  0.00    +0.209 HD
ENDBRANCH  21   4
ENDBRANCH  17  21
ENDBRANCH   6  17
ENDBRANCH  12  14
ENDBRANCH   7  12
TORSDOF 9
ENDMDL
MODEL 2
REMARK VINA RESULT:      -6.0      3.197      7.565
REMARK  Name = 11912310
REMARK  12 active torsions:
REMARK  status: ('A' for Active; 'I' for Inactive)
REMARK    1  A    between atoms: O_4  and  C_21
REMARK    2  A    between atoms: N_6  and  CA_17
REMARK    3  A    between atoms: C_7  and  C_12
REMARK    4  A    between atoms: C_8  and  C_13
REMARK    5  A    between atoms: C_12  and  C_14
REMARK    6  A    between atoms: C_13  and  C_15
REMARK    7  A    between atoms: C_16  and  C_19
REMARK    8  A    between atoms: CA_17  and  CB_18
REMARK    9  A    between atoms: CA_17  and  C_21
REMARK   10  A    between atoms: CB_18  and  CG_20
REMARK   11  A    between atoms: CG_20  and  CD1_22
REMARK   12  A    between atoms: CG_20  and  CD2_23
REMARK                            x       y       z     vdW  Elec       q    Type
REMARK                         _______ _______ _______ _____ _____    ______ ____
ROOT
ATOM      3  O   UNL     1      -2.983 -11.896  18.796  0.00  0.00    -0.270 OA
ATOM      5  N   UNL     1      -3.448 -10.845  16.759  0.00  0.00    -0.297 N 
ATOM      7  C   UNL     1      -2.701 -10.817  13.961  0.00  0.00    +0.004 C 
ATOM      8  C   UNL     1      -4.182 -10.981  14.389  0.00  0.00    +0.010 C 
ATOM      9  C   UNL     1      -1.739 -11.322  15.049  0.00  0.00    +0.023 C 
ATOM     10  C   UNL     1      -4.405 -10.334  15.768  0.00  0.00    +0.112 C 
ATOM     11  C   UNL     1      -2.042 -10.676  16.399  0.00  0.00    +0.108 C 
ATOM     16  C   UNL     1      -3.781 -11.461  17.967  0.00  0.00    +0.247 C 
ENDROOT
BRANCH  16  19
ATOM      1  F   UNL     1      -9.205 -12.038  19.217  0.00  0.00    -0.205 F 
ATOM     19  C   UNL     1      -5.203 -11.613  18.295  0.00  0.00    +0.037 A 
ATOM     24  C   UNL     1      -5.869 -10.605  18.993  0.00  0.00    +0.016 A 
ATOM     25  C   UNL     1      -5.889 -12.765  17.910  0.00  0.00    +0.016 A 
ATOM     26  C   UNL     1      -7.221 -10.748  19.304  0.00  0.00    +0.039 A 
ATOM     27  C   UNL     1      -7.241 -12.908  18.221  0.00  0.00    +0.039 A 
ATOM     28  C   UNL     1      -7.907 -11.900  18.918  0.00  0.00    +0.123 A 
ENDBRANCH  16  19
BRANCH   8  13
ATOM     13  C   UNL     1      -4.669 -12.436  14.398  0.00  0.00    +0.002 C 
ATOM     15  C   UNL     1      -6.168 -12.510  14.194  0.00  0.00    +0.004 C 
ENDBRANCH   8  13
BRANCH   7  12
ATOM     12  C   UNL     1      -2.387 -11.473  12.617  0.00  0.00    +0.099 C 
BRANCH  12  14
ATOM      2  O   UNL     1      -1.709  -9.598  11.248  0.00  0.00    -0.276 OA
ATOM      6  N   UNL     1      -3.638 -10.773  10.700  0.00  0.00    -0.310 N 
ATOM     14  C   ACE A   0      -2.511 -10.503  11.462  0.00  0.00    +0.214 C 
ATOM     29  H   UNL     1      -4.271 -11.509  11.000  0.00  0.00    +0.149 HD
BRANCH   6  17
ATOM     17  CA  UNL     1      -4.007 -10.001   9.535  0.00  0.00    +0.098 C 
BRANCH  17  18
ATOM     18  CB  UNL     1      -4.969  -8.860   9.913  0.00  0.00    +0.027 C 
BRANCH  18  20
ATOM     20  CG  UNL     1      -6.279  -9.310  10.596  0.00  0.00    -0.015 C 
ATOM     22  CD1 UNL     1      -7.477  -8.678   9.880  0.00  0.00    +0.007 C 
ATOM     23  CD2 UNL     1      -6.319  -8.947  12.082  0.00  0.00    +0.007 C 
ENDBRANCH  18  20
ENDBRANCH  17  18
BRANCH  17  21
ATOM     21  C   UNL     1      -4.604 -10.921   8.465  0.00  0.00    +0.178 C 
BRANCH  21   4
ATOM      4  O   UNL     1      -5.039 -10.168   7.340  0.00  0.00    -0.393 OA
ATOM     30  H   UNL     1      -5.398 -10.800   6.695  0.00  0.00    +0.209 HD
ENDBRANCH  21   4
ENDBRANCH  17  21
ENDBRANCH   6  17
ENDBRANCH  12  14
ENDBRANCH   7  12
TORSDOF 9
ENDMDL
MODEL 3
REMARK VINA RESULT:      -5.9      3.531      8.136
REMARK  Name = 11912310
REMARK  12 active torsions:
REMARK  status: ('A' for Active; 'I' for Inactive)
REMARK    1  A    between atoms: O_4  and  C_21
REMARK    2  A    between atoms: N_6  and  CA_17
REMARK    3  A    between atoms: C_7  and  C_12
REMARK    4  A    between atoms: C_8  and  C_13
REMARK    5  A    between atoms: C_12  and  C_14
REMARK    6  A    between atoms: C_13  and  C_15
REMARK    7  A    between atoms: C_16  and  C_19
REMARK    8  A    between atoms: CA_17  and  CB_18
REMARK    9  A    between atoms: CA_17  and  C_21
REMARK   10  A    between atoms: CB_18  and  CG_20
REMARK   11  A    between atoms: CG_20  and  CD1_22
REMARK   12  A    between atoms: CG_20  and  CD2_23
REMARK                            x       y       z     vdW  Elec       q    Type
REMARK                         _______ _______ _______ _____ _____    ______ ____
ROOT
ATOM      3  O   UNL     1      -9.245  -9.703  15.974  0.00  0.00    -0.270 OA
ATOM      5  N   UNL     1      -7.414 -11.119  16.313  0.00  0.00    -0.297 N 
ATOM      7  C   UNL     1      -4.519 -11.164  16.370  0.00  0.00    +0.004 C 
ATOM      8  C   UNL     1      -5.348 -11.697  17.567  0.00  0.00    +0.010 C 
ATOM      9  C   UNL     1      -5.296 -10.102  15.574  0.00  0.00    +0.023 C 
ATOM     10  C   UNL     1      -6.730 -12.170  17.079  0.00  0.00    +0.112 C 
ATOM     11  C   UNL     1      -6.672 -10.617  15.159  0.00  0.00    +0.108 C 
ATOM     16  C   UNL     1      -8.671 -10.587  16.608  0.00  0.00    +0.247 C 
ENDROOT
BRANCH  16  19
ATOM      1  F   UNL     1     -11.407 -12.601  21.054  0.00  0.00    -0.205 F 
ATOM     19  C   UNL     1      -9.388 -11.115  17.774  0.00  0.00    +0.037 A 
ATOM     24  C   UNL     1      -9.362 -10.421  18.983  0.00  0.00    +0.016 A 
ATOM     25  C   UNL     1     -10.097 -12.313  17.674  0.00  0.00    +0.016 A 
ATOM     26  C   UNL     1     -10.044 -10.922  20.092  0.00  0.00    +0.039 A 
ATOM     27  C   UNL     1     -10.779 -12.814  18.782  0.00  0.00    +0.039 A 
ATOM     28  C   UNL     1     -10.752 -12.120  19.991  0.00  0.00    +0.123 A 
ENDBRANCH  16  19
BRANCH   8  13
ATOM     13  C   UNL     1      -5.504 -10.690  18.714  0.00  0.00    +0.002 C 
ATOM     15  C   UNL     1      -5.916 -11.383  19.995  0.00  0.00    +0.004 C 
ENDBRANCH   8  13
BRANCH   7  12
ATOM     12  C   UNL     1      -3.145 -10.634  16.779  0.00  0.00    +0.099 C 
BRANCH  12  14
ATOM      2  O   UNL     1      -1.085 -10.227  15.578  0.00  0.00    -0.276 OA
ATOM      6  N   UNL     1      -2.404 -12.050  14.998  0.00  0.00    -0.310 N 
ATOM     14  C   ACE A   0      -2.087 -10.920  15.736  0.00  0.00    +0.214 C 
ATOM     29  H   UNL     1      -3.290 -12.518  15.169  0.00  0.00    +0.149 HD
BRANCH   6  17
ATOM     17  CA  UNL     1      -1.572 -12.556  13.930  0.00  0.00    +0.098 C 
BRANCH  17  18
ATOM     18  CB  UNL     1      -1.861 -11.819  12.610  0.00  0.00    +0.027 C 
BRANCH  18  20
ATOM     20  CG  UNL     1      -3.353 -11.749  12.214  0.00  0.00    -0.015 C 
ATOM     22  CD1 UNL     1      -3.557 -12.423  10.854  0.00  0.00    +0.007 C 
ATOM     23  CD2 UNL     1      -3.878 -10.314  12.160  0.00  0.00    +0.007 C 
ENDBRANCH  18  20
ENDBRANCH  17  18
BRANCH  17  21
ATOM     21  C   UNL     1      -1.759 -14.070  13.792  0.00  0.00    +0.178 C 
BRANCH  21   4
ATOM      4  O   UNL     1      -2.561 -14.578  14.850  0.00  0.00    -0.393 OA
ATOM     30  H   UNL     1      -3.185 -15.211  14.457  0.00  0.00    +0.209 HD
ENDBRANCH  21   4
ENDBRANCH  17  21
ENDBRANCH   6  17
ENDBRANCH  12  14
ENDBRANCH   7  12
TORSDOF 9
ENDMDL
MODEL 4
REMARK VINA RESULT:      -5.8      2.627      4.199
REMARK  Name = 11912310
REMARK  12 active torsions:
REMARK  status: ('A' for Active; 'I' for Inactive)
REMARK    1  A    between atoms: O_4  and  C_21
REMARK    2  A    between atoms: N_6  and  CA_17
REMARK    3  A    between atoms: C_7  and  C_12
REMARK    4  A    between atoms: C_8  and  C_13
REMARK    5  A    between atoms: C_12  and  C_14
REMARK    6  A    between atoms: C_13  and  C_15
REMARK    7  A    between atoms: C_16  and  C_19
REMARK    8  A    between atoms: CA_17  and  CB_18
REMARK    9  A    between atoms: CA_17  and  C_21
REMARK   10  A    between atoms: CB_18  and  CG_20
REMARK   11  A    between atoms: CG_20  and  CD1_22
REMARK   12  A    between atoms: CG_20  and  CD2_23
REMARK                            x       y       z     vdW  Elec       q    Type
REMARK                         _______ _______ _______ _____ _____    ______ ____
ROOT
ATOM      3  O   UNL     1      -5.415 -12.923  12.270  0.00  0.00    -0.270 OA
ATOM      5  N   UNL     1      -5.538 -11.525  14.141  0.00  0.00    -0.297 N 
ATOM      7  C   UNL     1      -5.650 -11.558  17.035  0.00  0.00    +0.004 C 
ATOM      8  C   UNL     1      -4.581 -10.719  16.288  0.00  0.00    +0.010 C 
ATOM      9  C   UNL     1      -6.114 -12.759  16.194  0.00  0.00    +0.023 C 
ATOM     10  C   UNL     1      -5.096 -10.339  14.888  0.00  0.00    +0.112 C 
ATOM     11  C   UNL     1      -6.569 -12.320  14.805  0.00  0.00    +0.108 C 
ATOM     16  C   UNL     1      -5.053 -11.928  12.895  0.00  0.00    +0.247 C 
ENDROOT
BRANCH  16  19
ATOM      1  F   UNL     1      -1.109  -8.786  10.469  0.00  0.00    -0.205 F 
ATOM     19  C   UNL     1      -4.018 -11.105  12.259  0.00  0.00    +0.037 A 
ATOM     24  C   UNL     1      -4.379 -10.123  11.336  0.00  0.00    +0.016 A 
ATOM     25  C   UNL     1      -2.675 -11.304  12.577  0.00  0.00    +0.016 A 
ATOM     26  C   UNL     1      -3.396  -9.340  10.731  0.00  0.00    +0.039 A 
ATOM     27  C   UNL     1      -1.692 -10.520  11.972  0.00  0.00    +0.039 A 
ATOM     28  C   UNL     1      -2.052  -9.539  11.049  0.00  0.00    +0.123 A 
ENDBRANCH  16  19
BRANCH   8  13
ATOM     13  C   UNL     1      -3.214 -11.405  16.185  0.00  0.00    +0.002 C 
ATOM     15  C   UNL     1      -2.107 -10.389  15.997  0.00  0.00    +0.004 C 
ENDBRANCH   8  13
BRANCH   7  12
ATOM     12  C   UNL     1      -5.197 -12.013  18.422  0.00  0.00    +0.099 C 
BRANCH  12  14
ATOM      2  O   UNL     1      -6.232 -10.975  20.345  0.00  0.00    -0.276 OA
ATOM      6  N   UNL     1      -7.300 -12.752  19.295  0.00  0.00    -0.310 N 
ATOM     14  C   ACE A   0      -6.276 -11.831  19.466  0.00  0.00    +0.214 C 
ATOM     29  H   UNL     1      -7.209 -13.459  18.571  0.00  0.00    +0.149 HD
BRANCH   6  17
ATOM     17  CA  UNL     1      -8.461 -12.811  20.153  0.00  0.00    +0.098 C 
BRANCH  17  18
ATOM     18  CB  UNL     1      -9.031 -14.240  20.210  0.00  0.00    +0.027 C 
BRANCH  18  20
ATOM     20  CG  UNL     1      -9.779 -14.592  21.515  0.00  0.00    -0.015 C 
ATOM     22  CD1 UNL     1      -8.889 -15.474  22.396  0.00  0.00    +0.007 C 
ATOM     23  CD2 UNL     1     -11.109 -15.302  21.255  0.00  0.00    +0.007 C 
ENDBRANCH  18  20
ENDBRANCH  17  18
BRANCH  17  21
ATOM     21  C   UNL     1      -9.509 -11.796  19.686  0.00  0.00    +0.178 C 
BRANCH  21   4
ATOM      4  O   UNL     1      -9.254 -10.514  20.246  0.00  0.00    -0.393 OA
ATOM     30  H   UNL     1      -8.763 -10.004  19.580  0.00  0.00    +0.209 HD
ENDBRANCH  21   4
ENDBRANCH  17  21
ENDBRANCH   6  17
ENDBRANCH  12  14
ENDBRANCH   7  12
TORSDOF 9
ENDMDL
MODEL 5
REMARK VINA RESULT:      -5.6     24.069     27.333
REMARK  Name = 11912310
REMARK  12 active torsions:
REMARK  status: ('A' for Active; 'I' for Inactive)
REMARK    1  A    between atoms: O_4  and  C_21
REMARK    2  A    between atoms: N_6  and  CA_17
REMARK    3  A    between atoms: C_7  and  C_12
REMARK    4  A    between atoms: C_8  and  C_13
REMARK    5  A    between atoms: C_12  and  C_14
REMARK    6  A    between atoms: C_13  and  C_15
REMARK    7  A    between atoms: C_16  and  C_19
REMARK    8  A    between atoms: CA_17  and  CB_18
REMARK    9  A    between atoms: CA_17  and  C_21
REMARK   10  A    between atoms: CB_18  and  CG_20
REMARK   11  A    between atoms: CG_20  and  CD1_22
REMARK   12  A    between atoms: CG_20  and  CD2_23
REMARK                            x       y       z     vdW  Elec       q    Type
REMARK                         _______ _______ _______ _____ _____    ______ ____
ROOT
ATOM      3  O   UNL     1       9.809   3.983   5.694  0.00  0.00    -0.270 OA
ATOM      5  N   UNL     1      10.746   5.324   4.022  0.00  0.00    -0.297 N 
ATOM      7  C   UNL     1      10.748   5.769   1.160  0.00  0.00    +0.004 C 
ATOM      8  C   UNL     1      10.467   6.931   2.147  0.00  0.00    +0.010 C 
ATOM      9  C   UNL     1      10.368   4.407   1.767  0.00  0.00    +0.023 C 
ATOM     10  C   UNL     1      11.136   6.642   3.503  0.00  0.00    +0.112 C 
ATOM     11  C   UNL     1      11.029   4.204   3.128  0.00  0.00    +0.108 C 
ATOM     16  C   UNL     1      10.143   5.084   5.258  0.00  0.00    +0.247 C 
ENDROOT
BRANCH  16  19
ATOM      1  F   UNL     1       9.123   9.468   8.582  0.00  0.00    -0.205 F 
ATOM     19  C   UNL     1       9.875   6.233   6.131  0.00  0.00    +0.037 A 
ATOM     24  C   UNL     1      10.893   6.755   6.928  0.00  0.00    +0.016 A 
ATOM     25  C   UNL     1       8.602   6.803   6.162  0.00  0.00    +0.016 A 
ATOM     26  C   UNL     1      10.640   7.848   7.756  0.00  0.00    +0.039 A 
ATOM     27  C   UNL     1       8.349   7.896   6.990  0.00  0.00    +0.039 A 
ATOM     28  C   UNL     1       9.367   8.419   7.787  0.00  0.00    +0.123 A 
ENDBRANCH  16  19
BRANCH   8  13
ATOM     13  C   UNL     1       8.975   7.232   2.343  0.00  0.00    +0.002 C 
ATOM     15  C   UNL     1       8.773   8.586   2.988  0.00  0.00    +0.004 C 
ENDBRANCH   8  13
BRANCH   7  12
ATOM     12  C   UNL     1      10.079   5.959  -0.200  0.00  0.00    +0.099 C 
BRANCH  12  14
ATOM      2  O   UNL     1       9.984   4.337  -1.992  0.00  0.00    -0.276 OA
ATOM      6  N   UNL     1      12.049   5.134  -1.281  0.00  0.00    -0.310 N 
ATOM     14  C   ACE A   0      10.664   5.050  -1.259  0.00  0.00    +0.214 C 
ATOM     29  H   UNL     1      12.519   5.711  -0.590  0.00  0.00    +0.149 HD
BRANCH   6  17
ATOM     17  CA  UNL     1      12.871   4.371  -2.192  0.00  0.00    +0.098 C 
BRANCH  17  18
ATOM     18  CB  UNL     1      14.149   3.871  -1.494  0.00  0.00    +0.027 C 
BRANCH  18  20
ATOM     20  CG  UNL     1      14.401   4.463  -0.090  0.00  0.00    -0.015 C 
ATOM     22  CD1 UNL     1      15.862   4.906   0.028  0.00  0.00    +0.007 C 
ATOM     23  CD2 UNL     1      14.071   3.475   1.030  0.00  0.00    +0.007 C 
ENDBRANCH  18  20
ENDBRANCH  17  18
BRANCH  17  21
ATOM     21  C   UNL     1      13.191   5.208  -3.436  0.00  0.00    +0.178 C 
BRANCH  21   4
ATOM      4  O   UNL     1      14.554   5.610  -3.437  0.00  0.00    -0.393 OA
ATOM     30  H   UNL     1      14.750   5.955  -4.324  0.00  0.00    +0.209 HD
ENDBRANCH  21   4
ENDBRANCH  17  21
ENDBRANCH   6  17
ENDBRANCH  12  14
ENDBRANCH   7  12
TORSDOF 9
ENDMDL
MODEL 6
REMARK VINA RESULT:      -5.6     24.048     26.746
REMARK  Name = 11912310
REMARK  12 active torsions:
REMARK  status: ('A' for Active; 'I' for Inactive)
REMARK    1  A    between atoms: O_4  and  C_21
REMARK    2  A    between atoms: N_6  and  CA_17
REMARK    3  A    between atoms: C_7  and  C_12
REMARK    4  A    between atoms: C_8  and  C_13
REMARK    5  A    between atoms: C_12  and  C_14
REMARK    6  A    between atoms: C_13  and  C_15
REMARK    7  A    between atoms: C_16  and  C_19
REMARK    8  A    between atoms: CA_17  and  CB_18
REMARK    9  A    between atoms: CA_17  and  C_21
REMARK   10  A    between atoms: CB_18  and  CG_20
REMARK   11  A    between atoms: CG_20  and  CD1_22
REMARK   12  A    between atoms: CG_20  and  CD2_23
REMARK                            x       y       z     vdW  Elec       q    Type
REMARK                         _______ _______ _______ _____ _____    ______ ____
ROOT
ATOM      3  O   UNL     1       9.824   3.818   5.516  0.00  0.00    -0.270 OA
ATOM      5  N   UNL     1      10.782   5.210   3.897  0.00  0.00    -0.297 N 
ATOM      7  C   UNL     1      10.835   5.727   1.048  0.00  0.00    +0.004 C 
ATOM      8  C   UNL     1      10.524   6.861   2.059  0.00  0.00    +0.010 C 
ATOM      9  C   UNL     1      10.456   4.348   1.612  0.00  0.00    +0.023 C 
ATOM     10  C   UNL     1      11.170   6.544   3.419  0.00  0.00    +0.112 C 
ATOM     11  C   UNL     1      11.092   4.115   2.980  0.00  0.00    +0.108 C 
ATOM     16  C   UNL     1      10.156   4.932   5.115  0.00  0.00    +0.247 C 
ENDROOT
BRANCH  16  19
ATOM      1  F   UNL     1       9.030   9.218   8.532  0.00  0.00    -0.205 F 
ATOM     19  C   UNL     1       9.861   6.056   6.010  0.00  0.00    +0.037 A 
ATOM     24  C   UNL     1       8.623   6.695   5.944  0.00  0.00    +0.016 A 
ATOM     25  C   UNL     1      10.819   6.487   6.929  0.00  0.00    +0.016 A 
ATOM     26  C   UNL     1       8.342   7.763   6.796  0.00  0.00    +0.039 A 
ATOM     27  C   UNL     1      10.538   7.554   7.781  0.00  0.00    +0.039 A 
ATOM     28  C   UNL     1       9.300   8.193   7.714  0.00  0.00    +0.123 A 
ENDBRANCH  16  19
BRANCH   8  13
ATOM     13  C   UNL     1       9.027   7.145   2.233  0.00  0.00    +0.002 C 
ATOM     15  C   UNL     1       8.781   8.605   2.547  0.00  0.00    +0.004 C 
ENDBRANCH   8  13
BRANCH   7  12
ATOM     12  C   UNL     1      10.191   5.947  -0.320  0.00  0.00    +0.099 C 
BRANCH  12  14
ATOM      2  O   UNL     1      12.075   5.252  -1.669  0.00  0.00    -0.276 OA
ATOM      6  N   UNL     1       9.981   4.324  -2.067  0.00  0.00    -0.310 N 
ATOM     14  C   ACE A   0      10.878   5.155  -1.411  0.00  0.00    +0.214 C 
ATOM     29  H   UNL     1       8.998   4.364  -1.815  0.00  0.00    +0.149 HD
BRANCH   6  17
ATOM     17  CA  UNL     1      10.362   3.454  -3.156  0.00  0.00    +0.098 C 
BRANCH  17  18
ATOM     18  CB  UNL     1       9.226   3.333  -4.188  0.00  0.00    +0.027 C 
BRANCH  18  20
ATOM     20  CG  UNL     1       8.988   4.593  -5.049  0.00  0.00    -0.015 C 
ATOM     22  CD1 UNL     1       7.680   5.267  -4.625  0.00  0.00    +0.007 C 
ATOM     23  CD2 UNL     1       8.943   4.279  -6.545  0.00  0.00    +0.007 C 
ENDBRANCH  18  20
ENDBRANCH  17  18
BRANCH  17  21
ATOM     21  C   UNL     1      10.788   2.087  -2.611  0.00  0.00    +0.178 C 
BRANCH  21   4
ATOM      4  O   UNL     1       9.721   1.152  -2.707  0.00  0.00    -0.393 OA
ATOM     30  H   UNL     1       9.916   0.431  -2.085  0.00  0.00    +0.209 HD
ENDBRANCH  21   4
ENDBRANCH  17  21
ENDBRANCH   6  17
ENDBRANCH  12  14
ENDBRANCH   7  12
TORSDOF 9
ENDMDL
MODEL 7
REMARK VINA RESULT:      -5.6     26.007     29.010
REMARK  Name = 11912310
REMARK  12 active torsions:
REMARK  status: ('A' for Active; 'I' for Inactive)
REMARK    1  A    between atoms: O_4  and  C_21
REMARK    2  A    between atoms: N_6  and  CA_17
REMARK    3  A    between atoms: C_7  and  C_12
REMARK    4  A    between atoms: C_8  and  C_13
REMARK    5  A    between atoms: C_12  and  C_14
REMARK    6  A    between atoms: C_13  and  C_15
REMARK    7  A    between atoms: C_16  and  C_19
REMARK    8  A    between atoms: CA_17  and  CB_18
REMARK    9  A    between atoms: CA_17  and  C_21
REMARK   10  A    between atoms: CB_18  and  CG_20
REMARK   11  A    between atoms: CG_20  and  CD1_22
REMARK   12  A    between atoms: CG_20  and  CD2_23
REMARK                            x       y       z     vdW  Elec       q    Type
REMARK                         _______ _______ _______ _____ _____    ______ ____
ROOT
ATOM      3  O   UNL     1      18.222  11.274   5.972  0.00  0.00    -0.270 OA
ATOM      5  N   UNL     1      16.539   9.673   6.250  0.00  0.00    -0.297 N 
ATOM      7  C   UNL     1      13.790   9.081   5.558  0.00  0.00    +0.004 C 
ATOM      8  C   UNL     1      14.922   8.062   5.269  0.00  0.00    +0.010 C 
ATOM      9  C   UNL     1      14.322  10.523   5.591  0.00  0.00    +0.023 C 
ATOM     10  C   UNL     1      16.085   8.276   6.254  0.00  0.00    +0.112 C 
ATOM     11  C   UNL     1      15.501  10.656   6.552  0.00  0.00    +0.108 C 
ATOM     16  C   UNL     1      17.840  10.105   5.982  0.00  0.00    +0.247 C 
ENDROOT
BRANCH  16  19
ATOM      1  F   UNL     1      21.717   6.233   4.844  0.00  0.00    -0.205 F 
ATOM     19  C   UNL     1      18.856   9.089   5.684  0.00  0.00    +0.037 A 
ATOM     24  C   UNL     1      18.965   8.569   4.394  0.00  0.00    +0.016 A 
ATOM     25  C   UNL     1      19.713   8.643   6.690  0.00  0.00    +0.016 A 
ATOM     26  C   UNL     1      19.931   7.605   4.110  0.00  0.00    +0.039 A 
ATOM     27  C   UNL     1      20.679   7.679   6.406  0.00  0.00    +0.039 A 
ATOM     28  C   UNL     1      20.789   7.159   5.117  0.00  0.00    +0.123 A 
ENDBRANCH  16  19
BRANCH   8  13
ATOM     13  C   UNL     1      15.435   8.097   3.823  0.00  0.00    +0.002 C 
ATOM     15  C   UNL     1      15.190   6.776   3.126  0.00  0.00    +0.004 C 
ENDBRANCH   8  13
BRANCH   7  12
ATOM     12  C   UNL     1      12.612   8.962   4.592  0.00  0.00    +0.099 C 
BRANCH  12  14
ATOM      2  O   UNL     1      11.547   6.897   3.919  0.00  0.00    -0.276 OA
ATOM      6  N   UNL     1      11.433   7.569   6.141  0.00  0.00    -0.310 N 
ATOM     14  C   ACE A   0      11.814   7.696   4.813  0.00  0.00    +0.214 C 
ATOM     29  H   UNL     1      11.655   8.318   6.791  0.00  0.00    +0.149 HD
BRANCH   6  17
ATOM     17  CA  UNL     1      10.658   6.455   6.637  0.00  0.00    +0.098 C 
BRANCH  17  18
ATOM     18  CB  UNL     1       9.175   6.840   6.791  0.00  0.00    +0.027 C 
BRANCH  18  20
ATOM     20  CG  UNL     1       8.260   6.389   5.631  0.00  0.00    -0.015 C 
ATOM     22  CD1 UNL     1       8.824   5.115   4.996  0.00  0.00    +0.007 C 
ATOM     23  CD2 UNL     1       8.097   7.468   4.560  0.00  0.00    +0.007 C 
ENDBRANCH  18  20
ENDBRANCH  17  18
BRANCH  17  21
ATOM     21  C   UNL     1      11.255   5.946   7.953  0.00  0.00    +0.178 C 
BRANCH  21   4
ATOM      4  O   UNL     1      10.638   4.729   8.350  0.00  0.00    -0.393 OA
ATOM     30  H   UNL     1      10.237   4.882   9.222  0.00  0.00    +0.209 HD
ENDBRANCH  21   4
ENDBRANCH  17  21
ENDBRANCH   6  17
ENDBRANCH  12  14
ENDBRANCH   7  12
TORSDOF 9
ENDMDL
MODEL 8
REMARK VINA RESULT:      -5.5     20.245     23.192
REMARK  Name = 11912310
REMARK  12 active torsions:
REMARK  status: ('A' for Active; 'I' for Inactive)
REMARK    1  A    between atoms: O_4  and  C_21
REMARK    2  A    between atoms: N_6  and  CA_17
REMARK    3  A    between atoms: C_7  and  C_12
REMARK    4  A    between atoms: C_8  and  C_13
REMARK    5  A    between atoms: C_12  and  C_14
REMARK    6  A    between atoms: C_13  and  C_15
REMARK    7  A    between atoms: C_16  and  C_19
REMARK    8  A    between atoms: CA_17  and  CB_18
REMARK    9  A    between atoms: CA_17  and  C_21
REMARK   10  A    between atoms: CB_18  and  CG_20
REMARK   11  A    between atoms: CG_20  and  CD1_22
REMARK   12  A    between atoms: CG_20  and  CD2_23
REMARK                            x       y       z     vdW  Elec       q    Type
REMARK                         _______ _______ _______ _____ _____    ______ ____
ROOT
ATOM      3  O   UNL     1     -15.837   9.399  22.521  0.00  0.00    -0.270 OA
ATOM      5  N   UNL     1     -14.554   8.826  20.650  0.00  0.00    -0.297 N 
ATOM      7  C   UNL     1     -12.045   9.395  19.319  0.00  0.00    +0.004 C 
ATOM      8  C   UNL     1     -12.444   7.941  19.681  0.00  0.00    +0.010 C 
ATOM      9  C   UNL     1     -12.711  10.414  20.259  0.00  0.00    +0.023 C 
ATOM     10  C   UNL     1     -13.977   7.819  19.750  0.00  0.00    +0.112 C 
ATOM     11  C   UNL     1     -14.223  10.210  20.316  0.00  0.00    +0.108 C 
ATOM     16  C   UNL     1     -15.358   8.559  21.761  0.00  0.00    +0.247 C 
ENDROOT
BRANCH  16  19
ATOM      1  F   UNL     1     -16.550   3.217  22.924  0.00  0.00    -0.205 F 
ATOM     19  C   UNL     1     -15.670   7.158  22.065  0.00  0.00    +0.037 A 
ATOM     24  C   UNL     1     -15.067   6.530  23.155  0.00  0.00    +0.016 A 
ATOM     25  C   UNL     1     -16.570   6.454  21.265  0.00  0.00    +0.016 A 
ATOM     26  C   UNL     1     -15.364   5.199  23.446  0.00  0.00    +0.039 A 
ATOM     27  C   UNL     1     -16.867   5.123  21.556  0.00  0.00    +0.039 A 
ATOM     28  C   UNL     1     -16.264   4.495  22.645  0.00  0.00    +0.123 A 
ENDBRANCH  16  19
BRANCH   8  13
ATOM     13  C   UNL     1     -11.810   7.428  20.980  0.00  0.00    +0.002 C 
ATOM     15  C   UNL     1     -12.204   5.992  21.250  0.00  0.00    +0.004 C 
ENDBRANCH   8  13
BRANCH   7  12
ATOM     12  C   UNL     1     -10.533   9.611  19.273  0.00  0.00    +0.099 C 
BRANCH  12  14
ATOM      2  O   UNL     1      -9.901   9.158  16.983  0.00  0.00    -0.276 OA
ATOM      6  N   UNL     1      -9.796  11.337  17.787  0.00  0.00    -0.310 N 
ATOM     14  C   ACE A   0     -10.048   9.976  17.887  0.00  0.00    +0.214 C 
ATOM     29  H   UNL     1      -9.894  11.918  18.614  0.00  0.00    +0.149 HD
BRANCH   6  17
ATOM     17  CA  UNL     1      -9.319  11.964  16.576  0.00  0.00    +0.098 C 
BRANCH  17  18
ATOM     18  CB  UNL     1      -8.569  13.271  16.891  0.00  0.00    +0.027 C 
BRANCH  18  20
ATOM     20  CG  UNL     1      -7.179  13.401  16.231  0.00  0.00    -0.015 C 
ATOM     22  CD1 UNL     1      -6.287  14.309  17.085  0.00  0.00    +0.007 C 
ATOM     23  CD2 UNL     1      -7.255  13.950  14.806  0.00  0.00    +0.007 C 
ENDBRANCH  18  20
ENDBRANCH  17  18
BRANCH  17  21
ATOM     21  C   UNL     1     -10.486  12.194  15.609  0.00  0.00    +0.178 C 
BRANCH  21   4
ATOM      4  O   UNL     1     -10.656  11.075  14.749  0.00  0.00    -0.393 OA
ATOM     30  H   UNL     1     -10.831  10.304  15.315  0.00  0.00    +0.209 HD
ENDBRANCH  21   4
ENDBRANCH  17  21
ENDBRANCH   6  17
ENDBRANCH  12  14
ENDBRANCH   7  12
TORSDOF 9
ENDMDL
MODEL 9
REMARK VINA RESULT:      -5.4     19.810     20.650
REMARK  Name = 11912310
REMARK  12 active torsions:
REMARK  status: ('A' for Active; 'I' for Inactive)
REMARK    1  A    between atoms: O_4  and  C_21
REMARK    2  A    between atoms: N_6  and  CA_17
REMARK    3  A    between atoms: C_7  and  C_12
REMARK    4  A    between atoms: C_8  and  C_13
REMARK    5  A    between atoms: C_12  and  C_14
REMARK    6  A    between atoms: C_13  and  C_15
REMARK    7  A    between atoms: C_16  and  C_19
REMARK    8  A    between atoms: CA_17  and  CB_18
REMARK    9  A    between atoms: CA_17  and  C_21
REMARK   10  A    between atoms: CB_18  and  CG_20
REMARK   11  A    between atoms: CG_20  and  CD1_22
REMARK   12  A    between atoms: CG_20  and  CD2_23
REMARK                            x       y       z     vdW  Elec       q    Type
REMARK                         _______ _______ _______ _____ _____    ______ ____
ROOT
ATOM      3  O   UNL     1      -9.972  11.340  16.272  0.00  0.00    -0.270 OA
ATOM      5  N   UNL     1     -10.613   9.314  17.250  0.00  0.00    -0.297 N 
ATOM      7  C   UNL     1     -11.619   8.162  19.709  0.00  0.00    +0.004 C 
ATOM      8  C   UNL     1     -12.342   7.916  18.360  0.00  0.00    +0.010 C 
ATOM      9  C   UNL     1     -10.836   9.486  19.697  0.00  0.00    +0.023 C 
ATOM     10  C   UNL     1     -11.339   8.038  17.198  0.00  0.00    +0.112 C 
ATOM     11  C   UNL     1      -9.895   9.562  18.498  0.00  0.00    +0.108 C 
ATOM     16  C   UNL     1     -10.573  10.268  16.230  0.00  0.00    +0.247 C 
ENDROOT
BRANCH  16  19
ATOM      1  F   UNL     1     -13.367   9.185  11.505  0.00  0.00    -0.205 F 
ATOM     19  C   UNL     1     -11.305   9.985  14.991  0.00  0.00    +0.037 A 
ATOM     24  C   UNL     1     -10.830   9.017  14.106  0.00  0.00    +0.016 A 
ATOM     25  C   UNL     1     -12.477  10.683  14.698  0.00  0.00    +0.016 A 
ATOM     26  C   UNL     1     -11.526   8.746  12.928  0.00  0.00    +0.039 A 
ATOM     27  C   UNL     1     -13.173  10.412  13.520  0.00  0.00    +0.039 A 
ATOM     28  C   UNL     1     -12.698   9.445  12.635  0.00  0.00    +0.123 A 
ENDBRANCH  16  19
BRANCH   8  13
ATOM     13  C   UNL     1     -13.546   8.835  18.122  0.00  0.00    +0.002 C 
ATOM     15  C   UNL     1     -14.824   8.035  17.983  0.00  0.00    +0.004 C 
ENDBRANCH   8  13
BRANCH   7  12
ATOM     12  C   UNL     1     -12.558   8.101  20.914  0.00  0.00    +0.099 C 
BRANCH  12  14
ATOM      2  O   UNL     1     -11.928   5.841  21.500  0.00  0.00    -0.276 OA
ATOM      6  N   UNL     1     -14.163   6.468  21.611  0.00  0.00    -0.310 N 
ATOM     14  C   ACE A   0     -12.814   6.682  21.370  0.00  0.00    +0.214 C 
ATOM     29  H   UNL     1     -14.823   7.216  21.413  0.00  0.00    +0.149 HD
BRANCH   6  17
ATOM     17  CA  UNL     1     -14.695   5.200  22.054  0.00  0.00    +0.098 C 
BRANCH  17  18
ATOM     18  CB  UNL     1     -16.156   5.027  21.600  0.00  0.00    +0.027 C 
BRANCH  18  20
ATOM     20  CG  UNL     1     -16.605   5.975  20.467  0.00  0.00    -0.015 C 
ATOM     22  CD1 UNL     1     -17.686   6.926  20.988  0.00  0.00    +0.007 C 
ATOM     23  CD2 UNL     1     -17.131   5.220  19.245  0.00  0.00    +0.007 C 
ENDBRANCH  18  20
ENDBRANCH  17  18
BRANCH  17  21
ATOM     21  C   UNL     1     -14.551   5.074  23.575  0.00  0.00    +0.178 C 
BRANCH  21   4
ATOM      4  O   UNL     1     -13.324   4.442  23.914  0.00  0.00    -0.393 OA
ATOM     30  H   UNL     1     -12.747   5.124  24.298  0.00  0.00    +0.209 HD
ENDBRANCH  21   4
ENDBRANCH  17  21
ENDBRANCH   6  17
ENDBRANCH  12  14
ENDBRANCH   7  12
TORSDOF 9
ENDMDL
MODEL 10
REMARK VINA RESULT:      -5.4     23.112     27.156
REMARK  Name = 11912310
REMARK  12 active torsions:
REMARK  status: ('A' for Active; 'I' for Inactive)
REMARK    1  A    between atoms: O_4  and  C_21
REMARK    2  A    between atoms: N_6  and  CA_17
REMARK    3  A    between atoms: C_7  and  C_12
REMARK    4  A    between atoms: C_8  and  C_13
REMARK    5  A    between atoms: C_12  and  C_14
REMARK    6  A    between atoms: C_13  and  C_15
REMARK    7  A    between atoms: C_16  and  C_19
REMARK    8  A    between atoms: CA_17  and  CB_18
REMARK    9  A    between atoms: CA_17  and  C_21
REMARK   10  A    between atoms: CB_18  and  CG_20
REMARK   11  A    between atoms: CG_20  and  CD1_22
REMARK   12  A    between atoms: CG_20  and  CD2_23
REMARK                            x       y       z     vdW  Elec       q    Type
REMARK                         _______ _______ _______ _____ _____    ______ ____
ROOT
ATOM      3  O   UNL     1       7.909   7.213   4.709  0.00  0.00    -0.270 OA
ATOM      5  N   UNL     1       9.946   6.332   3.968  0.00  0.00    -0.297 N 
ATOM      7  C   UNL     1      12.282   6.961   2.375  0.00  0.00    +0.004 C 
ATOM      8  C   UNL     1      12.424   6.464   3.838  0.00  0.00    +0.010 C 
ATOM      9  C   UNL     1      10.933   7.664   2.146  0.00  0.00    +0.023 C 
ATOM     10  C   UNL     1      11.201   5.613   4.224  0.00  0.00    +0.112 C 
ATOM     11  C   UNL     1       9.767   6.785   2.591  0.00  0.00    +0.108 C 
ATOM     16  C   UNL     1       8.958   6.606   4.917  0.00  0.00    +0.247 C 
ENDROOT
BRANCH  16  19
ATOM      1  F   UNL     1       9.775   4.810  10.154  0.00  0.00    -0.205 F 
ATOM     19  C   UNL     1       9.172   6.135   6.291  0.00  0.00    +0.037 A 
ATOM     24  C   UNL     1       9.631   4.838   6.520  0.00  0.00    +0.016 A 
ATOM     25  C   UNL     1       8.916   6.984   7.367  0.00  0.00    +0.016 A 
ATOM     26  C   UNL     1       9.835   4.390   7.824  0.00  0.00    +0.039 A 
ATOM     27  C   UNL     1       9.120   6.536   8.672  0.00  0.00    +0.039 A 
ATOM     28  C   UNL     1       9.579   5.239   8.901  0.00  0.00    +0.123 A 
ENDBRANCH  16  19
BRANCH   8  13
ATOM     13  C   UNL     1      12.633   7.590   4.858  0.00  0.00    +0.002 C 
ATOM     15  C   UNL     1      12.720   7.040   6.266  0.00  0.00    +0.004 C 
ENDBRANCH   8  13
BRANCH   7  12
ATOM     12  C   UNL     1      13.439   7.852   1.927  0.00  0.00    +0.099 C 
BRANCH  12  14
ATOM      2  O   UNL     1      15.227   7.730   0.303  0.00  0.00    -0.276 OA
ATOM      6  N   UNL     1      14.073   5.796   0.878  0.00  0.00    -0.310 N 
ATOM     14  C   ACE A   0      14.355   7.153   0.947  0.00  0.00    +0.214 C 
ATOM     29  H   UNL     1      13.289   5.429   1.410  0.00  0.00    +0.149 HD
BRANCH   6  17
ATOM     17  CA  UNL     1      14.792   4.883   0.019  0.00  0.00    +0.098 C 
BRANCH  17  18
ATOM     18  CB  UNL     1      13.914   4.432  -1.162  0.00  0.00    +0.027 C 
BRANCH  18  20
ATOM     20  CG  UNL     1      12.684   3.582  -0.775  0.00  0.00    -0.015 C 
ATOM     22  CD1 UNL     1      12.445   2.507  -1.839  0.00  0.00    +0.007 C 
ATOM     23  CD2 UNL     1      11.419   4.426  -0.604  0.00  0.00    +0.007 C 
ENDBRANCH  18  20
ENDBRANCH  17  18
BRANCH  17  21
ATOM     21  C   UNL     1      15.308   3.693   0.834  0.00  0.00    +0.178 C 
BRANCH  21   4
ATOM      4  O   UNL     1      14.647   3.617   2.091  0.00  0.00    -0.393 OA
ATOM     30  H   UNL     1      14.642   4.514   2.466  0.00  0.00    +0.209 HD
ENDBRANCH  21   4
ENDBRANCH  17  21
ENDBRANCH   6  17
ENDBRANCH  12  14
ENDBRANCH   7  12
TORSDOF 9
ENDMDL
