MODEL 1
REMARK VINA RESULT:      -6.7      0.000      0.000
REMARK  Name = 75536171
REMARK  13 active torsions:
REMARK  status: ('A' for Active; 'I' for Inactive)
REMARK    1  A    between atoms: O_2  and  C_30
REMARK    2  A    between atoms: N_4  and  C_14
REMARK    3  A    between atoms: C_7  and  C_11
REMARK    4  A    between atoms: C_8  and  C_14
REMARK    5  A    between atoms: C_10  and  C_15
REMARK    6  A    between atoms: C_11  and  C_16
REMARK    7  A    between atoms: C_11  and  C_17
REMARK    8  A    between atoms: C_12  and  C_18
REMARK    9  A    between atoms: C_15  and  C_19
REMARK   10  A    between atoms: C_20  and  C_23
REMARK   11  A    between atoms: C_23  and  C_26
REMARK   12  A    between atoms: C_24  and  C_29
REMARK   13  A    between atoms: C_26  and  C_30
REMARK                            x       y       z     vdW  Elec       q    Type
REMARK                         _______ _______ _______ _____ _____    ______ ____
ROOT
ATOM      7  C   UNL     1      -9.311  -9.288  16.716  0.00  0.00    +0.000 C 
ATOM      8  C   UNL     1      -9.833 -10.642  17.258  0.00  0.00    +0.032 C 
ATOM      9  C   UNL     1      -9.120  -9.358  15.193  0.00  0.00    +0.012 C 
ATOM     10  C   UNL     1      -8.129 -10.465  14.781  0.00  0.00    +0.022 C 
ATOM     12  C   UNL     1      -8.420 -11.773  15.487  0.00  0.00    -0.073 C 
ATOM     13  C   UNL     1      -9.195 -11.835  16.586  0.00  0.00    -0.022 C 
ATOM     18  C   UNL     1      -7.837 -13.016  14.876  0.00  0.00    +0.039 C 
ENDROOT
BRANCH   7  11
ATOM     11  C   UNL     1     -10.254  -8.134  17.067  0.00  0.00    -0.013 C 
ATOM     16  C   UNL     1     -10.130  -7.014  16.037  0.00  0.00    +0.007 C 
ATOM     17  C   UNL     1     -11.693  -8.630  17.156  0.00  0.00    +0.007 C 
ENDBRANCH   7  11
BRANCH   8  14
ATOM     14  C   UNL     1      -9.634 -10.744  18.775  0.00  0.00    +0.112 C 
BRANCH  14   4
ATOM      1  O   UNL     1      -7.694 -12.616  19.825  0.00  0.00    -0.276 OA
ATOM      4  N   UNL     1      -8.275 -10.475  19.127  0.00  0.00    -0.315 N 
ATOM     20  C   UNL     1      -7.401 -11.440  19.629  0.00  0.00    +0.214 C 
ATOM     31  H   UNL     1      -7.912  -9.542  18.950  0.00  0.00    +0.149 HD
BRANCH  20  23
ATOM     23  C   UNL     1      -6.024 -10.869  19.916  0.00  0.00    +0.107 C 
BRANCH  23  26
ATOM     26  C   UNL     1      -5.077 -11.003  18.728  0.00  0.00    +0.129 C 
BRANCH  26  30
ATOM      3  O   UNL     1      -4.595 -13.345  18.273  0.00  0.00    -0.251 OA
ATOM     30  C   UNL     1      -4.275 -12.281  18.786  0.00  0.00    +0.305 C 
BRANCH  30   2
ATOM      2  O   UNL     1      -3.124 -12.114  19.492  0.00  0.00    -0.481 OA
ATOM     33  H   UNL     1      -2.969 -11.172  19.719  0.00  0.00    +0.295 HD
ENDBRANCH  30   2
ENDBRANCH  26  30
ENDBRANCH  23  26
ENDBRANCH  20  23
ENDBRANCH  14   4
ENDBRANCH   8  14
BRANCH  10  15
ATOM     15  C   UNL     1      -6.680 -10.024  15.016  0.00  0.00    +0.082 C 
BRANCH  15  19
ATOM      5  N   UNL     1      -6.468  -9.090  12.706  0.00  0.00    -0.342 N 
ATOM      6  N   UNL     1      -4.774 -10.348  13.401  0.00  0.00    -0.232 NA
ATOM     19  C   UNL     1      -5.944  -9.842  13.720  0.00  0.00    +0.109 A 
ATOM     21  C   UNL     1      -5.576  -9.110  11.664  0.00  0.00    +0.066 A 
ATOM     22  C   UNL     1      -4.527  -9.902  12.123  0.00  0.00    +0.092 A 
ATOM     24  C   UNL     1      -3.424 -10.133  11.283  0.00  0.00    -0.023 A 
ATOM     25  C   UNL     1      -5.596  -8.523  10.399  0.00  0.00    +0.028 A 
ATOM     27  C   UNL     1      -3.423  -9.553  10.009  0.00  0.00    +0.005 A 
ATOM     28  C   UNL     1      -4.490  -8.762   9.577  0.00  0.00    +0.002 A 
ATOM     29  C   UNL     1      -2.260 -10.971  11.699  0.00  0.00    +0.046 C 
ATOM     32  H   UNL     1      -7.354  -8.602  12.720  0.00  0.00    +0.167 HD
ENDBRANCH  15  19
ENDBRANCH  10  15
TORSDOF 9
ENDMDL
MODEL 2
REMARK VINA RESULT:      -6.6     23.283     27.189
REMARK  Name = 75536171
REMARK  13 active torsions:
REMARK  status: ('A' for Active; 'I' for Inactive)
REMARK    1  A    between atoms: O_2  and  C_30
REMARK    2  A    between atoms: N_4  and  C_14
REMARK    3  A    between atoms: C_7  and  C_11
REMARK    4  A    between atoms: C_8  and  C_14
REMARK    5  A    between atoms: C_10  and  C_15
REMARK    6  A    between atoms: C_11  and  C_16
REMARK    7  A    between atoms: C_11  and  C_17
REMARK    8  A    between atoms: C_12  and  C_18
REMARK    9  A    between atoms: C_15  and  C_19
REMARK   10  A    between atoms: C_20  and  C_23
REMARK   11  A    between atoms: C_23  and  C_26
REMARK   12  A    between atoms: C_24  and  C_29
REMARK   13  A    between atoms: C_26  and  C_30
REMARK                            x       y       z     vdW  Elec       q    Type
REMARK                         _______ _______ _______ _____ _____    ______ ____
ROOT
ATOM      7  C   UNL     1      11.981   8.308   4.523  0.00  0.00    +0.000 C 
ATOM      8  C   UNL     1      11.189   9.300   5.410  0.00  0.00    +0.032 C 
ATOM      9  C   UNL     1      11.381   8.256   3.109  0.00  0.00    +0.012 C 
ATOM     10  C   UNL     1       9.901   7.826   3.121  0.00  0.00    +0.022 C 
ATOM     12  C   UNL     1       9.104   8.578   4.167  0.00  0.00    -0.073 C 
ATOM     13  C   UNL     1       9.697   9.242   5.176  0.00  0.00    -0.022 C 
ATOM     18  C   UNL     1       7.610   8.588   4.002  0.00  0.00    +0.039 C 
ENDROOT
BRANCH   7  11
ATOM     11  C   UNL     1      13.465   8.679   4.442  0.00  0.00    -0.013 C 
ATOM     16  C   UNL     1      14.328   7.532   4.957  0.00  0.00    +0.007 C 
ATOM     17  C   UNL     1      13.846   9.043   3.011  0.00  0.00    +0.007 C 
ENDBRANCH   7  11
BRANCH   8  14
ATOM     14  C   UNL     1      11.480   9.067   6.897  0.00  0.00    +0.112 C 
BRANCH  14   4
ATOM      1  O   UNL     1      11.536   6.203   7.308  0.00  0.00    -0.276 OA
ATOM      4  N   UNL     1      10.463   8.258   7.493  0.00  0.00    -0.315 N 
ATOM     20  C   UNL     1      10.569   6.877   7.655  0.00  0.00    +0.214 C 
ATOM     31  H   UNL     1       9.642   8.725   7.869  0.00  0.00    +0.149 HD
BRANCH  20  23
ATOM     23  C   UNL     1       9.339   6.281   8.315  0.00  0.00    +0.107 C 
BRANCH  23  26
ATOM     26  C   UNL     1       9.534   4.821   8.707  0.00  0.00    +0.129 C 
BRANCH  26  30
ATOM      3  O   UNL     1       8.112   4.641  10.673  0.00  0.00    -0.251 OA
ATOM     30  C   UNL     1       9.223   4.580  10.165  0.00  0.00    +0.305 C 
BRANCH  30   2
ATOM      2  O   UNL     1      10.346   4.281  10.870  0.00  0.00    -0.481 OA
ATOM     33  H   UNL     1      10.855   3.552  10.454  0.00  0.00    +0.295 HD
ENDBRANCH  30   2
ENDBRANCH  26  30
ENDBRANCH  23  26
ENDBRANCH  20  23
ENDBRANCH  14   4
ENDBRANCH   8  14
BRANCH  10  15
ATOM     15  C   UNL     1       9.767   6.311   3.313  0.00  0.00    +0.082 C 
BRANCH  15  19
ATOM      5  N   UNL     1      10.035   5.381   1.006  0.00  0.00    -0.342 N 
ATOM      6  N   UNL     1      11.715   4.995   2.408  0.00  0.00    -0.232 NA
ATOM     19  C   UNL     1      10.535   5.556   2.267  0.00  0.00    +0.109 A 
ATOM     21  C   UNL     1      10.953   4.661   0.287  0.00  0.00    +0.066 A 
ATOM     22  C   UNL     1      11.993   4.432   1.184  0.00  0.00    +0.092 A 
ATOM     24  C   UNL     1      13.118   3.704   0.758  0.00  0.00    -0.023 A 
ATOM     25  C   UNL     1      10.963   4.203  -1.032  0.00  0.00    +0.028 A 
ATOM     27  C   UNL     1      13.149   3.235  -0.561  0.00  0.00    +0.005 A 
ATOM     28  C   UNL     1      12.090   3.482  -1.438  0.00  0.00    +0.002 A 
ATOM     29  C   UNL     1      14.274   3.415   1.658  0.00  0.00    +0.046 C 
ATOM     32  H   UNL     1       9.147   5.723   0.664  0.00  0.00    +0.167 HD
ENDBRANCH  15  19
ENDBRANCH  10  15
TORSDOF 9
ENDMDL
MODEL 3
REMARK VINA RESULT:      -6.5     24.870     27.209
REMARK  Name = 75536171
REMARK  13 active torsions:
REMARK  status: ('A' for Active; 'I' for Inactive)
REMARK    1  A    between atoms: O_2  and  C_30
REMARK    2  A    between atoms: N_4  and  C_14
REMARK    3  A    between atoms: C_7  and  C_11
REMARK    4  A    between atoms: C_8  and  C_14
REMARK    5  A    between atoms: C_10  and  C_15
REMARK    6  A    between atoms: C_11  and  C_16
REMARK    7  A    between atoms: C_11  and  C_17
REMARK    8  A    between atoms: C_12  and  C_18
REMARK    9  A    between atoms: C_15  and  C_19
REMARK   10  A    between atoms: C_20  and  C_23
REMARK   11  A    between atoms: C_23  and  C_26
REMARK   12  A    between atoms: C_24  and  C_29
REMARK   13  A    between atoms: C_26  and  C_30
REMARK                            x       y       z     vdW  Elec       q    Type
REMARK                         _______ _______ _______ _____ _____    ______ ____
ROOT
ATOM      7  C   UNL     1       8.948   8.190   5.318  0.00  0.00    +0.000 C 
ATOM      8  C   UNL     1       8.609   7.620   6.718  0.00  0.00    +0.032 C 
ATOM      9  C   UNL     1       8.680   7.137   4.231  0.00  0.00    +0.012 C 
ATOM     10  C   UNL     1       9.505   5.854   4.448  0.00  0.00    +0.022 C 
ATOM     12  C   UNL     1       9.435   5.376   5.884  0.00  0.00    -0.073 C 
ATOM     13  C   UNL     1       9.020   6.175   6.884  0.00  0.00    -0.022 C 
ATOM     18  C   UNL     1       9.810   3.943   6.139  0.00  0.00    +0.039 C 
ENDROOT
BRANCH   7  11
ATOM     11  C   UNL     1       8.152   9.462   5.015  0.00  0.00    -0.013 C 
ATOM     16  C   UNL     1       9.096  10.610   4.670  0.00  0.00    +0.007 C 
ATOM     17  C   UNL     1       7.164   9.214   3.880  0.00  0.00    +0.007 C 
ENDBRANCH   7  11
BRANCH   8  14
ATOM     14  C   UNL     1       9.248   8.462   7.828  0.00  0.00    +0.112 C 
BRANCH  14   4
ATOM      1  O   UNL     1      10.764  10.925   7.754  0.00  0.00    -0.276 OA
ATOM      4  N   UNL     1      10.653   8.606   7.611  0.00  0.00    -0.315 N 
ATOM     20  C   UNL     1      11.310   9.837   7.591  0.00  0.00    +0.214 C 
ATOM     31  H   UNL     1      11.211   7.761   7.521  0.00  0.00    +0.149 HD
BRANCH  20  23
ATOM     23  C   UNL     1      12.799   9.686   7.337  0.00  0.00    +0.107 C 
BRANCH  23  26
ATOM     26  C   UNL     1      13.104   8.715   6.202  0.00  0.00    +0.129 C 
BRANCH  26  30
ATOM      3  O   UNL     1      15.022   7.302   6.697  0.00  0.00    -0.251 OA
ATOM     30  C   UNL     1      13.811   7.475   6.693  0.00  0.00    +0.305 C 
BRANCH  30   2
ATOM      2  O   UNL     1      12.928   6.545   7.144  0.00  0.00    -0.481 OA
ATOM     33  H   UNL     1      13.381   5.736   7.466  0.00  0.00    +0.295 HD
ENDBRANCH  30   2
ENDBRANCH  26  30
ENDBRANCH  23  26
ENDBRANCH  20  23
ENDBRANCH  14   4
ENDBRANCH   8  14
BRANCH  10  15
ATOM     15  C   UNL     1      10.959   6.049   4.004  0.00  0.00    +0.082 C 
BRANCH  15  19
ATOM      5  N   UNL     1      12.261   4.550   2.482  0.00  0.00    -0.342 N 
ATOM      6  N   UNL     1      10.516   5.580   1.569  0.00  0.00    -0.232 NA
ATOM     19  C   UNL     1      11.215   5.411   2.669  0.00  0.00    +0.109 A 
ATOM     21  C   UNL     1      12.235   4.137   1.175  0.00  0.00    +0.066 A 
ATOM     22  C   UNL     1      11.137   4.794   0.626  0.00  0.00    +0.092 A 
ATOM     24  C   UNL     1      10.821   4.587  -0.728  0.00  0.00    -0.023 A 
ATOM     25  C   UNL     1      13.052   3.271   0.447  0.00  0.00    +0.028 A 
ATOM     27  C   UNL     1      11.628   3.723  -1.477  0.00  0.00    +0.005 A 
ATOM     28  C   UNL     1      12.723   3.077  -0.898  0.00  0.00    +0.002 A 
ATOM     29  C   UNL     1       9.661   5.254  -1.392  0.00  0.00    +0.046 C 
ATOM     32  H   UNL     1      12.934   4.267   3.182  0.00  0.00    +0.167 HD
ENDBRANCH  15  19
ENDBRANCH  10  15
TORSDOF 9
ENDMDL
MODEL 4
REMARK VINA RESULT:      -6.5      2.081      4.313
REMARK  Name = 75536171
REMARK  13 active torsions:
REMARK  status: ('A' for Active; 'I' for Inactive)
REMARK    1  A    between atoms: O_2  and  C_30
REMARK    2  A    between atoms: N_4  and  C_14
REMARK    3  A    between atoms: C_7  and  C_11
REMARK    4  A    between atoms: C_8  and  C_14
REMARK    5  A    between atoms: C_10  and  C_15
REMARK    6  A    between atoms: C_11  and  C_16
REMARK    7  A    between atoms: C_11  and  C_17
REMARK    8  A    between atoms: C_12  and  C_18
REMARK    9  A    between atoms: C_15  and  C_19
REMARK   10  A    between atoms: C_20  and  C_23
REMARK   11  A    between atoms: C_23  and  C_26
REMARK   12  A    between atoms: C_24  and  C_29
REMARK   13  A    between atoms: C_26  and  C_30
REMARK                            x       y       z     vdW  Elec       q    Type
REMARK                         _______ _______ _______ _____ _____    ______ ____
ROOT
ATOM      7  C   UNL     1      -5.565 -11.342  17.281  0.00  0.00    +0.000 C 
ATOM      8  C   UNL     1      -6.477 -11.116  18.512  0.00  0.00    +0.032 C 
ATOM      9  C   UNL     1      -5.370 -10.027  16.510  0.00  0.00    +0.012 C 
ATOM     10  C   UNL     1      -6.706  -9.433  16.025  0.00  0.00    +0.022 C 
ATOM     12  C   UNL     1      -7.750  -9.424  17.123  0.00  0.00    -0.073 C 
ATOM     13  C   UNL     1      -7.624 -10.173  18.234  0.00  0.00    -0.022 C 
ATOM     18  C   UNL     1      -8.921  -8.501  16.936  0.00  0.00    +0.039 C 
ENDROOT
BRANCH   7  11
ATOM     11  C   UNL     1      -4.202 -11.915  17.681  0.00  0.00    -0.013 C 
ATOM     16  C   UNL     1      -3.084 -11.205  16.924  0.00  0.00    +0.007 C 
ATOM     17  C   UNL     1      -3.996 -11.796  19.188  0.00  0.00    +0.007 C 
ENDBRANCH   7  11
BRANCH   8  14
ATOM     14  C   UNL     1      -7.025 -12.444  19.046  0.00  0.00    +0.112 C 
BRANCH  14   4
ATOM      1  O   UNL     1      -9.021 -14.464  19.601  0.00  0.00    -0.276 OA
ATOM      4  N   UNL     1      -8.300 -12.253  19.664  0.00  0.00    -0.315 N 
ATOM     20  C   UNL     1      -9.208 -13.287  19.897  0.00  0.00    +0.214 C 
ATOM     31  H   UNL     1      -8.533 -11.323  20.002  0.00  0.00    +0.149 HD
BRANCH  20  23
ATOM     23  C   UNL     1     -10.478 -12.792  20.566  0.00  0.00    +0.107 C 
BRANCH  23  26
ATOM     26  C   UNL     1     -11.339 -11.947  19.633  0.00  0.00    +0.129 C 
BRANCH  26  30
ATOM      3  O   UNL     1     -11.994  -9.605  19.541  0.00  0.00    -0.251 OA
ATOM     30  C   UNL     1     -11.235 -10.474  19.948  0.00  0.00    +0.305 C 
BRANCH  30   2
ATOM      2  O   UNL     1     -10.175 -10.213  20.758  0.00  0.00    -0.481 OA
ATOM     33  H   UNL     1      -9.374  -9.972  20.244  0.00  0.00    +0.295 HD
ENDBRANCH  30   2
ENDBRANCH  26  30
ENDBRANCH  23  26
ENDBRANCH  20  23
ENDBRANCH  14   4
ENDBRANCH   8  14
BRANCH  10  15
ATOM     15  C   UNL     1      -7.221 -10.171  14.784  0.00  0.00    +0.082 C 
BRANCH  15  19
ATOM      5  N   UNL     1      -6.555  -9.035  12.656  0.00  0.00    -0.342 N 
ATOM      6  N   UNL     1      -5.201 -10.651  13.358  0.00  0.00    -0.232 NA
ATOM     19  C   UNL     1      -6.302  -9.980  13.612  0.00  0.00    +0.109 A 
ATOM     21  C   UNL     1      -5.550  -9.100  11.726  0.00  0.00    +0.066 A 
ATOM     22  C   UNL     1      -4.717 -10.116  12.186  0.00  0.00    +0.092 A 
ATOM     24  C   UNL     1      -3.567 -10.447  11.449  0.00  0.00    -0.023 A 
ATOM     25  C   UNL     1      -5.305  -8.380  10.556  0.00  0.00    +0.028 A 
ATOM     27  C   UNL     1      -3.302  -9.737  10.272  0.00  0.00    +0.005 A 
ATOM     28  C   UNL     1      -4.156  -8.722   9.835  0.00  0.00    +0.002 A 
ATOM     29  C   UNL     1      -2.624 -11.524  11.874  0.00  0.00    +0.046 C 
ATOM     32  H   UNL     1      -7.341  -8.400  12.638  0.00  0.00    +0.167 HD
ENDBRANCH  15  19
ENDBRANCH  10  15
TORSDOF 9
ENDMDL
MODEL 5
REMARK VINA RESULT:      -6.4      3.130      7.437
REMARK  Name = 75536171
REMARK  13 active torsions:
REMARK  status: ('A' for Active; 'I' for Inactive)
REMARK    1  A    between atoms: O_2  and  C_30
REMARK    2  A    between atoms: N_4  and  C_14
REMARK    3  A    between atoms: C_7  and  C_11
REMARK    4  A    between atoms: C_8  and  C_14
REMARK    5  A    between atoms: C_10  and  C_15
REMARK    6  A    between atoms: C_11  and  C_16
REMARK    7  A    between atoms: C_11  and  C_17
REMARK    8  A    between atoms: C_12  and  C_18
REMARK    9  A    between atoms: C_15  and  C_19
REMARK   10  A    between atoms: C_20  and  C_23
REMARK   11  A    between atoms: C_23  and  C_26
REMARK   12  A    between atoms: C_24  and  C_29
REMARK   13  A    between atoms: C_26  and  C_30
REMARK                            x       y       z     vdW  Elec       q    Type
REMARK                         _______ _______ _______ _____ _____    ______ ____
ROOT
ATOM      7  C   UNL     1      -5.677 -10.695  17.813  0.00  0.00    +0.000 C 
ATOM      8  C   UNL     1      -5.032 -11.047  16.449  0.00  0.00    +0.032 C 
ATOM      9  C   UNL     1      -7.187 -10.979  17.781  0.00  0.00    +0.012 C 
ATOM     10  C   UNL     1      -7.907 -10.177  16.679  0.00  0.00    +0.022 C 
ATOM     12  C   UNL     1      -7.175 -10.258  15.355  0.00  0.00    -0.073 C 
ATOM     13  C   UNL     1      -5.894 -10.662  15.270  0.00  0.00    -0.022 C 
ATOM     18  C   UNL     1      -7.963  -9.909  14.123  0.00  0.00    +0.039 C 
ENDROOT
BRANCH   7  11
ATOM     11  C   UNL     1      -5.029 -11.469  18.964  0.00  0.00    -0.013 C 
ATOM     16  C   UNL     1      -5.914 -11.414  20.206  0.00  0.00    +0.007 C 
ATOM     17  C   UNL     1      -4.763 -12.913  18.553  0.00  0.00    +0.007 C 
ENDBRANCH   7  11
BRANCH   8  14
ATOM     14  C   UNL     1      -3.652 -10.397  16.306  0.00  0.00    +0.112 C 
BRANCH  14   4
ATOM      1  O   UNL     1      -1.259 -11.435  15.054  0.00  0.00    -0.276 OA
ATOM      4  N   UNL     1      -3.281 -10.292  14.929  0.00  0.00    -0.315 N 
ATOM     20  C   UNL     1      -2.103 -10.825  14.404  0.00  0.00    +0.214 C 
ATOM     31  H   UNL     1      -3.938  -9.855  14.290  0.00  0.00    +0.149 HD
BRANCH  20  23
ATOM     23  C   UNL     1      -1.971 -10.561  12.914  0.00  0.00    +0.107 C 
BRANCH  23  26
ATOM     26  C   UNL     1      -3.323 -10.491  12.212  0.00  0.00    +0.129 C 
BRANCH  26  30
ATOM      3  O   UNL     1      -2.647  -9.157  10.291  0.00  0.00    -0.251 OA
ATOM     30  C   UNL     1      -3.181 -10.160  10.745  0.00  0.00    +0.305 C 
BRANCH  30   2
ATOM      2  O   UNL     1      -3.729 -11.127   9.962  0.00  0.00    -0.481 OA
ATOM     33  H   UNL     1      -4.538 -11.509  10.366  0.00  0.00    +0.295 HD
ENDBRANCH  30   2
ENDBRANCH  26  30
ENDBRANCH  23  26
ENDBRANCH  20  23
ENDBRANCH  14   4
ENDBRANCH   8  14
BRANCH  10  15
ATOM     15  C   UNL     1      -8.115  -8.719  17.102  0.00  0.00    +0.082 C 
BRANCH  15  19
ATOM      5  N   UNL     1      -9.653  -7.104  15.969  0.00  0.00    -0.342 N 
ATOM      6  N   UNL     1     -10.633  -8.778  17.052  0.00  0.00    -0.232 NA
ATOM     19  C   UNL     1      -9.484  -8.229  16.726  0.00  0.00    +0.109 A 
ATOM     21  C   UNL     1     -10.999  -6.914  15.793  0.00  0.00    +0.066 A 
ATOM     22  C   UNL     1     -11.590  -7.972  16.479  0.00  0.00    +0.092 A 
ATOM     24  C   UNL     1     -12.991  -8.078  16.500  0.00  0.00    -0.023 A 
ATOM     25  C   UNL     1     -11.730  -5.937  15.115  0.00  0.00    +0.028 A 
ATOM     27  C   UNL     1     -13.744  -7.109  15.826  0.00  0.00    +0.005 A 
ATOM     28  C   UNL     1     -13.123  -6.059  15.146  0.00  0.00    +0.002 A 
ATOM     29  C   UNL     1     -13.702  -9.181  17.213  0.00  0.00    +0.046 C 
ATOM     32  H   UNL     1      -8.917  -6.516  15.601  0.00  0.00    +0.167 HD
ENDBRANCH  15  19
ENDBRANCH  10  15
TORSDOF 9
ENDMDL
MODEL 6
REMARK VINA RESULT:      -6.2      3.045      6.293
REMARK  Name = 75536171
REMARK  13 active torsions:
REMARK  status: ('A' for Active; 'I' for Inactive)
REMARK    1  A    between atoms: O_2  and  C_30
REMARK    2  A    between atoms: N_4  and  C_14
REMARK    3  A    between atoms: C_7  and  C_11
REMARK    4  A    between atoms: C_8  and  C_14
REMARK    5  A    between atoms: C_10  and  C_15
REMARK    6  A    between atoms: C_11  and  C_16
REMARK    7  A    between atoms: C_11  and  C_17
REMARK    8  A    between atoms: C_12  and  C_18
REMARK    9  A    between atoms: C_15  and  C_19
REMARK   10  A    between atoms: C_20  and  C_23
REMARK   11  A    between atoms: C_23  and  C_26
REMARK   12  A    between atoms: C_24  and  C_29
REMARK   13  A    between atoms: C_26  and  C_30
REMARK                            x       y       z     vdW  Elec       q    Type
REMARK                         _______ _______ _______ _____ _____    ______ ____
ROOT
ATOM      7  C   UNL     1      -2.984 -12.322  13.703  0.00  0.00    +0.000 C 
ATOM      8  C   UNL     1      -1.823 -11.380  14.108  0.00  0.00    +0.032 C 
ATOM      9  C   UNL     1      -2.931 -12.621  12.197  0.00  0.00    +0.012 C 
ATOM     10  C   UNL     1      -3.022 -11.340  11.345  0.00  0.00    +0.022 C 
ATOM     12  C   UNL     1      -2.090 -10.259  11.853  0.00  0.00    -0.073 C 
ATOM     13  C   UNL     1      -1.553 -10.300  13.086  0.00  0.00    -0.022 C 
ATOM     18  C   UNL     1      -1.752  -9.152  10.894  0.00  0.00    +0.039 C 
ENDROOT
BRANCH   7  11
ATOM     11  C   UNL     1      -2.954 -13.633  14.493  0.00  0.00    -0.013 C 
ATOM     16  C   UNL     1      -4.334 -13.939  15.069  0.00  0.00    +0.007 C 
ATOM     17  C   UNL     1      -2.472 -14.778  13.608  0.00  0.00    +0.007 C 
ENDBRANCH   7  11
BRANCH   8  14
ATOM     14  C   UNL     1      -2.084 -10.735  15.474  0.00  0.00    +0.112 C 
BRANCH  14   4
ATOM      1  O   UNL     1      -3.884 -11.205  17.690  0.00  0.00    -0.276 OA
ATOM      4  N   UNL     1      -3.447 -10.317  15.585  0.00  0.00    -0.315 N 
ATOM     20  C   UNL     1      -4.249 -10.585  16.695  0.00  0.00    +0.214 C 
ATOM     31  H   UNL     1      -3.833  -9.745  14.839  0.00  0.00    +0.149 HD
BRANCH  20  23
ATOM     23  C   UNL     1      -5.650 -10.022  16.536  0.00  0.00    +0.107 C 
BRANCH  23  26
ATOM     26  C   UNL     1      -6.705 -10.876  17.231  0.00  0.00    +0.129 C 
BRANCH  26  30
ATOM      3  O   UNL     1      -6.971 -10.585  19.633  0.00  0.00    -0.251 OA
ATOM     30  C   UNL     1      -7.221 -10.223  18.491  0.00  0.00    +0.305 C 
BRANCH  30   2
ATOM      2  O   UNL     1      -8.017  -9.157  18.208  0.00  0.00    -0.481 OA
ATOM     33  H   UNL     1      -7.856  -8.812  17.304  0.00  0.00    +0.295 HD
ENDBRANCH  30   2
ENDBRANCH  26  30
ENDBRANCH  23  26
ENDBRANCH  20  23
ENDBRANCH  14   4
ENDBRANCH   8  14
BRANCH  10  15
ATOM     15  C   UNL     1      -4.465 -10.829  11.267  0.00  0.00    +0.082 C 
BRANCH  15  19
ATOM      5  N   UNL     1      -5.905  -9.788   9.506  0.00  0.00    -0.342 N 
ATOM      6  N   UNL     1      -4.448 -11.307   8.794  0.00  0.00    -0.232 NA
ATOM     19  C   UNL     1      -4.914 -10.667   9.843  0.00  0.00    +0.109 A 
ATOM     21  C   UNL     1      -6.090  -9.865   8.150  0.00  0.00    +0.066 A 
ATOM     22  C   UNL     1      -5.169 -10.820   7.729  0.00  0.00    +0.092 A 
ATOM     24  C   UNL     1      -5.095 -11.145   6.363  0.00  0.00    -0.023 A 
ATOM     25  C   UNL     1      -6.958  -9.201   7.281  0.00  0.00    +0.028 A 
ATOM     27  C   UNL     1      -5.956 -10.492   5.474  0.00  0.00    +0.005 A 
ATOM     28  C   UNL     1      -6.870  -9.537   5.926  0.00  0.00    +0.002 A 
ATOM     29  C   UNL     1      -4.135 -12.158   5.831  0.00  0.00    +0.046 C 
ATOM     32  H   UNL     1      -6.411  -9.186  10.142  0.00  0.00    +0.167 HD
ENDBRANCH  15  19
ENDBRANCH  10  15
TORSDOF 9
ENDMDL
MODEL 7
REMARK VINA RESULT:      -6.2     24.869     27.740
REMARK  Name = 75536171
REMARK  13 active torsions:
REMARK  status: ('A' for Active; 'I' for Inactive)
REMARK    1  A    between atoms: O_2  and  C_30
REMARK    2  A    between atoms: N_4  and  C_14
REMARK    3  A    between atoms: C_7  and  C_11
REMARK    4  A    between atoms: C_8  and  C_14
REMARK    5  A    between atoms: C_10  and  C_15
REMARK    6  A    between atoms: C_11  and  C_16
REMARK    7  A    between atoms: C_11  and  C_17
REMARK    8  A    between atoms: C_12  and  C_18
REMARK    9  A    between atoms: C_15  and  C_19
REMARK   10  A    between atoms: C_20  and  C_23
REMARK   11  A    between atoms: C_23  and  C_26
REMARK   12  A    between atoms: C_24  and  C_29
REMARK   13  A    between atoms: C_26  and  C_30
REMARK                            x       y       z     vdW  Elec       q    Type
REMARK                         _______ _______ _______ _____ _____    ______ ____
ROOT
ATOM      7  C   UNL     1      10.259   6.666   6.228  0.00  0.00    +0.000 C 
ATOM      8  C   UNL     1       9.960   7.663   7.374  0.00  0.00    +0.032 C 
ATOM      9  C   UNL     1      11.773   6.448   6.087  0.00  0.00    +0.012 C 
ATOM     10  C   UNL     1      12.526   7.761   5.800  0.00  0.00    +0.022 C 
ATOM     12  C   UNL     1      12.087   8.876   6.727  0.00  0.00    -0.073 C 
ATOM     13  C   UNL     1      10.943   8.809   7.432  0.00  0.00    -0.022 C 
ATOM     18  C   UNL     1      13.014  10.052   6.859  0.00  0.00    +0.039 C 
ENDROOT
BRANCH   7  11
ATOM     11  C   UNL     1       9.560   5.321   6.448  0.00  0.00    -0.013 C 
ATOM     16  C   UNL     1       9.932   4.341   5.340  0.00  0.00    +0.007 C 
ATOM     17  C   UNL     1       9.919   4.752   7.817  0.00  0.00    +0.007 C 
ENDBRANCH   7  11
BRANCH   8  14
ATOM     14  C   UNL     1       8.535   8.218   7.269  0.00  0.00    +0.112 C 
BRANCH  14   4
ATOM      1  O   UNL     1       8.316  10.513   5.521  0.00  0.00    -0.276 OA
ATOM      4  N   UNL     1       8.096   8.230   5.908  0.00  0.00    -0.315 N 
ATOM     20  C   UNL     1       8.019   9.387   5.131  0.00  0.00    +0.214 C 
ATOM     31  H   UNL     1       7.880   7.340   5.468  0.00  0.00    +0.149 HD
BRANCH  20  23
ATOM     23  C   UNL     1       7.518   9.100   3.727  0.00  0.00    +0.107 C 
BRANCH  23  26
ATOM     26  C   UNL     1       8.376   8.070   3.000  0.00  0.00    +0.129 C 
BRANCH  26  30
ATOM      3  O   UNL     1       8.723   9.729   1.252  0.00  0.00    -0.251 OA
ATOM     30  C   UNL     1       8.894   8.596   1.682  0.00  0.00    +0.305 C 
BRANCH  30   2
ATOM      2  O   UNL     1       9.591   7.644   1.007  0.00  0.00    -0.481 OA
ATOM     33  H   UNL     1       9.239   6.744   1.176  0.00  0.00    +0.295 HD
ENDBRANCH  30   2
ENDBRANCH  26  30
ENDBRANCH  23  26
ENDBRANCH  20  23
ENDBRANCH  14   4
ENDBRANCH   8  14
BRANCH  10  15
ATOM     15  C   UNL     1      12.376   8.176   4.333  0.00  0.00    +0.082 C 
BRANCH  15  19
ATOM      5  N   UNL     1      13.830   6.533   3.131  0.00  0.00    -0.342 N 
ATOM      6  N   UNL     1      11.646   6.328   2.783  0.00  0.00    -0.232 NA
ATOM     19  C   UNL     1      12.579   7.009   3.409  0.00  0.00    +0.109 A 
ATOM     21  C   UNL     1      13.695   5.476   2.268  0.00  0.00    +0.066 A 
ATOM     22  C   UNL     1      12.322   5.368   2.066  0.00  0.00    +0.092 A 
ATOM     24  C   UNL     1      11.831   4.363   1.215  0.00  0.00    -0.023 A 
ATOM     25  C   UNL     1      14.627   4.630   1.665  0.00  0.00    +0.028 A 
ATOM     27  C   UNL     1      12.748   3.504   0.599  0.00  0.00    +0.005 A 
ATOM     28  C   UNL     1      14.121   3.636   0.822  0.00  0.00    +0.002 A 
ATOM     29  C   UNL     1      10.373   4.181   0.946  0.00  0.00    +0.046 C 
ATOM     32  H   UNL     1      14.702   6.894   3.496  0.00  0.00    +0.167 HD
ENDBRANCH  15  19
ENDBRANCH  10  15
TORSDOF 9
ENDMDL
MODEL 8
REMARK VINA RESULT:      -6.1      3.537      5.601
REMARK  Name = 75536171
REMARK  13 active torsions:
REMARK  status: ('A' for Active; 'I' for Inactive)
REMARK    1  A    between atoms: O_2  and  C_30
REMARK    2  A    between atoms: N_4  and  C_14
REMARK    3  A    between atoms: C_7  and  C_11
REMARK    4  A    between atoms: C_8  and  C_14
REMARK    5  A    between atoms: C_10  and  C_15
REMARK    6  A    between atoms: C_11  and  C_16
REMARK    7  A    between atoms: C_11  and  C_17
REMARK    8  A    between atoms: C_12  and  C_18
REMARK    9  A    between atoms: C_15  and  C_19
REMARK   10  A    between atoms: C_20  and  C_23
REMARK   11  A    between atoms: C_23  and  C_26
REMARK   12  A    between atoms: C_24  and  C_29
REMARK   13  A    between atoms: C_26  and  C_30
REMARK                            x       y       z     vdW  Elec       q    Type
REMARK                         _______ _______ _______ _____ _____    ______ ____
ROOT
ATOM      7  C   UNL     1     -12.269  -7.967  15.738  0.00  0.00    +0.000 C 
ATOM      8  C   UNL     1     -13.055  -9.299  15.819  0.00  0.00    +0.032 C 
ATOM      9  C   UNL     1     -10.947  -8.170  14.981  0.00  0.00    +0.012 C 
ATOM     10  C   UNL     1     -10.049  -9.228  15.652  0.00  0.00    +0.022 C 
ATOM     12  C   UNL     1     -10.824 -10.480  16.009  0.00  0.00    -0.073 C 
ATOM     13  C   UNL     1     -12.168 -10.496  16.066  0.00  0.00    -0.022 C 
ATOM     18  C   UNL     1     -10.020 -11.726  16.254  0.00  0.00    +0.039 C 
ENDROOT
BRANCH   7  11
ATOM     11  C   UNL     1     -13.088  -6.863  15.063  0.00  0.00    -0.013 C 
ATOM     16  C   UNL     1     -12.218  -5.636  14.807  0.00  0.00    +0.007 C 
ATOM     17  C   UNL     1     -13.699  -7.374  13.762  0.00  0.00    +0.007 C 
ENDBRANCH   7  11
BRANCH   8  14
ATOM     14  C   UNL     1     -14.139  -9.236  16.901  0.00  0.00    +0.112 C 
BRANCH  14   4
ATOM      1  O   UNL     1     -14.993 -11.135  18.911  0.00  0.00    -0.276 OA
ATOM      4  N   UNL     1     -13.573  -9.436  18.199  0.00  0.00    -0.315 N 
ATOM     20  C   UNL     1     -14.047 -10.378  19.112  0.00  0.00    +0.214 C 
ATOM     31  H   UNL     1     -12.746  -8.899  18.446  0.00  0.00    +0.149 HD
BRANCH  20  23
ATOM     23  C   UNL     1     -13.255 -10.367  20.407  0.00  0.00    +0.107 C 
BRANCH  23  26
ATOM     26  C   UNL     1     -11.871  -9.748  20.241  0.00  0.00    +0.129 C 
BRANCH  26  30
ATOM      3  O   UNL     1     -10.964 -11.922  19.629  0.00  0.00    -0.251 OA
ATOM     30  C   UNL     1     -10.797 -10.797  20.082  0.00  0.00    +0.305 C 
BRANCH  30   2
ATOM      2  O   UNL     1      -9.590 -10.342  20.511  0.00  0.00    -0.481 OA
ATOM     33  H   UNL     1      -8.933 -10.307  19.783  0.00  0.00    +0.295 HD
ENDBRANCH  30   2
ENDBRANCH  26  30
ENDBRANCH  23  26
ENDBRANCH  20  23
ENDBRANCH  14   4
ENDBRANCH   8  14
BRANCH  10  15
ATOM     15  C   UNL     1      -9.340  -8.652  16.883  0.00  0.00    +0.082 C 
BRANCH  15  19
ATOM      5  N   UNL     1      -7.046  -9.305  16.130  0.00  0.00    -0.342 N 
ATOM      6  N   UNL     1      -7.603  -9.925  18.190  0.00  0.00    -0.232 NA
ATOM     19  C   UNL     1      -8.006  -9.304  17.103  0.00  0.00    +0.109 A 
ATOM     21  C   UNL     1      -5.951  -9.968  16.621  0.00  0.00    +0.066 A 
ATOM     22  C   UNL     1      -6.324 -10.345  17.908  0.00  0.00    +0.092 A 
ATOM     24  C   UNL     1      -5.412 -11.060  18.704  0.00  0.00    -0.023 A 
ATOM     25  C   UNL     1      -4.705 -10.263  16.067  0.00  0.00    +0.028 A 
ATOM     27  C   UNL     1      -4.156 -11.366  18.168  0.00  0.00    +0.005 A 
ATOM     28  C   UNL     1      -3.810 -10.973  16.874  0.00  0.00    +0.002 A 
ATOM     29  C   UNL     1      -5.735 -11.501  20.094  0.00  0.00    +0.046 C 
ATOM     32  H   UNL     1      -7.126  -8.889  15.212  0.00  0.00    +0.167 HD
ENDBRANCH  15  19
ENDBRANCH  10  15
TORSDOF 9
ENDMDL
MODEL 9
REMARK VINA RESULT:      -6.1     25.598     29.417
REMARK  Name = 75536171
REMARK  13 active torsions:
REMARK  status: ('A' for Active; 'I' for Inactive)
REMARK    1  A    between atoms: O_2  and  C_30
REMARK    2  A    between atoms: N_4  and  C_14
REMARK    3  A    between atoms: C_7  and  C_11
REMARK    4  A    between atoms: C_8  and  C_14
REMARK    5  A    between atoms: C_10  and  C_15
REMARK    6  A    between atoms: C_11  and  C_16
REMARK    7  A    between atoms: C_11  and  C_17
REMARK    8  A    between atoms: C_12  and  C_18
REMARK    9  A    between atoms: C_15  and  C_19
REMARK   10  A    between atoms: C_20  and  C_23
REMARK   11  A    between atoms: C_23  and  C_26
REMARK   12  A    between atoms: C_24  and  C_29
REMARK   13  A    between atoms: C_26  and  C_30
REMARK                            x       y       z     vdW  Elec       q    Type
REMARK                         _______ _______ _______ _____ _____    ______ ____
ROOT
ATOM      7  C   UNL     1      10.670   6.204   5.825  0.00  0.00    +0.000 C 
ATOM      8  C   UNL     1      10.568   6.013   4.292  0.00  0.00    +0.032 C 
ATOM      9  C   UNL     1      11.053   7.653   6.162  0.00  0.00    +0.012 C 
ATOM     10  C   UNL     1      12.397   8.063   5.528  0.00  0.00    +0.022 C 
ATOM     12  C   UNL     1      12.476   7.663   4.069  0.00  0.00    -0.073 C 
ATOM     13  C   UNL     1      11.642   6.755   3.531  0.00  0.00    -0.022 C 
ATOM     18  C   UNL     1      13.508   8.365   3.231  0.00  0.00    +0.039 C 
ENDROOT
BRANCH   7  11
ATOM     11  C   UNL     1       9.363   5.836   6.532  0.00  0.00    -0.013 C 
ATOM     16  C   UNL     1       9.436   6.202   8.011  0.00  0.00    +0.007 C 
ATOM     17  C   UNL     1       8.181   6.529   5.861  0.00  0.00    +0.007 C 
ENDBRANCH   7  11
BRANCH   8  14
ATOM     14  C   UNL     1      10.609   4.528   3.914  0.00  0.00    +0.112 C 
BRANCH  14   4
ATOM      1  O   UNL     1      10.083   3.954   1.127  0.00  0.00    -0.276 OA
ATOM      4  N   UNL     1      11.571   4.294   2.883  0.00  0.00    -0.315 N 
ATOM     20  C   UNL     1      11.231   4.023   1.557  0.00  0.00    +0.214 C 
ATOM     31  H   UNL     1      12.555   4.384   3.118  0.00  0.00    +0.149 HD
BRANCH  20  23
ATOM     23  C   UNL     1      12.456   3.815   0.684  0.00  0.00    +0.107 C 
BRANCH  23  26
ATOM     26  C   UNL     1      13.599   3.138   1.433  0.00  0.00    +0.129 C 
BRANCH  26  30
ATOM      3  O   UNL     1      15.781   3.856   0.626  0.00  0.00    -0.251 OA
ATOM     30  C   UNL     1      14.857   3.975   1.419  0.00  0.00    +0.305 C 
BRANCH  30   2
ATOM      2  O   UNL     1      14.849   4.900   2.415  0.00  0.00    -0.481 OA
ATOM     33  H   UNL     1      14.691   4.491   3.293  0.00  0.00    +0.295 HD
ENDBRANCH  30   2
ENDBRANCH  26  30
ENDBRANCH  23  26
ENDBRANCH  20  23
ENDBRANCH  14   4
ENDBRANCH   8  14
BRANCH  10  15
ATOM     15  C   UNL     1      13.578   7.490   6.319  0.00  0.00    +0.082 C 
BRANCH  15  19
ATOM      5  N   UNL     1      14.604   9.741   6.691  0.00  0.00    -0.342 N 
ATOM      6  N   UNL     1      15.986   8.151   5.984  0.00  0.00    -0.232 NA
ATOM     19  C   UNL     1      14.747   8.433   6.319  0.00  0.00    +0.109 A 
ATOM     21  C   UNL     1      15.833  10.342   6.589  0.00  0.00    +0.066 A 
ATOM     22  C   UNL     1      16.678   9.328   6.146  0.00  0.00    +0.092 A 
ATOM     24  C   UNL     1      18.038   9.614   5.934  0.00  0.00    -0.023 A 
ATOM     25  C   UNL     1      16.264  11.645   6.839  0.00  0.00    +0.028 A 
ATOM     27  C   UNL     1      18.492  10.915   6.178  0.00  0.00    +0.005 A 
ATOM     28  C   UNL     1      17.620  11.911   6.623  0.00  0.00    +0.002 A 
ATOM     29  C   UNL     1      19.009   8.584   5.459  0.00  0.00    +0.046 C 
ATOM     32  H   UNL     1      13.747  10.187   6.990  0.00  0.00    +0.167 HD
ENDBRANCH  15  19
ENDBRANCH  10  15
TORSDOF 9
ENDMDL
MODEL 10
REMARK VINA RESULT:      -6.1     24.211     27.594
REMARK  Name = 75536171
REMARK  13 active torsions:
REMARK  status: ('A' for Active; 'I' for Inactive)
REMARK    1  A    between atoms: O_2  and  C_30
REMARK    2  A    between atoms: N_4  and  C_14
REMARK    3  A    between atoms: C_7  and  C_11
REMARK    4  A    between atoms: C_8  and  C_14
REMARK    5  A    between atoms: C_10  and  C_15
REMARK    6  A    between atoms: C_11  and  C_16
REMARK    7  A    between atoms: C_11  and  C_17
REMARK    8  A    between atoms: C_12  and  C_18
REMARK    9  A    between atoms: C_15  and  C_19
REMARK   10  A    between atoms: C_20  and  C_23
REMARK   11  A    between atoms: C_23  and  C_26
REMARK   12  A    between atoms: C_24  and  C_29
REMARK   13  A    between atoms: C_26  and  C_30
REMARK                            x       y       z     vdW  Elec       q    Type
REMARK                         _______ _______ _______ _____ _____    ______ ____
ROOT
ATOM      7  C   UNL     1       9.822   6.091   7.322  0.00  0.00    +0.000 C 
ATOM      8  C   UNL     1       9.107   5.690   6.008  0.00  0.00    +0.032 C 
ATOM      9  C   UNL     1       9.022   7.177   8.058  0.00  0.00    +0.012 C 
ATOM     10  C   UNL     1       8.833   8.443   7.200  0.00  0.00    +0.022 C 
ATOM     12  C   UNL     1       8.381   8.107   5.793  0.00  0.00    -0.073 C 
ATOM     13  C   UNL     1       8.500   6.868   5.282  0.00  0.00    -0.022 C 
ATOM     18  C   UNL     1       7.749   9.217   5.002  0.00  0.00    +0.039 C 
ENDROOT
BRANCH   7  11
ATOM     11  C   UNL     1      10.031   4.887   8.244  0.00  0.00    -0.013 C 
ATOM     16  C   UNL     1       9.330   5.112   9.580  0.00  0.00    +0.007 C 
ATOM     17  C   UNL     1       9.528   3.611   7.578  0.00  0.00    +0.007 C 
ENDBRANCH   7  11
BRANCH   8  14
ATOM     14  C   UNL     1      10.058   4.945   5.065  0.00  0.00    +0.112 C 
BRANCH  14   4
ATOM      1  O   UNL     1      10.977   6.430   2.758  0.00  0.00    -0.276 OA
ATOM      4  N   UNL     1      11.293   5.653   4.927  0.00  0.00    -0.315 N 
ATOM     20  C   UNL     1      11.661   6.348   3.774  0.00  0.00    +0.214 C 
ATOM     31  H   UNL     1      11.910   5.697   5.733  0.00  0.00    +0.149 HD
BRANCH  20  23
ATOM     23  C   UNL     1      13.024   7.002   3.912  0.00  0.00    +0.107 C 
BRANCH  23  26
ATOM     26  C   UNL     1      12.979   8.279   4.744  0.00  0.00    +0.129 C 
BRANCH  26  30
ATOM      3  O   UNL     1      13.722   8.951   6.962  0.00  0.00    -0.251 OA
ATOM     30  C   UNL     1      13.553   8.074   6.125  0.00  0.00    +0.305 C 
BRANCH  30   2
ATOM      2  O   UNL     1      13.872   6.771   6.343  0.00  0.00    -0.481 OA
ATOM     33  H   UNL     1      13.075   6.198   6.365  0.00  0.00    +0.295 HD
ENDBRANCH  30   2
ENDBRANCH  26  30
ENDBRANCH  23  26
ENDBRANCH  20  23
ENDBRANCH  14   4
ENDBRANCH   8  14
BRANCH  10  15
ATOM     15  C   UNL     1      10.108   9.293   7.179  0.00  0.00    +0.082 C 
BRANCH  15  19
ATOM      5  N   UNL     1       9.063  10.556   9.069  0.00  0.00    -0.342 N 
ATOM      6  N   UNL     1      11.271  10.725   8.893  0.00  0.00    -0.232 NA
ATOM     19  C   UNL     1      10.186  10.194   8.378  0.00  0.00    +0.109 A 
ATOM     21  C   UNL     1       9.450  11.373  10.099  0.00  0.00    +0.066 A 
ATOM     22  C   UNL     1      10.833  11.464   9.968  0.00  0.00    +0.092 A 
ATOM     24  C   UNL     1      11.558  12.244  10.885  0.00  0.00    -0.023 A 
ATOM     25  C   UNL     1       8.731  12.023  11.104  0.00  0.00    +0.028 A 
ATOM     27  C   UNL     1      10.857  12.904  11.901  0.00  0.00    +0.005 A 
ATOM     28  C   UNL     1       9.469  12.794  12.007  0.00  0.00    +0.002 A 
ATOM     29  C   UNL     1      13.043  12.393  10.813  0.00  0.00    +0.046 C 
ATOM     32  H   UNL     1       8.115  10.271   8.860  0.00  0.00    +0.167 HD
ENDBRANCH  15  19
ENDBRANCH  10  15
TORSDOF 9
ENDMDL
