MODEL 1
REMARK VINA RESULT:      -6.3      0.000      0.000
REMARK  Name = 75536068
REMARK  7 active torsions:
REMARK  status: ('A' for Active; 'I' for Inactive)
REMARK    1  A    between atoms: O_1  and  C_9
REMARK    2  A    between atoms: O_2  and  C_11
REMARK    3  A    between atoms: O_4  and  C_19
REMARK    4  A    between atoms: O_4  and  C_24
REMARK    5  A    between atoms: N_5  and  C_8
REMARK    6  A    between atoms: C_7  and  C_12
REMARK    7  A    between atoms: C_15  and  C_17
REMARK                            x       y       z     vdW  Elec       q    Type
REMARK                         _______ _______ _______ _____ _____    ______ ____
ROOT
ATOM      7  C   UNL     1      -5.792 -10.430  17.802  0.00  0.00    +0.046 C 
ATOM      8  C   UNL     1      -5.402 -11.593  16.846  0.00  0.00    +0.112 C 
ATOM      9  C   UNL     1      -4.506 -12.526  17.674  0.00  0.00    +0.164 C 
ATOM     10  C   UNL     1      -5.216 -10.815  19.175  0.00  0.00    +0.044 C 
ATOM     11  C   UNL     1      -3.996 -11.646  18.812  0.00  0.00    +0.145 C 
ENDROOT
BRANCH   7  12
ATOM      6  N   UNL     1      -9.453 -10.604  18.774  0.00  0.00    -0.263 NA
ATOM     12  C   UNL     1      -7.274 -10.130  17.841  0.00  0.00    -0.024 A 
ATOM     13  C   UNL     1      -7.829  -9.154  17.022  0.00  0.00    +0.007 A 
ATOM     14  C   UNL     1      -8.121 -10.821  18.692  0.00  0.00    +0.114 A 
ATOM     16  C   UNL     1      -9.195  -8.901  17.079  0.00  0.00    +0.020 A 
ATOM     18  C   UNL     1      -9.956  -9.646  17.963  0.00  0.00    +0.111 A 
ENDBRANCH   7  12
BRANCH   8   5
ATOM      3  O   UNL     1      -5.351 -12.791  14.234  0.00  0.00    -0.270 OA
ATOM      5  N   UNL     1      -4.707 -11.097  15.682  0.00  0.00    -0.305 N 
ATOM     15  C   UNL     1      -4.742 -11.748  14.456  0.00  0.00    +0.248 C 
ATOM     25  H   UNL     1      -4.260 -10.189  15.762  0.00  0.00    +0.149 HD
BRANCH  15  17
ATOM     17  C   UNL     1      -3.952 -11.123  13.363  0.00  0.00    +0.078 A 
ATOM     19  C   UNL     1      -2.580 -10.916  13.499  0.00  0.00    +0.132 A 
ATOM     20  C   UNL     1      -4.601 -10.743  12.189  0.00  0.00    +0.017 A 
ATOM     21  C   UNL     1      -1.857 -10.327  12.462  0.00  0.00    +0.046 A 
ATOM     22  C   UNL     1      -3.879 -10.154  11.151  0.00  0.00    +0.001 A 
ATOM     23  C   UNL     1      -2.506  -9.946  11.287  0.00  0.00    +0.004 A 
BRANCH  19   4
ATOM      4  O   UNL     1      -1.927 -11.279  14.640  0.00  0.00    -0.494 OA
ATOM     24  C   UNL     1      -1.227 -10.252  15.340  0.00  0.00    +0.277 C 
ENDBRANCH  19   4
ENDBRANCH  15  17
ENDBRANCH   8   5
BRANCH   9   1
ATOM      1  O   UNL     1      -5.316 -13.585  18.182  0.00  0.00    -0.387 OA
ATOM     26  H   UNL     1      -4.737 -14.175  18.693  0.00  0.00    +0.210 HD
ENDBRANCH   9   1
BRANCH  11   2
ATOM      2  O   UNL     1      -3.532 -12.395  19.917  0.00  0.00    -0.389 OA
ATOM     27  H   UNL     1      -2.561 -12.394  19.885  0.00  0.00    +0.210 HD
ENDBRANCH  11   2
TORSDOF 6
ENDMDL
MODEL 2
REMARK VINA RESULT:      -6.2      2.579      6.739
REMARK  Name = 75536068
REMARK  7 active torsions:
REMARK  status: ('A' for Active; 'I' for Inactive)
REMARK    1  A    between atoms: O_1  and  C_9
REMARK    2  A    between atoms: O_2  and  C_11
REMARK    3  A    between atoms: O_4  and  C_19
REMARK    4  A    between atoms: O_4  and  C_24
REMARK    5  A    between atoms: N_5  and  C_8
REMARK    6  A    between atoms: C_7  and  C_12
REMARK    7  A    between atoms: C_15  and  C_17
REMARK                            x       y       z     vdW  Elec       q    Type
REMARK                         _______ _______ _______ _____ _____    ______ ____
ROOT
ATOM      7  C   UNL     1      -4.057 -11.743  12.383  0.00  0.00    +0.046 C 
ATOM      8  C   UNL     1      -3.105 -11.484  13.585  0.00  0.00    +0.112 C 
ATOM      9  C   UNL     1      -2.073 -12.622  13.547  0.00  0.00    +0.164 C 
ATOM     10  C   UNL     1      -3.452 -12.938  11.628  0.00  0.00    +0.044 C 
ATOM     11  C   UNL     1      -2.751 -13.717  12.729  0.00  0.00    +0.145 C 
ENDROOT
BRANCH   7  12
ATOM      6  N   UNL     1      -5.564  -8.541  11.019  0.00  0.00    -0.263 NA
ATOM     12  C   UNL     1      -4.284 -10.535  11.502  0.00  0.00    -0.024 A 
ATOM     13  C   UNL     1      -3.474 -10.290  10.399  0.00  0.00    +0.007 A 
ATOM     14  C   UNL     1      -5.307  -9.638  11.767  0.00  0.00    +0.114 A 
ATOM     16  C   UNL     1      -3.707  -9.172   9.606  0.00  0.00    +0.020 A 
ATOM     18  C   UNL     1      -4.755  -8.336   9.956  0.00  0.00    +0.111 A 
ENDBRANCH   7  12
BRANCH   8   5
ATOM      3  O   UNL     1      -2.261 -10.297  16.063  0.00  0.00    -0.270 OA
ATOM      5  N   UNL     1      -3.833 -11.479  14.832  0.00  0.00    -0.305 N 
ATOM     15  C   UNL     1      -3.342 -10.876  15.982  0.00  0.00    +0.248 C 
ATOM     25  H   UNL     1      -4.776 -11.855  14.819  0.00  0.00    +0.149 HD
BRANCH  15  17
ATOM     17  C   UNL     1      -4.200 -10.980  17.191  0.00  0.00    +0.078 A 
ATOM     19  C   UNL     1      -5.428 -10.323  17.256  0.00  0.00    +0.132 A 
ATOM     20  C   UNL     1      -3.763 -11.749  18.269  0.00  0.00    +0.017 A 
ATOM     21  C   UNL     1      -6.218 -10.432  18.400  0.00  0.00    +0.046 A 
ATOM     22  C   UNL     1      -4.552 -11.860  19.413  0.00  0.00    +0.001 A 
ATOM     23  C   UNL     1      -5.781 -11.202  19.479  0.00  0.00    +0.004 A 
BRANCH  19   4
ATOM      4  O   UNL     1      -5.872  -9.565  16.213  0.00  0.00    -0.494 OA
ATOM     24  C   UNL     1      -7.131  -9.921  15.645  0.00  0.00    +0.277 C 
ENDBRANCH  19   4
ENDBRANCH  15  17
ENDBRANCH   8   5
BRANCH   9   1
ATOM      1  O   UNL     1      -0.908 -12.143  12.878  0.00  0.00    -0.387 OA
ATOM     26  H   UNL     1      -0.135 -12.509  13.342  0.00  0.00    +0.210 HD
ENDBRANCH   9   1
BRANCH  11   2
ATOM      2  O   UNL     1      -1.833 -14.651  12.197  0.00  0.00    -0.389 OA
ATOM     27  H   UNL     1      -2.095 -15.532  12.513  0.00  0.00    +0.210 HD
ENDBRANCH  11   2
TORSDOF 6
ENDMDL
MODEL 3
REMARK VINA RESULT:      -6.2     25.139     27.731
REMARK  Name = 75536068
REMARK  7 active torsions:
REMARK  status: ('A' for Active; 'I' for Inactive)
REMARK    1  A    between atoms: O_1  and  C_9
REMARK    2  A    between atoms: O_2  and  C_11
REMARK    3  A    between atoms: O_4  and  C_19
REMARK    4  A    between atoms: O_4  and  C_24
REMARK    5  A    between atoms: N_5  and  C_8
REMARK    6  A    between atoms: C_7  and  C_12
REMARK    7  A    between atoms: C_15  and  C_17
REMARK                            x       y       z     vdW  Elec       q    Type
REMARK                         _______ _______ _______ _____ _____    ______ ____
ROOT
ATOM      7  C   UNL     1      12.177   3.977   1.050  0.00  0.00    +0.046 C 
ATOM      8  C   UNL     1      12.682   5.233   1.816  0.00  0.00    +0.112 C 
ATOM      9  C   UNL     1      14.203   5.053   1.947  0.00  0.00    +0.164 C 
ATOM     10  C   UNL     1      13.443   3.199   0.655  0.00  0.00    +0.044 C 
ATOM     11  C   UNL     1      14.422   3.555   1.763  0.00  0.00    +0.145 C 
ENDROOT
BRANCH   7  12
ATOM      6  N   UNL     1      10.560   3.763  -2.374  0.00  0.00    -0.263 NA
ATOM     12  C   UNL     1      11.279   4.289  -0.126  0.00  0.00    -0.024 A 
ATOM     13  C   UNL     1      10.373   5.343  -0.075  0.00  0.00    +0.007 A 
ATOM     14  C   UNL     1      11.333   3.536  -1.287  0.00  0.00    +0.114 A 
ATOM     16  C   UNL     1       9.561   5.607  -1.173  0.00  0.00    +0.020 A 
ATOM     18  C   UNL     1       9.692   4.796  -2.287  0.00  0.00    +0.111 A 
ENDBRANCH   7  12
BRANCH   8   5
ATOM      3  O   UNL     1      10.974   7.355   2.732  0.00  0.00    -0.270 OA
ATOM      5  N   UNL     1      12.054   5.338   3.113  0.00  0.00    -0.305 N 
ATOM     15  C   UNL     1      11.240   6.406   3.465  0.00  0.00    +0.248 C 
ATOM     25  H   UNL     1      12.150   4.544   3.738  0.00  0.00    +0.149 HD
BRANCH  15  17
ATOM     17  C   UNL     1      10.690   6.379   4.845  0.00  0.00    +0.078 A 
ATOM     19  C   UNL     1      11.507   6.635   5.946  0.00  0.00    +0.132 A 
ATOM     20  C   UNL     1       9.338   6.093   5.031  0.00  0.00    +0.017 A 
ATOM     21  C   UNL     1      10.972   6.604   7.234  0.00  0.00    +0.046 A 
ATOM     22  C   UNL     1       8.802   6.062   6.319  0.00  0.00    +0.001 A 
ATOM     23  C   UNL     1       9.619   6.318   7.420  0.00  0.00    +0.004 A 
BRANCH  19   4
ATOM      4  O   UNL     1      12.832   6.914   5.785  0.00  0.00    -0.494 OA
ATOM     24  C   UNL     1      13.651   6.857   6.951  0.00  0.00    +0.277 C 
ENDBRANCH  19   4
ENDBRANCH  15  17
ENDBRANCH   8   5
BRANCH   9   1
ATOM      1  O   UNL     1      14.828   5.786   0.895  0.00  0.00    -0.387 OA
ATOM     26  H   UNL     1      14.122   6.187   0.360  0.00  0.00    +0.210 HD
ENDBRANCH   9   1
BRANCH  11   2
ATOM      2  O   UNL     1      15.750   3.236   1.402  0.00  0.00    -0.389 OA
ATOM     27  H   UNL     1      15.857   3.448   0.459  0.00  0.00    +0.210 HD
ENDBRANCH  11   2
TORSDOF 6
ENDMDL
MODEL 4
REMARK VINA RESULT:      -5.8     25.178     27.806
REMARK  Name = 75536068
REMARK  7 active torsions:
REMARK  status: ('A' for Active; 'I' for Inactive)
REMARK    1  A    between atoms: O_1  and  C_9
REMARK    2  A    between atoms: O_2  and  C_11
REMARK    3  A    between atoms: O_4  and  C_19
REMARK    4  A    between atoms: O_4  and  C_24
REMARK    5  A    between atoms: N_5  and  C_8
REMARK    6  A    between atoms: C_7  and  C_12
REMARK    7  A    between atoms: C_15  and  C_17
REMARK                            x       y       z     vdW  Elec       q    Type
REMARK                         _______ _______ _______ _____ _____    ______ ____
ROOT
ATOM      7  C   UNL     1      12.159   4.002   1.028  0.00  0.00    +0.046 C 
ATOM      8  C   UNL     1      12.657   5.257   1.800  0.00  0.00    +0.112 C 
ATOM      9  C   UNL     1      14.169   5.057   1.984  0.00  0.00    +0.164 C 
ATOM     10  C   UNL     1      13.427   3.202   0.682  0.00  0.00    +0.044 C 
ATOM     11  C   UNL     1      14.372   3.553   1.820  0.00  0.00    +0.145 C 
ENDROOT
BRANCH   7  12
ATOM      6  N   UNL     1      10.799   3.921  -2.511  0.00  0.00    -0.263 NA
ATOM     12  C   UNL     1      11.306   4.317  -0.181  0.00  0.00    -0.024 A 
ATOM     13  C   UNL     1      10.280   5.251  -0.109  0.00  0.00    +0.007 A 
ATOM     14  C   UNL     1      11.524   3.684  -1.394  0.00  0.00    +0.114 A 
ATOM     16  C   UNL     1       9.512   5.521  -1.237  0.00  0.00    +0.020 A 
ATOM     18  C   UNL     1       9.810   4.836  -2.402  0.00  0.00    +0.111 A 
ENDBRANCH   7  12
BRANCH   8   5
ATOM      3  O   UNL     1      12.424   7.638   3.393  0.00  0.00    -0.270 OA
ATOM      5  N   UNL     1      11.986   5.382   3.073  0.00  0.00    -0.305 N 
ATOM     15  C   UNL     1      11.925   6.580   3.772  0.00  0.00    +0.248 C 
ATOM     25  H   UNL     1      11.469   4.574   3.405  0.00  0.00    +0.149 HD
BRANCH  15  17
ATOM     17  C   UNL     1      11.221   6.538   5.080  0.00  0.00    +0.078 A 
ATOM     19  C   UNL     1       9.829   6.500   5.143  0.00  0.00    +0.132 A 
ATOM     20  C   UNL     1      11.973   6.535   6.255  0.00  0.00    +0.017 A 
ATOM     21  C   UNL     1       9.187   6.462   6.380  0.00  0.00    +0.046 A 
ATOM     22  C   UNL     1      11.332   6.496   7.493  0.00  0.00    +0.001 A 
ATOM     23  C   UNL     1       9.939   6.459   7.556  0.00  0.00    +0.004 A 
BRANCH  19   4
ATOM      4  O   UNL     1       9.077   6.504   4.006  0.00  0.00    -0.494 OA
ATOM     24  C   UNL     1       8.449   7.735   3.649  0.00  0.00    +0.277 C 
ENDBRANCH  19   4
ENDBRANCH  15  17
ENDBRANCH   8   5
BRANCH   9   1
ATOM      1  O   UNL     1      14.841   5.771   0.948  0.00  0.00    -0.387 OA
ATOM     26  H   UNL     1      14.159   6.159   0.374  0.00  0.00    +0.210 HD
ENDBRANCH   9   1
BRANCH  11   2
ATOM      2  O   UNL     1      15.707   3.212   1.507  0.00  0.00    -0.389 OA
ATOM     27  H   UNL     1      15.720   2.890   0.591  0.00  0.00    +0.210 HD
ENDBRANCH  11   2
TORSDOF 6
ENDMDL
MODEL 5
REMARK VINA RESULT:      -5.7     23.720     26.763
REMARK  Name = 75536068
REMARK  7 active torsions:
REMARK  status: ('A' for Active; 'I' for Inactive)
REMARK    1  A    between atoms: O_1  and  C_9
REMARK    2  A    between atoms: O_2  and  C_11
REMARK    3  A    between atoms: O_4  and  C_19
REMARK    4  A    between atoms: O_4  and  C_24
REMARK    5  A    between atoms: N_5  and  C_8
REMARK    6  A    between atoms: C_7  and  C_12
REMARK    7  A    between atoms: C_15  and  C_17
REMARK                            x       y       z     vdW  Elec       q    Type
REMARK                         _______ _______ _______ _____ _____    ______ ____
ROOT
ATOM      7  C   UNL     1       9.501   6.326   6.085  0.00  0.00    +0.046 C 
ATOM      8  C   UNL     1      10.492   7.177   6.930  0.00  0.00    +0.112 C 
ATOM      9  C   UNL     1      10.919   6.275   8.099  0.00  0.00    +0.164 C 
ATOM     10  C   UNL     1       9.509   4.929   6.727  0.00  0.00    +0.044 C 
ATOM     11  C   UNL     1       9.816   5.225   8.186  0.00  0.00    +0.145 C 
ENDROOT
BRANCH   7  12
ATOM      6  N   UNL     1      11.063   5.344   2.771  0.00  0.00    -0.263 NA
ATOM     12  C   UNL     1       9.812   6.303   4.605  0.00  0.00    -0.024 A 
ATOM     13  C   UNL     1       9.178   7.174   3.726  0.00  0.00    +0.007 A 
ATOM     14  C   UNL     1      10.738   5.415   4.082  0.00  0.00    +0.114 A 
ATOM     16  C   UNL     1       9.485   7.131   2.371  0.00  0.00    +0.020 A 
ATOM     18  C   UNL     1      10.425   6.207   1.948  0.00  0.00    +0.111 A 
ENDBRANCH   7  12
BRANCH   8   5
ATOM      3  O   UNL     1      11.807   9.618   7.686  0.00  0.00    -0.270 OA
ATOM      5  N   UNL     1       9.861   8.387   7.406  0.00  0.00    -0.305 N 
ATOM     15  C   UNL     1      10.584   9.522   7.747  0.00  0.00    +0.248 C 
ATOM     25  H   UNL     1       8.847   8.415   7.393  0.00  0.00    +0.149 HD
BRANCH  15  17
ATOM     17  C   UNL     1       9.789  10.675   8.245  0.00  0.00    +0.078 A 
ATOM     19  C   UNL     1       9.251  11.608   7.359  0.00  0.00    +0.132 A 
ATOM     20  C   UNL     1       9.586  10.817   9.617  0.00  0.00    +0.017 A 
ATOM     21  C   UNL     1       8.509  12.685   7.846  0.00  0.00    +0.046 A 
ATOM     22  C   UNL     1       8.844  11.893  10.104  0.00  0.00    +0.001 A 
ATOM     23  C   UNL     1       8.305  12.827   9.219  0.00  0.00    +0.004 A 
BRANCH  19   4
ATOM      4  O   UNL     1       9.441  11.488   6.014  0.00  0.00    -0.494 OA
ATOM     24  C   UNL     1       8.316  11.084   5.236  0.00  0.00    +0.277 C 
ENDBRANCH  19   4
ENDBRANCH  15  17
ENDBRANCH   8   5
BRANCH   9   1
ATOM      1  O   UNL     1      12.164   5.669   7.759  0.00  0.00    -0.387 OA
ATOM     26  H   UNL     1      12.859   6.131   8.258  0.00  0.00    +0.210 HD
ENDBRANCH   9   1
BRANCH  11   2
ATOM      2  O   UNL     1      10.222   4.061   8.876  0.00  0.00    -0.389 OA
ATOM     27  H   UNL     1      10.290   4.288   9.819  0.00  0.00    +0.210 HD
ENDBRANCH  11   2
TORSDOF 6
ENDMDL
MODEL 6
REMARK VINA RESULT:      -5.6     23.770     26.773
REMARK  Name = 75536068
REMARK  7 active torsions:
REMARK  status: ('A' for Active; 'I' for Inactive)
REMARK    1  A    between atoms: O_1  and  C_9
REMARK    2  A    between atoms: O_2  and  C_11
REMARK    3  A    between atoms: O_4  and  C_19
REMARK    4  A    between atoms: O_4  and  C_24
REMARK    5  A    between atoms: N_5  and  C_8
REMARK    6  A    between atoms: C_7  and  C_12
REMARK    7  A    between atoms: C_15  and  C_17
REMARK                            x       y       z     vdW  Elec       q    Type
REMARK                         _______ _______ _______ _____ _____    ______ ____
ROOT
ATOM      7  C   UNL     1       9.557   6.124   5.950  0.00  0.00    +0.046 C 
ATOM      8  C   UNL     1      10.552   7.076   6.675  0.00  0.00    +0.112 C 
ATOM      9  C   UNL     1      10.941   6.355   7.975  0.00  0.00    +0.164 C 
ATOM     10  C   UNL     1       9.524   4.841   6.797  0.00  0.00    +0.044 C 
ATOM     11  C   UNL     1       9.813   5.351   8.200  0.00  0.00    +0.145 C 
ENDROOT
BRANCH   7  12
ATOM      6  N   UNL     1       9.819   6.617   2.199  0.00  0.00    -0.263 NA
ATOM     12  C   UNL     1       9.892   5.869   4.497  0.00  0.00    -0.024 A 
ATOM     13  C   UNL     1      10.548   4.708   4.106  0.00  0.00    +0.007 A 
ATOM     14  C   UNL     1       9.552   6.785   3.514  0.00  0.00    +0.114 A 
ATOM     16  C   UNL     1      10.841   4.500   2.763  0.00  0.00    +0.020 A 
ATOM     18  C   UNL     1      10.460   5.476   1.858  0.00  0.00    +0.111 A 
ENDBRANCH   7  12
BRANCH   8   5
ATOM      3  O   UNL     1      10.976   9.525   5.233  0.00  0.00    -0.270 OA
ATOM      5  N   UNL     1       9.941   8.355   6.948  0.00  0.00    -0.305 N 
ATOM     15  C   UNL     1      10.208   9.488   6.192  0.00  0.00    +0.248 C 
ATOM     25  H   UNL     1       9.223   8.381   7.665  0.00  0.00    +0.149 HD
BRANCH  15  17
ATOM     17  C   UNL     1       9.519  10.734   6.617  0.00  0.00    +0.078 A 
ATOM     19  C   UNL     1       9.655  11.219   7.918  0.00  0.00    +0.132 A 
ATOM     20  C   UNL     1       8.728  11.420   5.696  0.00  0.00    +0.017 A 
ATOM     21  C   UNL     1       8.999  12.389   8.298  0.00  0.00    +0.046 A 
ATOM     22  C   UNL     1       8.071  12.591   6.076  0.00  0.00    +0.001 A 
ATOM     23  C   UNL     1       8.207  13.076   7.377  0.00  0.00    +0.004 A 
BRANCH  19   4
ATOM      4  O   UNL     1      10.422  10.561   8.833  0.00  0.00    -0.494 OA
ATOM     24  C   UNL     1      11.637  11.193   9.232  0.00  0.00    +0.277 C 
ENDBRANCH  19   4
ENDBRANCH  15  17
ENDBRANCH   8   5
BRANCH   9   1
ATOM      1  O   UNL     1      12.178   5.680   7.756  0.00  0.00    -0.387 OA
ATOM     26  H   UNL     1      12.568   6.044   6.943  0.00  0.00    +0.210 HD
ENDBRANCH   9   1
BRANCH  11   2
ATOM      2  O   UNL     1      10.183   4.299   9.067  0.00  0.00    -0.389 OA
ATOM     27  H   UNL     1       9.676   4.405   9.890  0.00  0.00    +0.210 HD
ENDBRANCH  11   2
TORSDOF 6
ENDMDL
MODEL 7
REMARK VINA RESULT:      -5.6     23.821     26.892
REMARK  Name = 75536068
REMARK  7 active torsions:
REMARK  status: ('A' for Active; 'I' for Inactive)
REMARK    1  A    between atoms: O_1  and  C_9
REMARK    2  A    between atoms: O_2  and  C_11
REMARK    3  A    between atoms: O_4  and  C_19
REMARK    4  A    between atoms: O_4  and  C_24
REMARK    5  A    between atoms: N_5  and  C_8
REMARK    6  A    between atoms: C_7  and  C_12
REMARK    7  A    between atoms: C_15  and  C_17
REMARK                            x       y       z     vdW  Elec       q    Type
REMARK                         _______ _______ _______ _____ _____    ______ ____
ROOT
ATOM      7  C   UNL     1      10.205   5.509   5.114  0.00  0.00    +0.046 C 
ATOM      8  C   UNL     1      10.733   6.678   5.994  0.00  0.00    +0.112 C 
ATOM      9  C   UNL     1      10.797   6.122   7.425  0.00  0.00    +0.164 C 
ATOM     10  C   UNL     1      10.119   4.294   6.052  0.00  0.00    +0.044 C 
ATOM     11  C   UNL     1       9.847   4.928   7.407  0.00  0.00    +0.145 C 
ENDROOT
BRANCH   7  12
ATOM      6  N   UNL     1      12.682   6.023   2.289  0.00  0.00    -0.263 NA
ATOM     12  C   UNL     1      11.029   5.246   3.874  0.00  0.00    -0.024 A 
ATOM     13  C   UNL     1      10.919   4.046   3.181  0.00  0.00    +0.007 A 
ATOM     14  C   UNL     1      11.917   6.194   3.391  0.00  0.00    +0.114 A 
ATOM     16  C   UNL     1      11.690   3.833   2.044  0.00  0.00    +0.020 A 
ATOM     18  C   UNL     1      12.547   4.843   1.643  0.00  0.00    +0.111 A 
ENDBRANCH   7  12
BRANCH   8   5
ATOM      3  O   UNL     1      11.398   9.285   4.984  0.00  0.00    -0.270 OA
ATOM      5  N   UNL     1       9.856   7.823   5.916  0.00  0.00    -0.305 N 
ATOM     15  C   UNL     1      10.269   9.048   5.409  0.00  0.00    +0.248 C 
ATOM     25  H   UNL     1       8.882   7.678   6.160  0.00  0.00    +0.149 HD
BRANCH  15  17
ATOM     17  C   UNL     1       9.255  10.135   5.421  0.00  0.00    +0.078 A 
ATOM     19  C   UNL     1       8.052   9.998   4.729  0.00  0.00    +0.132 A 
ATOM     20  C   UNL     1       9.520  11.301   6.137  0.00  0.00    +0.017 A 
ATOM     21  C   UNL     1       7.114  11.030   4.752  0.00  0.00    +0.046 A 
ATOM     22  C   UNL     1       8.582  12.334   6.161  0.00  0.00    +0.001 A 
ATOM     23  C   UNL     1       7.379  12.198   5.468  0.00  0.00    +0.004 A 
BRANCH  19   4
ATOM      4  O   UNL     1       7.776   8.866   4.022  0.00  0.00    -0.494 OA
ATOM     24  C   UNL     1       7.850   8.957   2.600  0.00  0.00    +0.277 C 
ENDBRANCH  19   4
ENDBRANCH  15  17
ENDBRANCH   8   5
BRANCH   9   1
ATOM      1  O   UNL     1      12.135   5.696   7.676  0.00  0.00    -0.387 OA
ATOM     26  H   UNL     1      12.106   4.741   7.858  0.00  0.00    +0.210 HD
ENDBRANCH   9   1
BRANCH  11   2
ATOM      2  O   UNL     1      10.090   4.020   8.462  0.00  0.00    -0.389 OA
ATOM     27  H   UNL     1       9.982   3.122   8.106  0.00  0.00    +0.210 HD
ENDBRANCH  11   2
TORSDOF 6
ENDMDL
MODEL 8
REMARK VINA RESULT:      -5.5     24.818     27.606
REMARK  Name = 75536068
REMARK  7 active torsions:
REMARK  status: ('A' for Active; 'I' for Inactive)
REMARK    1  A    between atoms: O_1  and  C_9
REMARK    2  A    between atoms: O_2  and  C_11
REMARK    3  A    between atoms: O_4  and  C_19
REMARK    4  A    between atoms: O_4  and  C_24
REMARK    5  A    between atoms: N_5  and  C_8
REMARK    6  A    between atoms: C_7  and  C_12
REMARK    7  A    between atoms: C_15  and  C_17
REMARK                            x       y       z     vdW  Elec       q    Type
REMARK                         _______ _______ _______ _____ _____    ______ ____
ROOT
ATOM      7  C   UNL     1      18.637  -2.947  23.935  0.00  0.00    +0.046 C 
ATOM      8  C   UNL     1      17.456  -3.010  24.946  0.00  0.00    +0.112 C 
ATOM      9  C   UNL     1      16.311  -2.220  24.293  0.00  0.00    +0.164 C 
ATOM     10  C   UNL     1      18.076  -2.243  22.689  0.00  0.00    +0.044 C 
ATOM     11  C   UNL     1      17.006  -1.330  23.266  0.00  0.00    +0.145 C 
ENDROOT
BRANCH   7  12
ATOM      6  N   UNL     1      20.727  -6.090  24.308  0.00  0.00    -0.263 NA
ATOM     12  C   UNL     1      19.261  -4.290  23.630  0.00  0.00    -0.024 A 
ATOM     13  C   UNL     1      18.979  -4.958  22.443  0.00  0.00    +0.007 A 
ATOM     14  C   UNL     1      20.134  -4.893  24.521  0.00  0.00    +0.114 A 
ATOM     16  C   UNL     1      19.569  -6.191  22.189  0.00  0.00    +0.020 A 
ATOM     18  C   UNL     1      20.427  -6.709  23.144  0.00  0.00    +0.111 A 
ENDBRANCH   7  12
BRANCH   8   5
ATOM      3  O   UNL     1      17.654  -4.384  27.462  0.00  0.00    -0.270 OA
ATOM      5  N   UNL     1      17.830  -2.435  26.217  0.00  0.00    -0.305 N 
ATOM     15  C   UNL     1      17.899  -3.182  27.384  0.00  0.00    +0.248 C 
ATOM     25  H   UNL     1      18.139  -1.468  26.214  0.00  0.00    +0.149 HD
BRANCH  15  17
ATOM     17  C   UNL     1      18.274  -2.438  28.615  0.00  0.00    +0.078 A 
ATOM     19  C   UNL     1      19.565  -1.940  28.785  0.00  0.00    +0.132 A 
ATOM     20  C   UNL     1      17.314  -2.240  29.606  0.00  0.00    +0.017 A 
ATOM     21  C   UNL     1      19.897  -1.245  29.947  0.00  0.00    +0.046 A 
ATOM     22  C   UNL     1      17.645  -1.544  30.769  0.00  0.00    +0.001 A 
ATOM     23  C   UNL     1      18.937  -1.046  30.940  0.00  0.00    +0.004 A 
BRANCH  19   4
ATOM      4  O   UNL     1      20.518  -2.126  27.828  0.00  0.00    -0.494 OA
ATOM     24  C   UNL     1      21.037  -0.956  27.197  0.00  0.00    +0.277 C 
ENDBRANCH  19   4
ENDBRANCH  15  17
ENDBRANCH   8   5
BRANCH   9   1
ATOM      1  O   UNL     1      15.443  -3.149  23.646  0.00  0.00    -0.387 OA
ATOM     26  H   UNL     1      15.969  -3.939  23.435  0.00  0.00    +0.210 HD
ENDBRANCH   9   1
BRANCH  11   2
ATOM      2  O   UNL     1      16.127  -0.863  22.263  0.00  0.00    -0.389 OA
ATOM     27  H   UNL     1      15.546  -1.602  22.015  0.00  0.00    +0.210 HD
ENDBRANCH  11   2
TORSDOF 6
ENDMDL
MODEL 9
REMARK VINA RESULT:      -5.4     19.935     22.530
REMARK  Name = 75536068
REMARK  7 active torsions:
REMARK  status: ('A' for Active; 'I' for Inactive)
REMARK    1  A    between atoms: O_1  and  C_9
REMARK    2  A    between atoms: O_2  and  C_11
REMARK    3  A    between atoms: O_4  and  C_19
REMARK    4  A    between atoms: O_4  and  C_24
REMARK    5  A    between atoms: N_5  and  C_8
REMARK    6  A    between atoms: C_7  and  C_12
REMARK    7  A    between atoms: C_15  and  C_17
REMARK                            x       y       z     vdW  Elec       q    Type
REMARK                         _______ _______ _______ _____ _____    ______ ____
ROOT
ATOM      7  C   UNL     1     -11.945  10.580  16.226  0.00  0.00    +0.046 C 
ATOM      8  C   UNL     1     -11.322   9.162  16.377  0.00  0.00    +0.112 C 
ATOM      9  C   UNL     1     -11.518   8.478  15.015  0.00  0.00    +0.164 C 
ATOM     10  C   UNL     1     -12.348  10.697  14.747  0.00  0.00    +0.044 C 
ATOM     11  C   UNL     1     -12.655   9.259  14.362  0.00  0.00    +0.145 C 
ENDROOT
BRANCH   7  12
ATOM      6  N   UNL     1     -10.727  13.659  18.075  0.00  0.00    -0.263 NA
ATOM     12  C   UNL     1     -11.045  11.703  16.689  0.00  0.00    -0.024 A 
ATOM     13  C   UNL     1      -9.754  11.839  16.189  0.00  0.00    +0.007 A 
ATOM     14  C   UNL     1     -11.480  12.631  17.622  0.00  0.00    +0.114 A 
ATOM     16  C   UNL     1      -8.950  12.884  16.632  0.00  0.00    +0.020 A 
ATOM     18  C   UNL     1      -9.478  13.758  17.567  0.00  0.00    +0.111 A 
ENDBRANCH   7  12
BRANCH   8   5
ATOM      3  O   UNL     1     -10.740   9.314  19.187  0.00  0.00    -0.270 OA
ATOM      5  N   UNL     1     -11.969   8.421  17.434  0.00  0.00    -0.305 N 
ATOM     15  C   UNL     1     -11.618   8.563  18.769  0.00  0.00    +0.248 C 
ATOM     25  H   UNL     1     -12.768   7.851  17.176  0.00  0.00    +0.149 HD
BRANCH  15  17
ATOM     17  C   UNL     1     -12.361   7.709  19.733  0.00  0.00    +0.078 A 
ATOM     19  C   UNL     1     -13.754   7.737  19.788  0.00  0.00    +0.132 A 
ATOM     20  C   UNL     1     -11.646   6.872  20.589  0.00  0.00    +0.017 A 
ATOM     21  C   UNL     1     -14.432   6.929  20.700  0.00  0.00    +0.046 A 
ATOM     22  C   UNL     1     -12.323   6.063  21.501  0.00  0.00    +0.001 A 
ATOM     23  C   UNL     1     -13.717   6.091  21.557  0.00  0.00    +0.004 A 
BRANCH  19   4
ATOM      4  O   UNL     1     -14.471   8.550  18.961  0.00  0.00    -0.494 OA
ATOM     24  C   UNL     1     -15.475   7.932  18.158  0.00  0.00    +0.277 C 
ENDBRANCH  19   4
ENDBRANCH  15  17
ENDBRANCH   8   5
BRANCH   9   1
ATOM      1  O   UNL     1     -10.313   8.625  14.266  0.00  0.00    -0.387 OA
ATOM     26  H   UNL     1     -10.442   8.172  13.416  0.00  0.00    +0.210 HD
ENDBRANCH   9   1
BRANCH  11   2
ATOM      2  O   UNL     1     -12.696   9.096  12.959  0.00  0.00    -0.389 OA
ATOM     27  H   UNL     1     -12.250   9.863  12.562  0.00  0.00    +0.210 HD
ENDBRANCH  11   2
TORSDOF 6
ENDMDL
MODEL 10
REMARK VINA RESULT:      -5.4     20.040     23.181
REMARK  Name = 75536068
REMARK  7 active torsions:
REMARK  status: ('A' for Active; 'I' for Inactive)
REMARK    1  A    between atoms: O_1  and  C_9
REMARK    2  A    between atoms: O_2  and  C_11
REMARK    3  A    between atoms: O_4  and  C_19
REMARK    4  A    between atoms: O_4  and  C_24
REMARK    5  A    between atoms: N_5  and  C_8
REMARK    6  A    between atoms: C_7  and  C_12
REMARK    7  A    between atoms: C_15  and  C_17
REMARK                            x       y       z     vdW  Elec       q    Type
REMARK                         _______ _______ _______ _____ _____    ______ ____
ROOT
ATOM      7  C   UNL     1      10.212  -6.392  33.972  0.00  0.00    +0.046 C 
ATOM      8  C   UNL     1       8.720  -6.256  33.551  0.00  0.00    +0.112 C 
ATOM      9  C   UNL     1       8.164  -5.083  34.374  0.00  0.00    +0.164 C 
ATOM     10  C   UNL     1      10.483  -5.208  34.915  0.00  0.00    +0.044 C 
ATOM     11  C   UNL     1       9.125  -4.962  35.553  0.00  0.00    +0.145 C 
ENDROOT
BRANCH   7  12
ATOM      6  N   UNL     1      12.128  -7.735  30.988  0.00  0.00    -0.263 NA
ATOM     12  C   UNL     1      11.178  -6.462  32.811  0.00  0.00    -0.024 A 
ATOM     13  C   UNL     1      11.991  -5.381  32.489  0.00  0.00    +0.007 A 
ATOM     14  C   UNL     1      11.284  -7.606  32.036  0.00  0.00    +0.114 A 
ATOM     16  C   UNL     1      12.871  -5.475  31.416  0.00  0.00    +0.020 A 
ATOM     18  C   UNL     1      12.901  -6.662  30.705  0.00  0.00    +0.111 A 
ENDBRANCH   7  12
BRANCH   8   5
ATOM      3  O   UNL     1       6.191  -7.027  32.425  0.00  0.00    -0.270 OA
ATOM      5  N   UNL     1       7.993  -7.474  33.817  0.00  0.00    -0.305 N 
ATOM     15  C   UNL     1       6.772  -7.761  33.222  0.00  0.00    +0.248 C 
ATOM     25  H   UNL     1       8.454  -8.172  34.391  0.00  0.00    +0.149 HD
BRANCH  15  17
ATOM     17  C   UNL     1       6.137  -9.045  33.620  0.00  0.00    +0.078 A 
ATOM     19  C   UNL     1       6.540 -10.250  33.047  0.00  0.00    +0.132 A 
ATOM     20  C   UNL     1       5.127  -9.032  34.581  0.00  0.00    +0.017 A 
ATOM     21  C   UNL     1       5.932 -11.444  33.434  0.00  0.00    +0.046 A 
ATOM     22  C   UNL     1       4.518 -10.226  34.969  0.00  0.00    +0.001 A 
ATOM     23  C   UNL     1       4.920 -11.432  34.395  0.00  0.00    +0.004 A 
BRANCH  19   4
ATOM      4  O   UNL     1       7.525 -10.283  32.105  0.00  0.00    -0.494 OA
ATOM     24  C   UNL     1       7.121 -10.507  30.755  0.00  0.00    +0.277 C 
ENDBRANCH  19   4
ENDBRANCH  15  17
ENDBRANCH   8   5
BRANCH   9   1
ATOM      1  O   UNL     1       8.212  -3.910  33.564  0.00  0.00    -0.387 OA
ATOM     26  H   UNL     1       9.148  -3.675  33.449  0.00  0.00    +0.210 HD
ENDBRANCH   9   1
BRANCH  11   2
ATOM      2  O   UNL     1       9.069  -3.696  36.178  0.00  0.00    -0.389 OA
ATOM     27  H   UNL     1       9.877  -3.594  36.707  0.00  0.00    +0.210 HD
ENDBRANCH  11   2
TORSDOF 6
ENDMDL
