MODEL 1
REMARK VINA RESULT:      -5.5      0.000      0.000
REMARK  Name = 11912178
REMARK  11 active torsions:
REMARK  status: ('A' for Active; 'I' for Inactive)
REMARK    1  A    between atoms: O_3  and  C_24
REMARK    2  A    between atoms: O_3  and  C_28
REMARK    3  A    between atoms: N_5  and  C_18
REMARK    4  A    between atoms: N_5  and  C_19
REMARK    5  A    between atoms: N_6  and  C_20
REMARK    6  A    between atoms: C_8  and  C_14
REMARK    7  A    between atoms: C_9  and  C_13
REMARK    8  A    between atoms: C_13  and  C_15
REMARK    9  A    between atoms: C_14  and  C_16
REMARK   10  A    between atoms: C_18  and  C_21
REMARK   11  A    between atoms: C_21  and  C_25
REMARK                            x       y       z     vdW  Elec       q    Type
REMARK                         _______ _______ _______ _____ _____    ______ ____
ROOT
ATOM      2  O   UNL     1      16.428   5.896  18.181  0.00  0.00    -0.252 OA
ATOM      4  N   UNL     1      17.282   6.279  20.294  0.00  0.00    -0.285 N 
ATOM      6  N   UNL     1      15.198   7.186  19.667  0.00  0.00    -0.269 N 
ATOM      8  C   UNL     1      19.739   7.023  21.633  0.00  0.00    +0.004 C 
ATOM      9  C   UNL     1      18.408   7.766  21.928  0.00  0.00    +0.010 C 
ATOM     10  C   UNL     1      19.738   6.384  20.233  0.00  0.00    +0.023 C 
ATOM     11  C   UNL     1      17.223   6.824  21.658  0.00  0.00    +0.113 C 
ATOM     12  C   UNL     1      18.499   5.516  20.013  0.00  0.00    +0.109 C 
ATOM     17  C   UNL     1      16.295   6.411  19.295  0.00  0.00    +0.306 C 
ATOM     29  H   UNL     1      14.936   7.215  20.646  0.00  0.00    +0.156 HD
ENDROOT
BRANCH   6  20
ATOM     20  C   UNL     1      14.378   7.977  18.824  0.00  0.00    +0.038 A 
ATOM     22  C   UNL     1      13.164   7.471  18.357  0.00  0.00    +0.069 A 
ATOM     23  C   UNL     1      14.785   9.260  18.461  0.00  0.00    +0.023 A 
ATOM     24  C   UNL     1      12.358   8.249  17.528  0.00  0.00    +0.122 A 
ATOM     26  C   UNL     1      13.978  10.039  17.631  0.00  0.00    +0.005 A 
ATOM     27  C   UNL     1      12.765   9.534  17.164  0.00  0.00    +0.046 A 
BRANCH  24   3
ATOM      3  O   UNL     1      11.174   7.757  17.072  0.00  0.00    -0.495 OA
ATOM     28  C   UNL     1      10.395   8.610  16.234  0.00  0.00    +0.277 C 
ENDBRANCH  24   3
ENDBRANCH   6  20
BRANCH   9  13
ATOM     13  C   UNL     1      18.239   9.076  21.151  0.00  0.00    +0.002 C 
ATOM     15  C   UNL     1      16.950   9.775  21.530  0.00  0.00    +0.004 C 
ENDBRANCH   9  13
BRANCH   8  14
ATOM     14  C   UNL     1      20.973   7.904  21.823  0.00  0.00    +0.100 C 
BRANCH  14  16
ATOM      1  O   UNL     1      22.294   6.508  23.256  0.00  0.00    -0.276 OA
ATOM      5  N   UNL     1      21.697   8.590  24.086  0.00  0.00    -0.304 N 
ATOM     16  C   UNL     1      21.716   7.589  23.109  0.00  0.00    +0.216 C 
ATOM     19  C   UNL     1      21.008   9.860  23.892  0.00  0.00    +0.132 C 
BRANCH   5  18
ATOM     18  C   UNL     1      22.367   8.438  25.376  0.00  0.00    +0.122 C 
BRANCH  18  21
ATOM     21  C   UNL     1      21.388   8.422  26.544  0.00  0.00    +0.137 C 
BRANCH  21  25
ATOM      7  N   UNL     1      19.911   6.246  26.554  0.00  0.00    -0.197 NA
ATOM     25  C   UNL     1      20.562   7.205  26.548  0.00  0.00    +0.064 C 
ENDBRANCH  21  25
ENDBRANCH  18  21
ENDBRANCH   5  18
ENDBRANCH  14  16
ENDBRANCH   8  14
TORSDOF 8
ENDMDL
MODEL 2
REMARK VINA RESULT:      -5.5     14.166     18.453
REMARK  Name = 11912178
REMARK  11 active torsions:
REMARK  status: ('A' for Active; 'I' for Inactive)
REMARK    1  A    between atoms: O_3  and  C_24
REMARK    2  A    between atoms: O_3  and  C_28
REMARK    3  A    between atoms: N_5  and  C_18
REMARK    4  A    between atoms: N_5  and  C_19
REMARK    5  A    between atoms: N_6  and  C_20
REMARK    6  A    between atoms: C_8  and  C_14
REMARK    7  A    between atoms: C_9  and  C_13
REMARK    8  A    between atoms: C_13  and  C_15
REMARK    9  A    between atoms: C_14  and  C_16
REMARK   10  A    between atoms: C_18  and  C_21
REMARK   11  A    between atoms: C_21  and  C_25
REMARK                            x       y       z     vdW  Elec       q    Type
REMARK                         _______ _______ _______ _____ _____    ______ ____
ROOT
ATOM      2  O   UNL     1       8.472   7.458   8.168  0.00  0.00    -0.252 OA
ATOM      4  N   UNL     1      10.241   6.710   6.883  0.00  0.00    -0.285 N 
ATOM      6  N   UNL     1      10.289   8.864   7.840  0.00  0.00    -0.269 N 
ATOM      8  C   UNL     1      10.802   5.353   4.387  0.00  0.00    +0.004 C 
ATOM      9  C   UNL     1      11.498   6.693   4.746  0.00  0.00    +0.010 C 
ATOM     10  C   UNL     1       9.451   5.201   5.110  0.00  0.00    +0.023 C 
ATOM     11  C   UNL     1      11.574   6.840   6.275  0.00  0.00    +0.113 C 
ATOM     12  C   UNL     1       9.590   5.426   6.614  0.00  0.00    +0.109 C 
ATOM     17  C   UNL     1       9.587   7.670   7.683  0.00  0.00    +0.306 C 
ATOM     29  H   UNL     1      11.301   8.838   7.806  0.00  0.00    +0.156 HD
ENDROOT
BRANCH   6  20
ATOM     20  C   UNL     1       9.748  10.159   8.038  0.00  0.00    +0.038 A 
ATOM     22  C   UNL     1       9.471  10.609   9.330  0.00  0.00    +0.069 A 
ATOM     23  C   UNL     1       9.494  10.983   6.943  0.00  0.00    +0.023 A 
ATOM     24  C   UNL     1       8.940  11.883   9.525  0.00  0.00    +0.122 A 
ATOM     26  C   UNL     1       8.963  12.258   7.138  0.00  0.00    +0.005 A 
ATOM     27  C   UNL     1       8.685  12.708   8.429  0.00  0.00    +0.046 A 
BRANCH  24   3
ATOM      3  O   UNL     1       8.669  12.322  10.784  0.00  0.00    -0.495 OA
ATOM     28  C   UNL     1       9.664  12.093  11.780  0.00  0.00    +0.277 C 
ENDBRANCH  24   3
ENDBRANCH   6  20
BRANCH   9  13
ATOM     13  C   UNL     1      10.839   7.927   4.120  0.00  0.00    +0.002 C 
ATOM     15  C   UNL     1      11.619   9.185   4.439  0.00  0.00    +0.004 C 
ENDBRANCH   9  13
BRANCH   8  14
ATOM     14  C   UNL     1      10.635   5.147   2.882  0.00  0.00    +0.100 C 
BRANCH  14  16
ATOM      1  O   UNL     1      11.419   2.886   2.753  0.00  0.00    -0.276 OA
ATOM      5  N   UNL     1      12.468   4.436   1.382  0.00  0.00    -0.304 N 
ATOM     16  C   UNL     1      11.532   4.046   2.346  0.00  0.00    +0.216 C 
ATOM     19  C   UNL     1      12.584   5.813   0.916  0.00  0.00    +0.132 C 
BRANCH   5  18
ATOM     18  C   UNL     1      13.401   3.493   0.770  0.00  0.00    +0.122 C 
BRANCH  18  21
ATOM     21  C   UNL     1      14.814   3.626   1.326  0.00  0.00    +0.137 C 
BRANCH  21  25
ATOM      7  N   UNL     1      16.570   4.119  -0.570  0.00  0.00    -0.197 NA
ATOM     25  C   UNL     1      15.795   3.902   0.265  0.00  0.00    +0.064 C 
ENDBRANCH  21  25
ENDBRANCH  18  21
ENDBRANCH   5  18
ENDBRANCH  14  16
ENDBRANCH   8  14
TORSDOF 8
ENDMDL
MODEL 3
REMARK VINA RESULT:      -5.4      1.784      2.304
REMARK  Name = 11912178
REMARK  11 active torsions:
REMARK  status: ('A' for Active; 'I' for Inactive)
REMARK    1  A    between atoms: O_3  and  C_24
REMARK    2  A    between atoms: O_3  and  C_28
REMARK    3  A    between atoms: N_5  and  C_18
REMARK    4  A    between atoms: N_5  and  C_19
REMARK    5  A    between atoms: N_6  and  C_20
REMARK    6  A    between atoms: C_8  and  C_14
REMARK    7  A    between atoms: C_9  and  C_13
REMARK    8  A    between atoms: C_13  and  C_15
REMARK    9  A    between atoms: C_14  and  C_16
REMARK   10  A    between atoms: C_18  and  C_21
REMARK   11  A    between atoms: C_21  and  C_25
REMARK                            x       y       z     vdW  Elec       q    Type
REMARK                         _______ _______ _______ _____ _____    ______ ____
ROOT
ATOM      2  O   UNL     1      16.533   5.836  18.246  0.00  0.00    -0.252 OA
ATOM      4  N   UNL     1      17.456   6.208  20.331  0.00  0.00    -0.285 N 
ATOM      6  N   UNL     1      15.359   7.131  19.772  0.00  0.00    -0.269 N 
ATOM      8  C   UNL     1      19.958   6.931  21.594  0.00  0.00    +0.004 C 
ATOM      9  C   UNL     1      18.643   7.683  21.931  0.00  0.00    +0.010 C 
ATOM     10  C   UNL     1      19.909   6.295  20.194  0.00  0.00    +0.023 C 
ATOM     11  C   UNL     1      17.443   6.750  21.698  0.00  0.00    +0.113 C 
ATOM     12  C   UNL     1      18.658   5.437  20.010  0.00  0.00    +0.109 C 
ATOM     17  C   UNL     1      16.439   6.349  19.364  0.00  0.00    +0.306 C 
ATOM     29  H   UNL     1      15.129   7.160  20.758  0.00  0.00    +0.156 HD
ENDROOT
BRANCH   6  20
ATOM     20  C   UNL     1      14.520   7.930  18.956  0.00  0.00    +0.038 A 
ATOM     22  C   UNL     1      13.336   7.398  18.443  0.00  0.00    +0.069 A 
ATOM     23  C   UNL     1      14.876   9.246  18.667  0.00  0.00    +0.023 A 
ATOM     24  C   UNL     1      12.509   8.185  17.641  0.00  0.00    +0.122 A 
ATOM     26  C   UNL     1      14.049  10.033  17.864  0.00  0.00    +0.005 A 
ATOM     27  C   UNL     1      12.866   9.502  17.351  0.00  0.00    +0.046 A 
BRANCH  24   3
ATOM      3  O   UNL     1      11.355   7.667  17.140  0.00  0.00    -0.495 OA
ATOM     28  C   UNL     1      10.511   8.553  16.405  0.00  0.00    +0.277 C 
ENDBRANCH  24   3
ENDBRANCH   6  20
BRANCH   9  13
ATOM     13  C   UNL     1      18.459   8.997  21.163  0.00  0.00    +0.002 C 
ATOM     15  C   UNL     1      17.172   9.688  21.561  0.00  0.00    +0.004 C 
ENDBRANCH   9  13
BRANCH   8  14
ATOM     14  C   UNL     1      21.204   7.803  21.747  0.00  0.00    +0.100 C 
BRANCH  14  16
ATOM      1  O   UNL     1      21.998   7.224  23.933  0.00  0.00    -0.276 OA
ATOM      5  N   UNL     1      23.362   6.662  22.144  0.00  0.00    -0.304 N 
ATOM     16  C   UNL     1      22.210   7.210  22.717  0.00  0.00    +0.216 C 
ATOM     19  C   UNL     1      23.593   6.657  20.704  0.00  0.00    +0.132 C 
BRANCH   5  18
ATOM     18  C   UNL     1      24.423   6.054  22.944  0.00  0.00    +0.122 C 
BRANCH  18  21
ATOM     21  C   UNL     1      24.502   4.544  22.756  0.00  0.00    +0.137 C 
BRANCH  21  25
ATOM      7  N   UNL     1      22.237   3.362  23.384  0.00  0.00    -0.197 NA
ATOM     25  C   UNL     1      23.236   3.882  23.108  0.00  0.00    +0.064 C 
ENDBRANCH  21  25
ENDBRANCH  18  21
ENDBRANCH   5  18
ENDBRANCH  14  16
ENDBRANCH   8  14
TORSDOF 8
ENDMDL
MODEL 4
REMARK VINA RESULT:      -5.4     33.107     35.472
REMARK  Name = 11912178
REMARK  11 active torsions:
REMARK  status: ('A' for Active; 'I' for Inactive)
REMARK    1  A    between atoms: O_3  and  C_24
REMARK    2  A    between atoms: O_3  and  C_28
REMARK    3  A    between atoms: N_5  and  C_18
REMARK    4  A    between atoms: N_5  and  C_19
REMARK    5  A    between atoms: N_6  and  C_20
REMARK    6  A    between atoms: C_8  and  C_14
REMARK    7  A    between atoms: C_9  and  C_13
REMARK    8  A    between atoms: C_13  and  C_15
REMARK    9  A    between atoms: C_14  and  C_16
REMARK   10  A    between atoms: C_18  and  C_21
REMARK   11  A    between atoms: C_21  and  C_25
REMARK                            x       y       z     vdW  Elec       q    Type
REMARK                         _______ _______ _______ _____ _____    ______ ____
ROOT
ATOM      2  O   UNL     1     -16.615   6.352  32.744  0.00  0.00    -0.252 OA
ATOM      4  N   UNL     1     -16.176   4.114  32.370  0.00  0.00    -0.285 N 
ATOM      6  N   UNL     1     -14.739   5.402  33.726  0.00  0.00    -0.269 N 
ATOM      8  C   UNL     1     -16.089   2.159  30.237  0.00  0.00    +0.004 C 
ATOM      9  C   UNL     1     -14.896   2.332  31.215  0.00  0.00    +0.010 C 
ATOM     10  C   UNL     1     -16.928   3.444  30.127  0.00  0.00    +0.023 C 
ATOM     11  C   UNL     1     -15.409   2.875  32.560  0.00  0.00    +0.113 C 
ATOM     12  C   UNL     1     -17.345   3.961  31.503  0.00  0.00    +0.109 C 
ATOM     17  C   UNL     1     -15.896   5.370  32.948  0.00  0.00    +0.306 C 
ATOM     29  H   UNL     1     -14.448   4.552  34.194  0.00  0.00    +0.156 HD
ENDROOT
BRANCH   6  20
ATOM     20  C   UNL     1     -13.880   6.508  33.944  0.00  0.00    +0.038 A 
ATOM     22  C   UNL     1     -13.502   6.851  35.243  0.00  0.00    +0.069 A 
ATOM     23  C   UNL     1     -13.414   7.253  32.862  0.00  0.00    +0.023 A 
ATOM     24  C   UNL     1     -12.656   7.938  35.458  0.00  0.00    +0.122 A 
ATOM     26  C   UNL     1     -12.569   8.341  33.077  0.00  0.00    +0.005 A 
ATOM     27  C   UNL     1     -12.190   8.685  34.375  0.00  0.00    +0.046 A 
BRANCH  24   3
ATOM      3  O   UNL     1     -12.286   8.273  36.724  0.00  0.00    -0.495 OA
ATOM     28  C   UNL     1     -11.164   7.585  37.276  0.00  0.00    +0.277 C 
ENDBRANCH  24   3
ENDBRANCH   6  20
BRANCH   9  13
ATOM     13  C   UNL     1     -13.768   3.218  30.674  0.00  0.00    +0.002 C 
ATOM     15  C   UNL     1     -12.701   3.447  31.724  0.00  0.00    +0.004 C 
ENDBRANCH   9  13
BRANCH   8  14
ATOM     14  C   UNL     1     -15.663   1.673  28.852  0.00  0.00    +0.100 C 
BRANCH  14  16
ATOM      1  O   UNL     1     -17.601   0.390  28.266  0.00  0.00    -0.276 OA
ATOM      5  N   UNL     1     -17.020   2.118  26.832  0.00  0.00    -0.304 N 
ATOM     16  C   UNL     1     -16.849   1.324  27.971  0.00  0.00    +0.216 C 
ATOM     19  C   UNL     1     -16.119   3.217  26.503  0.00  0.00    +0.132 C 
BRANCH   5  18
ATOM     18  C   UNL     1     -18.114   1.908  25.887  0.00  0.00    +0.122 C 
BRANCH  18  21
ATOM     21  C   UNL     1     -18.042   2.852  24.692  0.00  0.00    +0.137 C 
BRANCH  21  25
ATOM      7  N   UNL     1     -17.279   1.602  22.507  0.00  0.00    -0.197 NA
ATOM     25  C   UNL     1     -17.617   2.154  23.470  0.00  0.00    +0.064 C 
ENDBRANCH  21  25
ENDBRANCH  18  21
ENDBRANCH   5  18
ENDBRANCH  14  16
ENDBRANCH   8  14
TORSDOF 8
ENDMDL
MODEL 5
REMARK VINA RESULT:      -5.4     28.104     31.803
REMARK  Name = 11912178
REMARK  11 active torsions:
REMARK  status: ('A' for Active; 'I' for Inactive)
REMARK    1  A    between atoms: O_3  and  C_24
REMARK    2  A    between atoms: O_3  and  C_28
REMARK    3  A    between atoms: N_5  and  C_18
REMARK    4  A    between atoms: N_5  and  C_19
REMARK    5  A    between atoms: N_6  and  C_20
REMARK    6  A    between atoms: C_8  and  C_14
REMARK    7  A    between atoms: C_9  and  C_13
REMARK    8  A    between atoms: C_13  and  C_15
REMARK    9  A    between atoms: C_14  and  C_16
REMARK   10  A    between atoms: C_18  and  C_21
REMARK   11  A    between atoms: C_21  and  C_25
REMARK                            x       y       z     vdW  Elec       q    Type
REMARK                         _______ _______ _______ _____ _____    ______ ____
ROOT
ATOM      2  O   UNL     1      -3.013 -12.905  11.700  0.00  0.00    -0.252 OA
ATOM      4  N   UNL     1      -3.673 -11.349  10.123  0.00  0.00    -0.285 N 
ATOM      6  N   UNL     1      -2.895 -10.651  12.237  0.00  0.00    -0.269 N 
ATOM      8  C   UNL     1      -5.797 -10.818   8.229  0.00  0.00    +0.004 C 
ATOM      9  C   UNL     1      -5.346  -9.741   9.251  0.00  0.00    +0.010 C 
ATOM     10  C   UNL     1      -5.490 -12.242   8.728  0.00  0.00    +0.023 C 
ATOM     11  C   UNL     1      -3.875  -9.978   9.632  0.00  0.00    +0.113 C 
ATOM     12  C   UNL     1      -4.029 -12.385   9.153  0.00  0.00    +0.109 C 
ATOM     17  C   UNL     1      -3.167 -11.722  11.387  0.00  0.00    +0.306 C 
ATOM     29  H   UNL     1      -2.632  -9.763  11.827  0.00  0.00    +0.156 HD
ENDROOT
BRANCH   6  20
ATOM     20  C   UNL     1      -2.953 -10.642  13.653  0.00  0.00    +0.038 A 
ATOM     22  C   UNL     1      -4.187 -10.727  14.301  0.00  0.00    +0.069 A 
ATOM     23  C   UNL     1      -1.779 -10.547  14.398  0.00  0.00    +0.023 A 
ATOM     24  C   UNL     1      -4.243 -10.719  15.694  0.00  0.00    +0.122 A 
ATOM     26  C   UNL     1      -1.836 -10.539  15.792  0.00  0.00    +0.005 A 
ATOM     27  C   UNL     1      -3.068 -10.624  16.440  0.00  0.00    +0.046 A 
BRANCH  24   3
ATOM      3  O   UNL     1      -5.445 -10.803  16.326  0.00  0.00    -0.495 OA
ATOM     28  C   UNL     1      -5.483 -11.526  17.556  0.00  0.00    +0.277 C 
ENDBRANCH  24   3
ENDBRANCH   6  20
BRANCH   9  13
ATOM     13  C   UNL     1      -6.220  -9.664  10.507  0.00  0.00    +0.002 C 
ATOM     15  C   UNL     1      -5.718  -8.600  11.460  0.00  0.00    +0.004 C 
ENDBRANCH   9  13
BRANCH   8  14
ATOM     14  C   UNL     1      -7.268 -10.691   7.833  0.00  0.00    +0.100 C 
BRANCH  14  16
ATOM      1  O   UNL     1      -6.936  -8.986   6.182  0.00  0.00    -0.276 OA
ATOM      5  N   UNL     1      -8.609  -8.615   7.745  0.00  0.00    -0.304 N 
ATOM     16  C   UNL     1      -7.575  -9.361   7.169  0.00  0.00    +0.216 C 
ATOM     19  C   UNL     1      -9.351  -9.077   8.912  0.00  0.00    +0.132 C 
BRANCH   5  18
ATOM     18  C   UNL     1      -9.023  -7.315   7.221  0.00  0.00    +0.122 C 
BRANCH  18  21
ATOM     21  C   UNL     1      -8.402  -6.153   7.985  0.00  0.00    +0.137 C 
BRANCH  21  25
ATOM      7  N   UNL     1     -10.228  -4.505   8.917  0.00  0.00    -0.197 NA
ATOM     25  C   UNL     1      -9.424  -5.232   8.507  0.00  0.00    +0.064 C 
ENDBRANCH  21  25
ENDBRANCH  18  21
ENDBRANCH   5  18
ENDBRANCH  14  16
ENDBRANCH   8  14
TORSDOF 8
ENDMDL
MODEL 6
REMARK VINA RESULT:      -5.3     28.803     31.238
REMARK  Name = 11912178
REMARK  11 active torsions:
REMARK  status: ('A' for Active; 'I' for Inactive)
REMARK    1  A    between atoms: O_3  and  C_24
REMARK    2  A    between atoms: O_3  and  C_28
REMARK    3  A    between atoms: N_5  and  C_18
REMARK    4  A    between atoms: N_5  and  C_19
REMARK    5  A    between atoms: N_6  and  C_20
REMARK    6  A    between atoms: C_8  and  C_14
REMARK    7  A    between atoms: C_9  and  C_13
REMARK    8  A    between atoms: C_13  and  C_15
REMARK    9  A    between atoms: C_14  and  C_16
REMARK   10  A    between atoms: C_18  and  C_21
REMARK   11  A    between atoms: C_21  and  C_25
REMARK                            x       y       z     vdW  Elec       q    Type
REMARK                         _______ _______ _______ _____ _____    ______ ____
ROOT
ATOM      2  O   UNL     1      -7.449  -8.019   9.055  0.00  0.00    -0.252 OA
ATOM      4  N   UNL     1      -5.351  -8.703   9.740  0.00  0.00    -0.285 N 
ATOM      6  N   UNL     1      -6.020  -8.971   7.494  0.00  0.00    -0.269 N 
ATOM      8  C   UNL     1      -4.034 -10.148  11.874  0.00  0.00    +0.004 C 
ATOM      9  C   UNL     1      -3.775 -10.504  10.386  0.00  0.00    +0.010 C 
ATOM     10  C   UNL     1      -5.408  -9.482  12.070  0.00  0.00    +0.023 C 
ATOM     11  C   UNL     1      -4.010  -9.260   9.512  0.00  0.00    +0.113 C 
ATOM     12  C   UNL     1      -5.597  -8.297  11.124  0.00  0.00    +0.109 C 
ATOM     17  C   UNL     1      -6.358  -8.518   8.769  0.00  0.00    +0.306 C 
ATOM     29  H   UNL     1      -5.045  -8.963   7.221  0.00  0.00    +0.156 HD
ENDROOT
BRANCH   6  20
ATOM     20  C   UNL     1      -6.897  -9.472   6.500  0.00  0.00    +0.038 A 
ATOM     22  C   UNL     1      -6.956  -8.857   5.249  0.00  0.00    +0.069 A 
ATOM     23  C   UNL     1      -7.700 -10.578   6.772  0.00  0.00    +0.023 A 
ATOM     24  C   UNL     1      -7.818  -9.350   4.270  0.00  0.00    +0.122 A 
ATOM     26  C   UNL     1      -8.563 -11.071   5.793  0.00  0.00    +0.005 A 
ATOM     27  C   UNL     1      -8.623 -10.457   4.542  0.00  0.00    +0.046 A 
BRANCH  24   3
ATOM      3  O   UNL     1      -7.876  -8.751   3.050  0.00  0.00    -0.495 OA
ATOM     28  C   UNL     1      -9.047  -8.982   2.268  0.00  0.00    +0.277 C 
ENDBRANCH  24   3
ENDBRANCH   6  20
BRANCH   9  13
ATOM     13  C   UNL     1      -4.604 -11.686   9.871  0.00  0.00    +0.002 C 
ATOM     15  C   UNL     1      -4.334 -11.946   8.404  0.00  0.00    +0.004 C 
ENDBRANCH   9  13
BRANCH   8  14
ATOM     14  C   UNL     1      -3.876 -11.344  12.813  0.00  0.00    +0.100 C 
BRANCH  14  16
ATOM      1  O   UNL     1      -2.168 -10.338  14.161  0.00  0.00    -0.276 OA
ATOM      5  N   UNL     1      -3.921 -11.357  15.286  0.00  0.00    -0.304 N 
ATOM     16  C   UNL     1      -3.233 -10.961  14.134  0.00  0.00    +0.216 C 
ATOM     19  C   UNL     1      -5.178 -12.094  15.232  0.00  0.00    +0.132 C 
BRANCH   5  18
ATOM     18  C   UNL     1      -3.431 -11.063  16.631  0.00  0.00    +0.122 C 
BRANCH  18  21
ATOM     21  C   UNL     1      -4.483 -11.320  17.704  0.00  0.00    +0.137 C 
BRANCH  21  25
ATOM      7  N   UNL     1      -3.417 -12.295  19.902  0.00  0.00    -0.197 NA
ATOM     25  C   UNL     1      -3.888 -11.865  18.933  0.00  0.00    +0.064 C 
ENDBRANCH  21  25
ENDBRANCH  18  21
ENDBRANCH   5  18
ENDBRANCH  14  16
ENDBRANCH   8  14
TORSDOF 8
ENDMDL
MODEL 7
REMARK VINA RESULT:      -5.3     28.764     31.269
REMARK  Name = 11912178
REMARK  11 active torsions:
REMARK  status: ('A' for Active; 'I' for Inactive)
REMARK    1  A    between atoms: O_3  and  C_24
REMARK    2  A    between atoms: O_3  and  C_28
REMARK    3  A    between atoms: N_5  and  C_18
REMARK    4  A    between atoms: N_5  and  C_19
REMARK    5  A    between atoms: N_6  and  C_20
REMARK    6  A    between atoms: C_8  and  C_14
REMARK    7  A    between atoms: C_9  and  C_13
REMARK    8  A    between atoms: C_13  and  C_15
REMARK    9  A    between atoms: C_14  and  C_16
REMARK   10  A    between atoms: C_18  and  C_21
REMARK   11  A    between atoms: C_21  and  C_25
REMARK                            x       y       z     vdW  Elec       q    Type
REMARK                         _______ _______ _______ _____ _____    ______ ____
ROOT
ATOM      2  O   UNL     1      -2.393 -10.584  14.965  0.00  0.00    -0.252 OA
ATOM      4  N   UNL     1      -4.321 -11.509  15.843  0.00  0.00    -0.285 N 
ATOM      6  N   UNL     1      -4.072 -11.255  13.511  0.00  0.00    -0.269 N 
ATOM      8  C   UNL     1      -6.265 -11.098  17.948  0.00  0.00    +0.004 C 
ATOM      9  C   UNL     1      -6.710 -11.316  16.477  0.00  0.00    +0.010 C 
ATOM     10  C   UNL     1      -4.840 -10.523  18.034  0.00  0.00    +0.023 C 
ATOM     11  C   UNL     1      -5.644 -12.140  15.734  0.00  0.00    +0.113 C 
ATOM     12  C   UNL     1      -3.849 -11.353  17.219  0.00  0.00    +0.109 C 
ATOM     17  C   UNL     1      -3.504 -11.086  14.773  0.00  0.00    +0.306 C 
ATOM     29  H   UNL     1      -4.733 -12.011  13.376  0.00  0.00    +0.156 HD
ENDROOT
BRANCH   6  20
ATOM     20  C   UNL     1      -3.846 -10.469  12.354  0.00  0.00    +0.038 A 
ATOM     22  C   UNL     1      -4.905  -9.780  11.760  0.00  0.00    +0.069 A 
ATOM     23  C   UNL     1      -2.565 -10.383  11.810  0.00  0.00    +0.023 A 
ATOM     24  C   UNL     1      -4.681  -9.006  10.623  0.00  0.00    +0.122 A 
ATOM     26  C   UNL     1      -2.342  -9.609  10.671  0.00  0.00    +0.005 A 
ATOM     27  C   UNL     1      -3.400  -8.921  10.077  0.00  0.00    +0.046 A 
BRANCH  24   3
ATOM      3  O   UNL     1      -5.713  -8.335  10.043  0.00  0.00    -0.495 OA
ATOM     28  C   UNL     1      -7.030  -8.822  10.297  0.00  0.00    +0.277 C 
ENDBRANCH  24   3
ENDBRANCH   6  20
BRANCH   9  13
ATOM     13  C   UNL     1      -7.011 -10.020  15.716  0.00  0.00    +0.002 C 
ATOM     15  C   UNL     1      -7.592 -10.311  14.348  0.00  0.00    +0.004 C 
ENDBRANCH   9  13
BRANCH   8  14
ATOM     14  C   UNL     1      -7.242 -10.239  18.749  0.00  0.00    +0.100 C 
BRANCH  14  16
ATOM      1  O   UNL     1      -8.283 -11.960  20.053  0.00  0.00    -0.276 OA
ATOM      5  N   UNL     1      -9.682 -10.648  18.749  0.00  0.00    -0.304 N 
ATOM     16  C   UNL     1      -8.435 -11.034  19.251  0.00  0.00    +0.216 C 
ATOM     19  C   UNL     1      -9.838  -9.550  17.801  0.00  0.00    +0.132 C 
BRANCH   5  18
ATOM     18  C   UNL     1     -10.923 -11.314  19.136  0.00  0.00    +0.122 C 
BRANCH  18  21
ATOM     21  C   UNL     1     -11.687 -10.547  20.209  0.00  0.00    +0.137 C 
BRANCH  21  25
ATOM      7  N   UNL     1     -13.999  -9.665  19.317  0.00  0.00    -0.197 NA
ATOM     25  C   UNL     1     -12.980 -10.053  19.711  0.00  0.00    +0.064 C 
ENDBRANCH  21  25
ENDBRANCH  18  21
ENDBRANCH   5  18
ENDBRANCH  14  16
ENDBRANCH   8  14
TORSDOF 8
ENDMDL
MODEL 8
REMARK VINA RESULT:      -5.3     27.856     30.401
REMARK  Name = 11912178
REMARK  11 active torsions:
REMARK  status: ('A' for Active; 'I' for Inactive)
REMARK    1  A    between atoms: O_3  and  C_24
REMARK    2  A    between atoms: O_3  and  C_28
REMARK    3  A    between atoms: N_5  and  C_18
REMARK    4  A    between atoms: N_5  and  C_19
REMARK    5  A    between atoms: N_6  and  C_20
REMARK    6  A    between atoms: C_8  and  C_14
REMARK    7  A    between atoms: C_9  and  C_13
REMARK    8  A    between atoms: C_13  and  C_15
REMARK    9  A    between atoms: C_14  and  C_16
REMARK   10  A    between atoms: C_18  and  C_21
REMARK   11  A    between atoms: C_21  and  C_25
REMARK                            x       y       z     vdW  Elec       q    Type
REMARK                         _______ _______ _______ _____ _____    ______ ____
ROOT
ATOM      2  O   UNL     1      -1.424 -10.134  12.133  0.00  0.00    -0.252 OA
ATOM      4  N   UNL     1      -2.414 -11.417  13.781  0.00  0.00    -0.285 N 
ATOM      6  N   UNL     1      -3.248 -11.455  11.575  0.00  0.00    -0.269 N 
ATOM      8  C   UNL     1      -3.332 -11.251  16.521  0.00  0.00    +0.004 C 
ATOM      9  C   UNL     1      -4.252 -11.802  15.399  0.00  0.00    +0.010 C 
ATOM     10  C   UNL     1      -2.261 -10.297  15.964  0.00  0.00    +0.023 C 
ATOM     11  C   UNL     1      -3.390 -12.399  14.274  0.00  0.00    +0.113 C 
ATOM     12  C   UNL     1      -1.491 -10.931  14.807  0.00  0.00    +0.109 C 
ATOM     17  C   UNL     1      -2.293 -10.948  12.455  0.00  0.00    +0.306 C 
ATOM     29  H   UNL     1      -3.630 -12.376  11.754  0.00  0.00    +0.156 HD
ENDROOT
BRANCH   6  20
ATOM     20  C   UNL     1      -3.782 -10.820  10.426  0.00  0.00    +0.038 A 
ATOM     22  C   UNL     1      -4.292 -11.587   9.379  0.00  0.00    +0.069 A 
ATOM     23  C   UNL     1      -3.796  -9.428  10.343  0.00  0.00    +0.023 A 
ATOM     24  C   UNL     1      -4.818 -10.962   8.249  0.00  0.00    +0.122 A 
ATOM     26  C   UNL     1      -4.322  -8.802   9.212  0.00  0.00    +0.005 A 
ATOM     27  C   UNL     1      -4.832  -9.569   8.165  0.00  0.00    +0.046 A 
BRANCH  24   3
ATOM      3  O   UNL     1      -5.316 -11.710   7.227  0.00  0.00    -0.495 OA
ATOM     28  C   UNL     1      -4.832 -11.422   5.915  0.00  0.00    +0.277 C 
ENDBRANCH  24   3
ENDBRANCH   6  20
BRANCH   9  13
ATOM     13  C   UNL     1      -5.234 -10.770  14.832  0.00  0.00    +0.002 C 
ATOM     15  C   UNL     1      -6.124 -11.385  13.773  0.00  0.00    +0.004 C 
ENDBRANCH   9  13
BRANCH   8  14
ATOM     14  C   UNL     1      -4.106 -10.588  17.660  0.00  0.00    +0.100 C 
BRANCH  14  16
ATOM      1  O   UNL     1      -4.348 -12.585  18.963  0.00  0.00    -0.276 OA
ATOM      5  N   UNL     1      -6.257 -11.305  18.648  0.00  0.00    -0.304 N 
ATOM     16  C   UNL     1      -4.897 -11.590  18.482  0.00  0.00    +0.216 C 
ATOM     19  C   UNL     1      -6.885 -10.123  18.071  0.00  0.00    +0.132 C 
BRANCH   5  18
ATOM     18  C   UNL     1      -7.151 -12.172  19.414  0.00  0.00    +0.122 C 
BRANCH  18  21
ATOM     21  C   UNL     1      -8.176 -12.875  18.533  0.00  0.00    +0.137 C 
BRANCH  21  25
ATOM      7  N   UNL     1      -7.025 -14.377  16.705  0.00  0.00    -0.197 NA
ATOM     25  C   UNL     1      -7.534 -13.715  17.510  0.00  0.00    +0.064 C 
ENDBRANCH  21  25
ENDBRANCH  18  21
ENDBRANCH   5  18
ENDBRANCH  14  16
ENDBRANCH   8  14
TORSDOF 8
ENDMDL
MODEL 9
REMARK VINA RESULT:      -5.3     29.185     31.692
REMARK  Name = 11912178
REMARK  11 active torsions:
REMARK  status: ('A' for Active; 'I' for Inactive)
REMARK    1  A    between atoms: O_3  and  C_24
REMARK    2  A    between atoms: O_3  and  C_28
REMARK    3  A    between atoms: N_5  and  C_18
REMARK    4  A    between atoms: N_5  and  C_19
REMARK    5  A    between atoms: N_6  and  C_20
REMARK    6  A    between atoms: C_8  and  C_14
REMARK    7  A    between atoms: C_9  and  C_13
REMARK    8  A    between atoms: C_13  and  C_15
REMARK    9  A    between atoms: C_14  and  C_16
REMARK   10  A    between atoms: C_18  and  C_21
REMARK   11  A    between atoms: C_21  and  C_25
REMARK                            x       y       z     vdW  Elec       q    Type
REMARK                         _______ _______ _______ _____ _____    ______ ____
ROOT
ATOM      2  O   UNL     1      -3.035 -13.002  14.667  0.00  0.00    -0.252 OA
ATOM      4  N   UNL     1      -3.206 -11.598  12.839  0.00  0.00    -0.285 N 
ATOM      6  N   UNL     1      -3.675 -10.798  15.006  0.00  0.00    -0.269 N 
ATOM      8  C   UNL     1      -4.260 -11.522  10.144  0.00  0.00    +0.004 C 
ATOM      9  C   UNL     1      -4.584 -10.398  11.164  0.00  0.00    +0.010 C 
ATOM     10  C   UNL     1      -3.920 -12.848  10.846  0.00  0.00    +0.023 C 
ATOM     11  C   UNL     1      -3.449 -10.298  12.197  0.00  0.00    +0.113 C 
ATOM     12  C   UNL     1      -2.833 -12.661  11.904  0.00  0.00    +0.109 C 
ATOM     17  C   UNL     1      -3.279 -11.878  14.220  0.00  0.00    +0.306 C 
ATOM     29  H   UNL     1      -3.452  -9.862  14.690  0.00  0.00    +0.156 HD
ENDROOT
BRANCH   6  20
ATOM     20  C   UNL     1      -4.387 -10.842  16.231  0.00  0.00    +0.038 A 
ATOM     22  C   UNL     1      -5.726 -10.452  16.274  0.00  0.00    +0.069 A 
ATOM     23  C   UNL     1      -3.749 -11.275  17.393  0.00  0.00    +0.023 A 
ATOM     24  C   UNL     1      -6.426 -10.496  17.479  0.00  0.00    +0.122 A 
ATOM     26  C   UNL     1      -4.450 -11.318  18.598  0.00  0.00    +0.005 A 
ATOM     27  C   UNL     1      -5.788 -10.929  18.642  0.00  0.00    +0.046 A 
BRANCH  24   3
ATOM      3  O   UNL     1      -7.732 -10.116  17.521  0.00  0.00    -0.495 OA
ATOM     28  C   UNL     1      -8.137  -9.079  16.628  0.00  0.00    +0.277 C 
ENDBRANCH  24   3
ENDBRANCH   6  20
BRANCH   9  13
ATOM     13  C   UNL     1      -5.936 -10.561  11.867  0.00  0.00    +0.002 C 
ATOM     15  C   UNL     1      -6.354  -9.279  12.555  0.00  0.00    +0.004 C 
ENDBRANCH   9  13
BRANCH   8  14
ATOM     14  C   UNL     1      -5.365 -11.728   9.108  0.00  0.00    +0.100 C 
BRANCH  14  16
ATOM      1  O   UNL     1      -5.023 -10.037   7.443  0.00  0.00    -0.276 OA
ATOM      5  N   UNL     1      -4.533 -12.220   6.831  0.00  0.00    -0.304 N 
ATOM     16  C   UNL     1      -4.963 -11.237   7.728  0.00  0.00    +0.216 C 
ATOM     19  C   UNL     1      -4.471 -13.633   7.189  0.00  0.00    +0.132 C 
BRANCH   5  18
ATOM     18  C   UNL     1      -4.113 -11.907   5.467  0.00  0.00    +0.122 C 
BRANCH  18  21
ATOM     21  C   UNL     1      -2.918 -12.739   5.019  0.00  0.00    +0.137 C 
BRANCH  21  25
ATOM      7  N   UNL     1      -2.506 -12.547   2.428  0.00  0.00    -0.197 NA
ATOM     25  C   UNL     1      -2.689 -12.632   3.570  0.00  0.00    +0.064 C 
ENDBRANCH  21  25
ENDBRANCH  18  21
ENDBRANCH   5  18
ENDBRANCH  14  16
ENDBRANCH   8  14
TORSDOF 8
ENDMDL
MODEL 10
REMARK VINA RESULT:      -5.3     29.961     33.199
REMARK  Name = 11912178
REMARK  11 active torsions:
REMARK  status: ('A' for Active; 'I' for Inactive)
REMARK    1  A    between atoms: O_3  and  C_24
REMARK    2  A    between atoms: O_3  and  C_28
REMARK    3  A    between atoms: N_5  and  C_18
REMARK    4  A    between atoms: N_5  and  C_19
REMARK    5  A    between atoms: N_6  and  C_20
REMARK    6  A    between atoms: C_8  and  C_14
REMARK    7  A    between atoms: C_9  and  C_13
REMARK    8  A    between atoms: C_13  and  C_15
REMARK    9  A    between atoms: C_14  and  C_16
REMARK   10  A    between atoms: C_18  and  C_21
REMARK   11  A    between atoms: C_21  and  C_25
REMARK                            x       y       z     vdW  Elec       q    Type
REMARK                         _______ _______ _______ _____ _____    ______ ____
ROOT
ATOM      2  O   UNL     1     -15.331   9.472  28.980  0.00  0.00    -0.252 OA
ATOM      4  N   UNL     1     -14.737   9.501  31.213  0.00  0.00    -0.285 N 
ATOM      6  N   UNL     1     -13.426  10.635  29.614  0.00  0.00    -0.269 N 
ATOM      8  C   UNL     1     -14.462   7.743  33.496  0.00  0.00    +0.004 C 
ATOM      9  C   UNL     1     -13.311   8.695  33.075  0.00  0.00    +0.010 C 
ATOM     10  C   UNL     1     -15.380   7.397  32.311  0.00  0.00    +0.023 C 
ATOM     11  C   UNL     1     -13.896   9.917  32.345  0.00  0.00    +0.113 C 
ATOM     12  C   UNL     1     -15.869   8.655  31.594  0.00  0.00    +0.109 C 
ATOM     17  C   UNL     1     -14.556   9.856  29.859  0.00  0.00    +0.306 C 
ATOM     29  H   UNL     1     -13.094  11.249  30.348  0.00  0.00    +0.156 HD
ENDROOT
BRANCH   6  20
ATOM     20  C   UNL     1     -12.648  10.672  28.431  0.00  0.00    +0.038 A 
ATOM     22  C   UNL     1     -13.107  11.374  27.315  0.00  0.00    +0.069 A 
ATOM     23  C   UNL     1     -11.423  10.007  28.380  0.00  0.00    +0.023 A 
ATOM     24  C   UNL     1     -12.341  11.411  26.151  0.00  0.00    +0.122 A 
ATOM     26  C   UNL     1     -10.657  10.044  27.215  0.00  0.00    +0.005 A 
ATOM     27  C   UNL     1     -11.115  10.745  26.101  0.00  0.00    +0.046 A 
BRANCH  24   3
ATOM      3  O   UNL     1     -12.788  12.095  25.063  0.00  0.00    -0.495 OA
ATOM     28  C   UNL     1     -12.274  11.701  23.792  0.00  0.00    +0.277 C 
ENDBRANCH  24   3
ENDBRANCH   6  20
BRANCH   9  13
ATOM     13  C   UNL     1     -12.228   8.028  32.220  0.00  0.00    +0.002 C 
ATOM     15  C   UNL     1     -11.085   8.981  31.942  0.00  0.00    +0.004 C 
ENDBRANCH   9  13
BRANCH   8  14
ATOM     14  C   UNL     1     -13.966   6.471  34.184  0.00  0.00    +0.100 C 
BRANCH  14  16
ATOM      1  O   UNL     1     -16.017   5.389  34.791  0.00  0.00    -0.276 OA
ATOM      5  N   UNL     1     -14.666   4.284  33.264  0.00  0.00    -0.304 N 
ATOM     16  C   UNL     1     -14.983   5.344  34.119  0.00  0.00    +0.216 C 
ATOM     19  C   UNL     1     -13.437   4.252  32.479  0.00  0.00    +0.132 C 
BRANCH   5  18
ATOM     18  C   UNL     1     -15.542   3.127  33.092  0.00  0.00    +0.122 C 
BRANCH  18  21
ATOM     21  C   UNL     1     -14.839   1.812  33.404  0.00  0.00    +0.137 C 
BRANCH  21  25
ATOM      7  N   UNL     1     -14.874   0.174  31.345  0.00  0.00    -0.197 NA
ATOM     25  C   UNL     1     -14.857   0.896  32.252  0.00  0.00    +0.064 C 
ENDBRANCH  21  25
ENDBRANCH  18  21
ENDBRANCH   5  18
ENDBRANCH  14  16
ENDBRANCH   8  14
TORSDOF 8
ENDMDL
