MODEL 1
REMARK VINA RESULT:      -7.6      0.000      0.000
REMARK  Name = 26743856
REMARK  6 active torsions:
REMARK  status: ('A' for Active; 'I' for Inactive)
REMARK    1  A    between atoms: O_1  and  C_9
REMARK    2  A    between atoms: N_3  and  C_11
REMARK    3  A    between atoms: C_7  and  C_12
REMARK    4  A    between atoms: C_11  and  C_13
REMARK    5  A    between atoms: C_14  and  C_17
REMARK    6  A    between atoms: C_22  and  C_25
REMARK                            x       y       z     vdW  Elec       q    Type
REMARK                         _______ _______ _______ _____ _____    ______ ____
ROOT
ATOM      3  N   UNL     1      12.340   8.588  19.913  0.00  0.00    -0.285 NA
ATOM      7  C   UNL     1      13.117   8.303  21.136  0.00  0.00    +0.149 C 
ATOM      8  C   UNL     1      12.223   7.359  21.960  0.00  0.00    +0.061 C 
ATOM      9  C   UNL     1      10.948   7.209  21.139  0.00  0.00    +0.130 C 
ATOM     10  C   UNL     1      10.931   8.457  20.278  0.00  0.00    +0.116 C 
ENDROOT
BRANCH   7  12
ATOM      2  O   UNL     1      14.501   6.641  19.995  0.00  0.00    -0.336 OA
ATOM      4  N   UNL     1      15.657   8.071  21.274  0.00  0.00    -0.190 NA
ATOM      5  N   UNL     1      15.847   6.271  19.874  0.00  0.00    -0.056 NA
ATOM     12  C   UNL     1      14.478   7.708  20.837  0.00  0.00    +0.245 A 
ATOM     14  C   UNL     1      16.464   7.161  20.656  0.00  0.00    +0.202 A 
BRANCH  14  17
ATOM     17  C   UNL     1      17.887   7.169  20.841  0.00  0.00    +0.023 A 
ATOM     19  C   UNL     1      18.634   6.023  20.562  0.00  0.00    +0.015 A 
ATOM     21  C   UNL     1      18.524   8.322  21.299  0.00  0.00    +0.012 A 
ATOM     22  C   UNL     1      20.017   6.031  20.741  0.00  0.00    -0.050 A 
ATOM     23  C   UNL     1      19.907   8.330  21.479  0.00  0.00    +0.001 A 
ATOM     24  C   UNL     1      20.654   7.185  21.199  0.00  0.00    +0.003 A 
ATOM     25  C   UNL     1      20.815   4.807  20.444  0.00  0.00    +0.044 C 
ENDBRANCH  14  17
ENDBRANCH   7  12
BRANCH   9   1
ATOM      1  O   UNL     1       9.814   7.138  21.983  0.00  0.00    -0.390 OA
ATOM     26  H   UNL     1       9.924   7.811  22.677  0.00  0.00    +0.210 HD
ENDBRANCH   9   1
BRANCH   3  11
ATOM     11  C   UNL     1      12.638   9.892  19.335  0.00  0.00    +0.122 C 
BRANCH  11  13
ATOM      6  N   UNL     1      13.632   8.448  15.980  0.00  0.00    -0.263 NA
ATOM     13  C   UNL     1      13.257   9.772  17.967  0.00  0.00    -0.015 A 
ATOM     15  C   UNL     1      14.002  10.812  17.424  0.00  0.00    +0.008 A 
ATOM     16  C   UNL     1      13.102   8.621  17.212  0.00  0.00    +0.115 A 
ATOM     18  C   UNL     1      14.563  10.672  16.160  0.00  0.00    +0.020 A 
ATOM     20  C   UNL     1      14.351   9.480  15.485  0.00  0.00    +0.111 A 
ENDBRANCH  11  13
ENDBRANCH   3  11
TORSDOF 5
ENDMDL
MODEL 2
REMARK VINA RESULT:      -7.4      1.907      3.842
REMARK  Name = 26743856
REMARK  6 active torsions:
REMARK  status: ('A' for Active; 'I' for Inactive)
REMARK    1  A    between atoms: O_1  and  C_9
REMARK    2  A    between atoms: N_3  and  C_11
REMARK    3  A    between atoms: C_7  and  C_12
REMARK    4  A    between atoms: C_11  and  C_13
REMARK    5  A    between atoms: C_14  and  C_17
REMARK    6  A    between atoms: C_22  and  C_25
REMARK                            x       y       z     vdW  Elec       q    Type
REMARK                         _______ _______ _______ _____ _____    ______ ____
ROOT
ATOM      3  N   UNL     1      12.538   8.636  18.657  0.00  0.00    -0.285 NA
ATOM      7  C   UNL     1      13.344   7.435  18.361  0.00  0.00    +0.149 C 
ATOM      8  C   UNL     1      13.869   7.655  16.930  0.00  0.00    +0.061 C 
ATOM      9  C   UNL     1      13.266   8.984  16.490  0.00  0.00    +0.130 C 
ATOM     10  C   UNL     1      12.042   9.129  17.373  0.00  0.00    +0.116 C 
ENDROOT
BRANCH   7  12
ATOM      2  O   UNL     1      14.097   6.683  20.562  0.00  0.00    -0.336 OA
ATOM      4  N   UNL     1      15.736   7.471  19.254  0.00  0.00    -0.190 NA
ATOM      5  N   UNL     1      15.277   6.579  21.310  0.00  0.00    -0.056 NA
ATOM     12  C   UNL     1      14.457   7.217  19.365  0.00  0.00    +0.245 A 
ATOM     14  C   UNL     1      16.198   7.062  20.471  0.00  0.00    +0.202 A 
BRANCH  14  17
ATOM     17  C   UNL     1      17.587   7.150  20.819  0.00  0.00    +0.023 A 
ATOM     19  C   UNL     1      18.455   6.106  20.497  0.00  0.00    +0.015 A 
ATOM     21  C   UNL     1      18.070   8.281  21.477  0.00  0.00    +0.012 A 
ATOM     22  C   UNL     1      19.806   6.193  20.834  0.00  0.00    -0.050 A 
ATOM     23  C   UNL     1      19.421   8.367  21.815  0.00  0.00    +0.001 A 
ATOM     24  C   UNL     1      20.289   7.324  21.492  0.00  0.00    +0.003 A 
ATOM     25  C   UNL     1      20.733   5.077  20.490  0.00  0.00    +0.044 C 
ENDBRANCH  14  17
ENDBRANCH   7  12
BRANCH   9   1
ATOM      1  O   UNL     1      12.923   8.950  15.118  0.00  0.00    -0.390 OA
ATOM     26  H   UNL     1      12.498   8.093  14.945  0.00  0.00    +0.210 HD
ENDBRANCH   9   1
BRANCH   3  11
ATOM     11  C   UNL     1      11.458   8.384  19.602  0.00  0.00    +0.122 C 
BRANCH  11  13
ATOM      6  N   UNL     1      10.777   9.896  23.004  0.00  0.00    -0.263 NA
ATOM     13  C   UNL     1      11.493   9.342  20.763  0.00  0.00    -0.015 A 
ATOM     15  C   UNL     1      12.231  10.518  20.700  0.00  0.00    +0.008 A 
ATOM     16  C   UNL     1      10.790   9.079  21.928  0.00  0.00    +0.115 A 
ATOM     18  C   UNL     1      12.243  11.384  21.788  0.00  0.00    +0.020 A 
ATOM     20  C   UNL     1      11.506  11.031  22.906  0.00  0.00    +0.111 A 
ENDBRANCH  11  13
ENDBRANCH   3  11
TORSDOF 5
ENDMDL
MODEL 3
REMARK VINA RESULT:      -6.9      2.096      4.168
REMARK  Name = 26743856
REMARK  6 active torsions:
REMARK  status: ('A' for Active; 'I' for Inactive)
REMARK    1  A    between atoms: O_1  and  C_9
REMARK    2  A    between atoms: N_3  and  C_11
REMARK    3  A    between atoms: C_7  and  C_12
REMARK    4  A    between atoms: C_11  and  C_13
REMARK    5  A    between atoms: C_14  and  C_17
REMARK    6  A    between atoms: C_22  and  C_25
REMARK                            x       y       z     vdW  Elec       q    Type
REMARK                         _______ _______ _______ _____ _____    ______ ____
ROOT
ATOM      3  N   UNL     1      14.423   9.117  19.957  0.00  0.00    -0.285 NA
ATOM      7  C   UNL     1      14.374   7.808  19.275  0.00  0.00    +0.149 C 
ATOM      8  C   UNL     1      13.969   8.133  17.826  0.00  0.00    +0.061 C 
ATOM      9  C   UNL     1      13.769   9.644  17.803  0.00  0.00    +0.130 C 
ATOM     10  C   UNL     1      13.483   9.986  19.252  0.00  0.00    +0.116 C 
ENDROOT
BRANCH   7  12
ATOM      2  O   UNL     1      15.937   6.160  18.370  0.00  0.00    -0.336 OA
ATOM      4  N   UNL     1      16.633   7.138  20.261  0.00  0.00    -0.190 NA
ATOM      5  N   UNL     1      17.187   5.599  18.663  0.00  0.00    -0.056 NA
ATOM     12  C   UNL     1      15.687   7.056  19.361  0.00  0.00    +0.245 A 
ATOM     14  C   UNL     1      17.532   6.227  19.790  0.00  0.00    +0.202 A 
BRANCH  14  17
ATOM     17  C   UNL     1      18.768   5.966  20.471  0.00  0.00    +0.023 A 
ATOM     19  C   UNL     1      19.074   6.650  21.649  0.00  0.00    +0.015 A 
ATOM     21  C   UNL     1      19.663   5.029  19.957  0.00  0.00    +0.012 A 
ATOM     22  C   UNL     1      20.275   6.395  22.311  0.00  0.00    -0.050 A 
ATOM     23  C   UNL     1      20.864   4.775  20.618  0.00  0.00    +0.001 A 
ATOM     24  C   UNL     1      21.170   5.457  21.796  0.00  0.00    +0.003 A 
ATOM     25  C   UNL     1      20.602   7.125  23.569  0.00  0.00    +0.044 C 
ENDBRANCH  14  17
ENDBRANCH   7  12
BRANCH   9   1
ATOM      1  O   UNL     1      12.689   9.994  16.958  0.00  0.00    -0.390 OA
ATOM     26  H   UNL     1      12.619  10.963  16.959  0.00  0.00    +0.210 HD
ENDBRANCH   9   1
BRANCH   3  11
ATOM     11  C   UNL     1      14.131   9.034  21.382  0.00  0.00    +0.122 C 
BRANCH  11  13
ATOM      6  N   UNL     1      10.489   8.744  22.372  0.00  0.00    -0.263 NA
ATOM     13  C   UNL     1      12.773   8.437  21.642  0.00  0.00    -0.015 A 
ATOM     15  C   UNL     1      12.527   7.088  21.415  0.00  0.00    +0.008 A 
ATOM     16  C   UNL     1      11.730   9.216  22.116  0.00  0.00    +0.115 A 
ATOM     18  C   UNL     1      11.264   6.565  21.666  0.00  0.00    +0.020 A 
ATOM     20  C   UNL     1      10.288   7.427  22.140  0.00  0.00    +0.111 A 
ENDBRANCH  11  13
ENDBRANCH   3  11
TORSDOF 5
ENDMDL
MODEL 4
REMARK VINA RESULT:      -6.8      3.281      6.696
REMARK  Name = 26743856
REMARK  6 active torsions:
REMARK  status: ('A' for Active; 'I' for Inactive)
REMARK    1  A    between atoms: O_1  and  C_9
REMARK    2  A    between atoms: N_3  and  C_11
REMARK    3  A    between atoms: C_7  and  C_12
REMARK    4  A    between atoms: C_11  and  C_13
REMARK    5  A    between atoms: C_14  and  C_17
REMARK    6  A    between atoms: C_22  and  C_25
REMARK                            x       y       z     vdW  Elec       q    Type
REMARK                         _______ _______ _______ _____ _____    ______ ____
ROOT
ATOM      3  N   UNL     1      14.407   8.103  19.886  0.00  0.00    -0.285 NA
ATOM      7  C   UNL     1      13.756   7.635  21.126  0.00  0.00    +0.149 C 
ATOM      8  C   UNL     1      14.912   7.397  22.114  0.00  0.00    +0.061 C 
ATOM      9  C   UNL     1      16.176   7.714  21.323  0.00  0.00    +0.130 C 
ATOM     10  C   UNL     1      15.750   7.526  19.881  0.00  0.00    +0.116 C 
ENDROOT
BRANCH   7  12
ATOM      2  O   UNL     1      11.526   8.098  22.016  0.00  0.00    -0.336 OA
ATOM      4  N   UNL     1      12.825   9.911  21.812  0.00  0.00    -0.190 NA
ATOM      5  N   UNL     1      10.757   9.181  22.462  0.00  0.00    -0.056 NA
ATOM     12  C   UNL     1      12.729   8.616  21.652  0.00  0.00    +0.245 A 
ATOM     14  C   UNL     1      11.592  10.213  22.312  0.00  0.00    +0.202 A 
BRANCH  14  17
ATOM     17  C   UNL     1      11.224  11.558  22.651  0.00  0.00    +0.023 A 
ATOM     19  C   UNL     1      11.039  11.916  23.986  0.00  0.00    +0.015 A 
ATOM     21  C   UNL     1      11.053  12.508  21.644  0.00  0.00    +0.012 A 
ATOM     22  C   UNL     1      10.683  13.224  24.316  0.00  0.00    -0.050 A 
ATOM     23  C   UNL     1      10.696  13.816  21.973  0.00  0.00    +0.001 A 
ATOM     24  C   UNL     1      10.512  14.174  23.309  0.00  0.00    +0.003 A 
ATOM     25  C   UNL     1      10.486  13.606  25.743  0.00  0.00    +0.044 C 
ENDBRANCH  14  17
ENDBRANCH   7  12
BRANCH   9   1
ATOM      1  O   UNL     1      17.225   6.835  21.680  0.00  0.00    -0.390 OA
ATOM     26  H   UNL     1      16.859   6.177  22.295  0.00  0.00    +0.210 HD
ENDBRANCH   9   1
BRANCH   3  11
ATOM     11  C   UNL     1      13.660   7.765  18.682  0.00  0.00    +0.122 C 
BRANCH  11  13
ATOM      6  N   UNL     1      14.110   9.330  15.264  0.00  0.00    -0.263 NA
ATOM     13  C   UNL     1      13.826   8.807  17.607  0.00  0.00    -0.015 A 
ATOM     15  C   UNL     1      13.854  10.161  17.920  0.00  0.00    +0.008 A 
ATOM     16  C   UNL     1      13.956   8.446  16.276  0.00  0.00    +0.115 A 
ATOM     18  C   UNL     1      14.010  11.100  16.907  0.00  0.00    +0.020 A 
ATOM     20  C   UNL     1      14.133  10.637  15.607  0.00  0.00    +0.111 A 
ENDBRANCH  11  13
ENDBRANCH   3  11
TORSDOF 5
ENDMDL
MODEL 5
REMARK VINA RESULT:      -6.6     25.321     28.604
REMARK  Name = 26743856
REMARK  6 active torsions:
REMARK  status: ('A' for Active; 'I' for Inactive)
REMARK    1  A    between atoms: O_1  and  C_9
REMARK    2  A    between atoms: N_3  and  C_11
REMARK    3  A    between atoms: C_7  and  C_12
REMARK    4  A    between atoms: C_11  and  C_13
REMARK    5  A    between atoms: C_14  and  C_17
REMARK    6  A    between atoms: C_22  and  C_25
REMARK                            x       y       z     vdW  Elec       q    Type
REMARK                         _______ _______ _______ _____ _____    ______ ____
ROOT
ATOM      3  N   UNL     1      -3.197 -10.553  14.248  0.00  0.00    -0.285 NA
ATOM      7  C   UNL     1      -3.480 -11.250  15.518  0.00  0.00    +0.149 C 
ATOM      8  C   UNL     1      -2.297 -10.892  16.437  0.00  0.00    +0.061 C 
ATOM      9  C   UNL     1      -1.381 -10.027  15.579  0.00  0.00    +0.130 C 
ATOM     10  C   UNL     1      -1.743 -10.424  14.161  0.00  0.00    +0.116 C 
ENDROOT
BRANCH   7  12
ATOM      2  O   UNL     1      -5.363  -9.699  15.668  0.00  0.00    -0.336 OA
ATOM      4  N   UNL     1      -5.546 -11.491  16.999  0.00  0.00    -0.190 NA
ATOM      5  N   UNL     1      -6.580  -9.557  16.349  0.00  0.00    -0.056 NA
ATOM     12  C   UNL     1      -4.819 -10.864  16.110  0.00  0.00    +0.245 A 
ATOM     14  C   UNL     1      -6.616 -10.652  17.113  0.00  0.00    +0.202 A 
BRANCH  14  17
ATOM     17  C   UNL     1      -7.706 -10.937  18.001  0.00  0.00    +0.023 A 
ATOM     19  C   UNL     1      -8.871 -10.171  17.945  0.00  0.00    +0.015 A 
ATOM     21  C   UNL     1      -7.602 -11.982  18.920  0.00  0.00    +0.012 A 
ATOM     22  C   UNL     1      -9.931 -10.450  18.808  0.00  0.00    -0.050 A 
ATOM     23  C   UNL     1      -8.661 -12.260  19.783  0.00  0.00    +0.001 A 
ATOM     24  C   UNL     1      -9.827 -11.494  19.726  0.00  0.00    +0.003 A 
ATOM     25  C   UNL     1     -11.176  -9.631  18.748  0.00  0.00    +0.044 C 
ENDBRANCH  14  17
ENDBRANCH   7  12
BRANCH   9   1
ATOM      1  O   UNL     1      -0.022 -10.297  15.869  0.00  0.00    -0.390 OA
ATOM     26  H   UNL     1       0.116 -11.253  15.759  0.00  0.00    +0.210 HD
ENDBRANCH   9   1
BRANCH   3  11
ATOM     11  C   UNL     1      -3.758 -11.228  13.085  0.00  0.00    +0.122 C 
BRANCH  11  13
ATOM      6  N   UNL     1      -5.654  -8.659  11.052  0.00  0.00    -0.263 NA
ATOM     13  C   UNL     1      -4.100 -10.259  11.984  0.00  0.00    -0.015 A 
ATOM     15  C   UNL     1      -3.238 -10.057  10.913  0.00  0.00    +0.008 A 
ATOM     16  C   UNL     1      -5.285  -9.541  12.008  0.00  0.00    +0.115 A 
ATOM     18  C   UNL     1      -3.582  -9.157   9.911  0.00  0.00    +0.020 A 
ATOM     20  C   UNL     1      -4.791  -8.489  10.026  0.00  0.00    +0.111 A 
ENDBRANCH  11  13
ENDBRANCH   3  11
TORSDOF 5
ENDMDL
MODEL 6
REMARK VINA RESULT:      -6.6      3.066      4.052
REMARK  Name = 26743856
REMARK  6 active torsions:
REMARK  status: ('A' for Active; 'I' for Inactive)
REMARK    1  A    between atoms: O_1  and  C_9
REMARK    2  A    between atoms: N_3  and  C_11
REMARK    3  A    between atoms: C_7  and  C_12
REMARK    4  A    between atoms: C_11  and  C_13
REMARK    5  A    between atoms: C_14  and  C_17
REMARK    6  A    between atoms: C_22  and  C_25
REMARK                            x       y       z     vdW  Elec       q    Type
REMARK                         _______ _______ _______ _____ _____    ______ ____
ROOT
ATOM      3  N   UNL     1      11.979  10.577  22.713  0.00  0.00    -0.285 NA
ATOM      7  C   UNL     1      13.013  11.630  22.665  0.00  0.00    +0.149 C 
ATOM      8  C   UNL     1      13.081  12.181  24.101  0.00  0.00    +0.061 C 
ATOM      9  C   UNL     1      12.017  11.408  24.870  0.00  0.00    +0.130 C 
ATOM     10  C   UNL     1      11.060  10.947  23.787  0.00  0.00    +0.116 C 
ENDROOT
BRANCH   7  12
ATOM      2  O   UNL     1      15.249  12.048  21.768  0.00  0.00    -0.336 OA
ATOM      4  N   UNL     1      14.778   9.880  22.076  0.00  0.00    -0.190 NA
ATOM      5  N   UNL     1      16.388  11.340  21.362  0.00  0.00    -0.056 NA
ATOM     12  C   UNL     1      14.350  11.113  22.173  0.00  0.00    +0.245 A 
ATOM     14  C   UNL     1      16.033  10.070  21.574  0.00  0.00    +0.202 A 
BRANCH  14  17
ATOM     17  C   UNL     1      16.908   8.968  21.296  0.00  0.00    +0.023 A 
ATOM     19  C   UNL     1      16.518   7.978  20.394  0.00  0.00    +0.015 A 
ATOM     21  C   UNL     1      18.149   8.887  21.926  0.00  0.00    +0.012 A 
ATOM     22  C   UNL     1      17.370   6.907  20.122  0.00  0.00    -0.050 A 
ATOM     23  C   UNL     1      19.000   7.816  21.656  0.00  0.00    +0.001 A 
ATOM     24  C   UNL     1      18.611   6.826  20.753  0.00  0.00    +0.003 A 
ATOM     25  C   UNL     1      16.953   5.848  19.158  0.00  0.00    +0.044 C 
ENDBRANCH  14  17
ENDBRANCH   7  12
BRANCH   9   1
ATOM      1  O   UNL     1      11.376  12.242  25.816  0.00  0.00    -0.390 OA
ATOM     26  H   UNL     1      10.538  12.538  25.424  0.00  0.00    +0.210 HD
ENDBRANCH   9   1
BRANCH   3  11
ATOM     11  C   UNL     1      11.291  10.391  21.442  0.00  0.00    +0.122 C 
BRANCH  11  13
ATOM      6  N   UNL     1      11.468   6.676  20.734  0.00  0.00    -0.263 NA
ATOM     13  C   UNL     1      11.661   9.085  20.789  0.00  0.00    -0.015 A 
ATOM     15  C   UNL     1      12.503   9.050  19.684  0.00  0.00    +0.008 A 
ATOM     16  C   UNL     1      11.173   7.881  21.271  0.00  0.00    +0.115 A 
ATOM     18  C   UNL     1      12.828   7.830  19.102  0.00  0.00    +0.020 A 
ATOM     20  C   UNL     1      12.290   6.682  19.661  0.00  0.00    +0.111 A 
ENDBRANCH  11  13
ENDBRANCH   3  11
TORSDOF 5
ENDMDL
MODEL 7
REMARK VINA RESULT:      -6.4     25.377     28.488
REMARK  Name = 26743856
REMARK  6 active torsions:
REMARK  status: ('A' for Active; 'I' for Inactive)
REMARK    1  A    between atoms: O_1  and  C_9
REMARK    2  A    between atoms: N_3  and  C_11
REMARK    3  A    between atoms: C_7  and  C_12
REMARK    4  A    between atoms: C_11  and  C_13
REMARK    5  A    between atoms: C_14  and  C_17
REMARK    6  A    between atoms: C_22  and  C_25
REMARK                            x       y       z     vdW  Elec       q    Type
REMARK                         _______ _______ _______ _____ _____    ______ ____
ROOT
ATOM      3  N   UNL     1      -3.255 -10.523  14.191  0.00  0.00    -0.285 NA
ATOM      7  C   UNL     1      -3.597 -11.149  15.484  0.00  0.00    +0.149 C 
ATOM      8  C   UNL     1      -2.405 -10.829  16.404  0.00  0.00    +0.061 C 
ATOM      9  C   UNL     1      -1.425 -10.061  15.525  0.00  0.00    +0.130 C 
ATOM     10  C   UNL     1      -1.796 -10.491  14.119  0.00  0.00    +0.116 C 
ENDROOT
BRANCH   7  12
ATOM      2  O   UNL     1      -5.056 -10.694  17.392  0.00  0.00    -0.336 OA
ATOM      4  N   UNL     1      -5.960 -10.183  15.408  0.00  0.00    -0.190 NA
ATOM      5  N   UNL     1      -6.337 -10.194  17.664  0.00  0.00    -0.056 NA
ATOM     12  C   UNL     1      -4.916 -10.653  16.041  0.00  0.00    +0.245 A 
ATOM     14  C   UNL     1      -6.805  -9.915  16.445  0.00  0.00    +0.202 A 
BRANCH  14  17
ATOM     17  C   UNL     1      -8.114  -9.367  16.228  0.00  0.00    +0.023 A 
ATOM     19  C   UNL     1      -8.759  -9.562  15.007  0.00  0.00    +0.015 A 
ATOM     21  C   UNL     1      -8.741  -8.641  17.240  0.00  0.00    +0.012 A 
ATOM     22  C   UNL     1     -10.031  -9.031  14.797  0.00  0.00    -0.050 A 
ATOM     23  C   UNL     1     -10.013  -8.108  17.030  0.00  0.00    +0.001 A 
ATOM     24  C   UNL     1     -10.659  -8.304  15.809  0.00  0.00    +0.003 A 
ATOM     25  C   UNL     1     -10.721  -9.239  13.492  0.00  0.00    +0.044 C 
ENDBRANCH  14  17
ENDBRANCH   7  12
BRANCH   9   1
ATOM      1  O   UNL     1      -0.090 -10.405  15.844  0.00  0.00    -0.390 OA
ATOM     26  H   UNL     1       0.328 -10.740  15.033  0.00  0.00    +0.210 HD
ENDBRANCH   9   1
BRANCH   3  11
ATOM     11  C   UNL     1      -3.846 -11.208  13.048  0.00  0.00    +0.122 C 
BRANCH  11  13
ATOM      6  N   UNL     1      -3.414  -9.265   9.828  0.00  0.00    -0.263 NA
ATOM     13  C   UNL     1      -4.128 -10.261  11.911  0.00  0.00    -0.015 A 
ATOM     15  C   UNL     1      -5.306  -9.524  11.868  0.00  0.00    +0.008 A 
ATOM     16  C   UNL     1      -3.222 -10.098  10.876  0.00  0.00    +0.115 A 
ATOM     18  C   UNL     1      -5.539  -8.657  10.807  0.00  0.00    +0.020 A 
ATOM     20  C   UNL     1      -4.570  -8.564   9.821  0.00  0.00    +0.111 A 
ENDBRANCH  11  13
ENDBRANCH   3  11
TORSDOF 5
ENDMDL
MODEL 8
REMARK VINA RESULT:      -6.3     26.407     28.701
REMARK  Name = 26743856
REMARK  6 active torsions:
REMARK  status: ('A' for Active; 'I' for Inactive)
REMARK    1  A    between atoms: O_1  and  C_9
REMARK    2  A    between atoms: N_3  and  C_11
REMARK    3  A    between atoms: C_7  and  C_12
REMARK    4  A    between atoms: C_11  and  C_13
REMARK    5  A    between atoms: C_14  and  C_17
REMARK    6  A    between atoms: C_22  and  C_25
REMARK                            x       y       z     vdW  Elec       q    Type
REMARK                         _______ _______ _______ _____ _____    ______ ____
ROOT
ATOM      3  N   UNL     1      -7.222 -10.739  17.503  0.00  0.00    -0.285 NA
ATOM      7  C   UNL     1      -5.861 -11.096  17.949  0.00  0.00    +0.149 C 
ATOM      8  C   UNL     1      -5.990 -12.525  18.505  0.00  0.00    +0.061 C 
ATOM      9  C   UNL     1      -7.469 -12.867  18.371  0.00  0.00    +0.130 C 
ATOM     10  C   UNL     1      -8.146 -11.511  18.332  0.00  0.00    +0.116 C 
ENDROOT
BRANCH   7  12
ATOM      2  O   UNL     1      -3.537 -11.167  17.193  0.00  0.00    -0.336 OA
ATOM      4  N   UNL     1      -5.016 -10.750  15.564  0.00  0.00    -0.190 NA
ATOM      5  N   UNL     1      -2.790 -11.025  16.016  0.00  0.00    -0.056 NA
ATOM     12  C   UNL     1      -4.837 -10.991  16.837  0.00  0.00    +0.245 A 
ATOM     14  C   UNL     1      -3.733 -10.782  15.101  0.00  0.00    +0.202 A 
BRANCH  14  17
ATOM     17  C   UNL     1      -3.426 -10.566  13.716  0.00  0.00    +0.023 A 
ATOM     19  C   UNL     1      -4.456 -10.442  12.783  0.00  0.00    +0.015 A 
ATOM     21  C   UNL     1      -2.097 -10.477  13.303  0.00  0.00    +0.012 A 
ATOM     22  C   UNL     1      -4.157 -10.231  11.437  0.00  0.00    -0.050 A 
ATOM     23  C   UNL     1      -1.797 -10.267  11.957  0.00  0.00    +0.001 A 
ATOM     24  C   UNL     1      -2.828 -10.143  11.024  0.00  0.00    +0.003 A 
ATOM     25  C   UNL     1      -5.258 -10.099  10.441  0.00  0.00    +0.044 C 
ENDBRANCH  14  17
ENDBRANCH   7  12
BRANCH   9   1
ATOM      1  O   UNL     1      -7.907 -13.641  19.471  0.00  0.00    -0.390 OA
ATOM     26  H   UNL     1      -8.879 -13.638  19.463  0.00  0.00    +0.210 HD
ENDBRANCH   9   1
BRANCH   3  11
ATOM     11  C   UNL     1      -7.491  -9.308  17.568  0.00  0.00    +0.122 C 
BRANCH  11  13
ATOM      6  N   UNL     1      -9.841  -9.030  14.613  0.00  0.00    -0.263 NA
ATOM     13  C   UNL     1      -8.683  -8.922  16.732  0.00  0.00    -0.015 A 
ATOM     15  C   UNL     1      -9.700  -8.132  17.256  0.00  0.00    +0.008 A 
ATOM     16  C   UNL     1      -8.800  -9.342  15.417  0.00  0.00    +0.115 A 
ATOM     18  C   UNL     1     -10.787  -7.791  16.459  0.00  0.00    +0.020 A 
ATOM     20  C   UNL     1     -10.810  -8.260  15.156  0.00  0.00    +0.111 A 
ENDBRANCH  11  13
ENDBRANCH   3  11
TORSDOF 5
ENDMDL
MODEL 9
REMARK VINA RESULT:      -6.3     26.800     28.582
REMARK  Name = 26743856
REMARK  6 active torsions:
REMARK  status: ('A' for Active; 'I' for Inactive)
REMARK    1  A    between atoms: O_1  and  C_9
REMARK    2  A    between atoms: N_3  and  C_11
REMARK    3  A    between atoms: C_7  and  C_12
REMARK    4  A    between atoms: C_11  and  C_13
REMARK    5  A    between atoms: C_14  and  C_17
REMARK    6  A    between atoms: C_22  and  C_25
REMARK                            x       y       z     vdW  Elec       q    Type
REMARK                         _______ _______ _______ _____ _____    ______ ____
ROOT
ATOM      3  N   UNL     1      -4.116 -11.460  10.463  0.00  0.00    -0.285 NA
ATOM      7  C   UNL     1      -3.096 -10.562  11.040  0.00  0.00    +0.149 C 
ATOM      8  C   UNL     1      -3.420  -9.173  10.459  0.00  0.00    +0.061 C 
ATOM      9  C   UNL     1      -4.608  -9.401   9.533  0.00  0.00    +0.130 C 
ATOM     10  C   UNL     1      -4.508 -10.873   9.183  0.00  0.00    +0.116 C 
ENDROOT
BRANCH   7  12
ATOM      2  O   UNL     1      -1.878 -10.555  13.159  0.00  0.00    -0.336 OA
ATOM      4  N   UNL     1      -4.106 -10.611  13.385  0.00  0.00    -0.190 NA
ATOM      5  N   UNL     1      -2.130 -10.576  14.537  0.00  0.00    -0.056 NA
ATOM     12  C   UNL     1      -3.095 -10.578  12.554  0.00  0.00    +0.245 A 
ATOM     14  C   UNL     1      -3.465 -10.608  14.589  0.00  0.00    +0.202 A 
BRANCH  14  17
ATOM     17  C   UNL     1      -4.188 -10.638  15.828  0.00  0.00    +0.023 A 
ATOM     19  C   UNL     1      -3.657 -11.308  16.930  0.00  0.00    +0.015 A 
ATOM     21  C   UNL     1      -5.422  -9.996  15.930  0.00  0.00    +0.012 A 
ATOM     22  C   UNL     1      -4.360 -11.336  18.135  0.00  0.00    -0.050 A 
ATOM     23  C   UNL     1      -6.125 -10.024  17.134  0.00  0.00    +0.001 A 
ATOM     24  C   UNL     1      -5.594 -10.693  18.237  0.00  0.00    +0.003 A 
ATOM     25  C   UNL     1      -3.793 -12.052  19.313  0.00  0.00    +0.044 C 
ENDBRANCH  14  17
ENDBRANCH   7  12
BRANCH   9   1
ATOM      1  O   UNL     1      -4.513  -8.581   8.384  0.00  0.00    -0.390 OA
ATOM     26  H   UNL     1      -4.082  -9.103   7.687  0.00  0.00    +0.210 HD
ENDBRANCH   9   1
BRANCH   3  11
ATOM     11  C   UNL     1      -3.655 -12.835  10.318  0.00  0.00    +0.122 C 
BRANCH  11  13
ATOM      6  N   UNL     1      -2.804 -14.911  13.366  0.00  0.00    -0.263 NA
ATOM     13  C   UNL     1      -3.818 -13.619  11.592  0.00  0.00    -0.015 A 
ATOM     15  C   UNL     1      -5.070 -13.790  12.173  0.00  0.00    +0.008 A 
ATOM     16  C   UNL     1      -2.727 -14.194  12.223  0.00  0.00    +0.115 A 
ATOM     18  C   UNL     1      -5.190 -14.521  13.350  0.00  0.00    +0.020 A 
ATOM     20  C   UNL     1      -4.037 -15.056  13.902  0.00  0.00    +0.111 A 
ENDBRANCH  11  13
ENDBRANCH   3  11
TORSDOF 5
ENDMDL
MODEL 10
REMARK VINA RESULT:      -6.3     16.338     20.427
REMARK  Name = 26743856
REMARK  6 active torsions:
REMARK  status: ('A' for Active; 'I' for Inactive)
REMARK    1  A    between atoms: O_1  and  C_9
REMARK    2  A    between atoms: N_3  and  C_11
REMARK    3  A    between atoms: C_7  and  C_12
REMARK    4  A    between atoms: C_11  and  C_13
REMARK    5  A    between atoms: C_14  and  C_17
REMARK    6  A    between atoms: C_22  and  C_25
REMARK                            x       y       z     vdW  Elec       q    Type
REMARK                         _______ _______ _______ _____ _____    ______ ____
ROOT
ATOM      3  N   UNL     1      13.499   3.927  -0.550  0.00  0.00    -0.285 NA
ATOM      7  C   UNL     1      13.720   3.681   0.889  0.00  0.00    +0.149 C 
ATOM      8  C   UNL     1      14.991   4.478   1.235  0.00  0.00    +0.061 C 
ATOM      9  C   UNL     1      15.436   5.099  -0.083  0.00  0.00    +0.130 C 
ATOM     10  C   UNL     1      14.813   4.197  -1.130  0.00  0.00    +0.116 C 
ENDROOT
BRANCH   7  12
ATOM      2  O   UNL     1      11.945   3.090   2.464  0.00  0.00    -0.336 OA
ATOM      4  N   UNL     1      11.969   5.253   1.881  0.00  0.00    -0.190 NA
ATOM      5  N   UNL     1      10.885   3.692   3.155  0.00  0.00    -0.056 NA
ATOM     12  C   UNL     1      12.530   4.080   1.738  0.00  0.00    +0.245 A 
ATOM     14  C   UNL     1      10.965   4.965   2.760  0.00  0.00    +0.202 A 
BRANCH  14  17
ATOM     17  C   UNL     1      10.057   5.975   3.224  0.00  0.00    +0.023 A 
ATOM     19  C   UNL     1       9.630   5.973   4.552  0.00  0.00    +0.015 A 
ATOM     21  C   UNL     1       9.603   6.960   2.347  0.00  0.00    +0.012 A 
ATOM     22  C   UNL     1       8.749   6.956   5.003  0.00  0.00    -0.050 A 
ATOM     23  C   UNL     1       8.721   7.942   2.798  0.00  0.00    +0.001 A 
ATOM     24  C   UNL     1       8.295   7.941   4.126  0.00  0.00    +0.003 A 
ATOM     25  C   UNL     1       8.293   6.953   6.423  0.00  0.00    +0.044 C 
ENDBRANCH  14  17
ENDBRANCH   7  12
BRANCH   9   1
ATOM      1  O   UNL     1      16.848   5.117  -0.177  0.00  0.00    -0.390 OA
ATOM     26  H   UNL     1      17.120   6.039  -0.315  0.00  0.00    +0.210 HD
ENDBRANCH   9   1
BRANCH   3  11
ATOM     11  C   UNL     1      12.818   2.828  -1.222  0.00  0.00    +0.122 C 
BRANCH  11  13
ATOM      6  N   UNL     1       9.883   4.969  -2.286  0.00  0.00    -0.263 NA
ATOM     13  C   UNL     1      11.603   3.299  -1.977  0.00  0.00    -0.015 A 
ATOM     15  C   UNL     1      11.074   2.551  -3.022  0.00  0.00    +0.008 A 
ATOM     16  C   UNL     1      10.976   4.491  -1.651  0.00  0.00    +0.115 A 
ATOM     18  C   UNL     1       9.950   3.010  -3.700  0.00  0.00    +0.020 A 
ATOM     20  C   UNL     1       9.397   4.215  -3.296  0.00  0.00    +0.111 A 
ENDBRANCH  11  13
ENDBRANCH   3  11
TORSDOF 5
ENDMDL
