MODEL 1
REMARK VINA RESULT:      -8.5      0.000      0.000
REMARK  Name = 26743312
REMARK  9 active torsions:
REMARK  status: ('A' for Active; 'I' for Inactive)
REMARK    1  A    between atoms: C_6  and  C_10
REMARK    2  A    between atoms: C_7  and  C_12
REMARK    3  A    between atoms: C_10  and  C_13
REMARK    4  A    between atoms: C_12  and  C_14
REMARK    5  A    between atoms: C_21  and  C_22
REMARK    6  A    between atoms: C_23  and  C_24
REMARK    7  A    between atoms: C_23  and  C_29
REMARK    8  A    between atoms: C_23  and  C_30
REMARK    9  A    between atoms: C_23  and  C_31
REMARK                            x       y       z     vdW  Elec       q    Type
REMARK                         _______ _______ _______ _____ _____    ______ ____
ROOT
ATOM      3  N   UNL     1      12.058   6.043  21.128  0.00  0.00    -0.316 NA
ATOM      6  C   UNL     1      11.943   8.889  20.358  0.00  0.00    +0.004 C 
ATOM      7  C   UNL     1      12.912   7.881  19.694  0.00  0.00    +0.012 C 
ATOM      8  C   UNL     1      10.740   8.124  20.933  0.00  0.00    +0.019 C 
ATOM      9  C   UNL     1      13.260   6.720  20.641  0.00  0.00    +0.085 C 
ATOM     11  C   UNL     1      11.164   6.961  21.830  0.00  0.00    +0.081 C 
ATOM     32  H   UNL     1      12.327   5.288  21.757  0.00  0.00    +0.122 HD
ENDROOT
BRANCH   6  10
ATOM     10  C   UNL     1      12.596   9.768  21.432  0.00  0.00    +0.100 C 
BRANCH  10  13
ATOM      1  O   UNL     1      12.399  11.870  20.355  0.00  0.00    -0.276 OA
ATOM      4  N   UNL     1      11.257  11.624  22.362  0.00  0.00    -0.301 N 
ATOM     13  C   UNL     1      12.079  11.181  21.327  0.00  0.00    +0.216 C 
ATOM     15  C   UNL     1      10.717  12.984  22.335  0.00  0.00    +0.108 C 
ATOM     16  C   UNL     1      10.823  10.813  23.509  0.00  0.00    +0.108 C 
ATOM     17  C   UNL     1      11.045  13.729  23.626  0.00  0.00    +0.019 C 
ATOM     18  C   UNL     1      11.152  11.517  24.824  0.00  0.00    +0.019 C 
ATOM     19  C   UNL     1      10.589  12.937  24.850  0.00  0.00    +0.003 C 
ENDBRANCH  10  13
ENDBRANCH   6  10
BRANCH   7  12
ATOM     12  C   UNL     1      14.186   8.538  19.160  0.00  0.00    +0.064 C 
BRANCH  12  14
ATOM      2  O   UNL     1      16.706   5.970  19.020  0.00  0.00    -0.354 OA
ATOM      5  N   UNL     1      15.517   6.550  18.596  0.00  0.00    -0.083 NA
ATOM     14  C   UNL     1      15.380   7.647  19.345  0.00  0.00    +0.085 A 
ATOM     20  C   UNL     1      16.442   7.810  20.252  0.00  0.00    +0.076 A 
ATOM     21  C   UNL     1      17.248   6.729  20.006  0.00  0.00    +0.167 A 
BRANCH  21  22
ATOM     22  C   UNL     1      18.488   6.253  20.547  0.00  0.00    +0.020 A 
ATOM     24  C   UNL     1      20.901   5.325  21.596  0.00  0.00    -0.042 A 
ATOM     25  C   UNL     1      19.174   5.217  19.910  0.00  0.00    +0.012 A 
ATOM     26  C   UNL     1      19.009   6.825  21.707  0.00  0.00    +0.012 A 
ATOM     27  C   UNL     1      20.380   4.753  20.436  0.00  0.00    +0.005 A 
ATOM     28  C   UNL     1      20.216   6.361  22.231  0.00  0.00    +0.005 A 
BRANCH  24  23
ATOM     23  C   UNL     1      22.190   4.830  22.158  0.00  0.00    -0.013 C 
ATOM     29  C   UNL     1      23.374   5.098  21.178  0.00  0.00    +0.015 C 
ATOM     30  C   UNL     1      22.528   5.536  23.508  0.00  0.00    +0.015 C 
ATOM     31  C   UNL     1      22.244   3.296  22.466  0.00  0.00    +0.015 C 
ENDBRANCH  24  23
ENDBRANCH  21  22
ENDBRANCH  12  14
ENDBRANCH   7  12
TORSDOF 6
ENDMDL
MODEL 2
REMARK VINA RESULT:      -8.1     27.396     31.434
REMARK  Name = 26743312
REMARK  9 active torsions:
REMARK  status: ('A' for Active; 'I' for Inactive)
REMARK    1  A    between atoms: C_6  and  C_10
REMARK    2  A    between atoms: C_7  and  C_12
REMARK    3  A    between atoms: C_10  and  C_13
REMARK    4  A    between atoms: C_12  and  C_14
REMARK    5  A    between atoms: C_21  and  C_22
REMARK    6  A    between atoms: C_23  and  C_24
REMARK    7  A    between atoms: C_23  and  C_29
REMARK    8  A    between atoms: C_23  and  C_30
REMARK    9  A    between atoms: C_23  and  C_31
REMARK                            x       y       z     vdW  Elec       q    Type
REMARK                         _______ _______ _______ _____ _____    ______ ____
ROOT
ATOM      3  N   UNL     1     -19.202   3.120  25.571  0.00  0.00    -0.316 NA
ATOM      6  C   UNL     1     -16.730   4.056  26.884  0.00  0.00    +0.004 C 
ATOM      7  C   UNL     1     -16.817   3.781  25.363  0.00  0.00    +0.012 C 
ATOM      8  C   UNL     1     -18.137   4.369  27.419  0.00  0.00    +0.019 C 
ATOM      9  C   UNL     1     -17.895   2.733  25.036  0.00  0.00    +0.085 C 
ATOM     11  C   UNL     1     -19.162   3.307  27.020  0.00  0.00    +0.081 C 
ATOM     32  H   UNL     1     -19.886   2.400  25.343  0.00  0.00    +0.122 HD
ENDROOT
BRANCH   6  10
ATOM     10  C   UNL     1     -16.081   2.922  27.688  0.00  0.00    +0.100 C 
BRANCH  10  13
ATOM      1  O   UNL     1     -15.676   4.555  29.356  0.00  0.00    -0.276 OA
ATOM      4  N   UNL     1     -15.880   2.359  30.084  0.00  0.00    -0.301 N 
ATOM     13  C   UNL     1     -15.861   3.360  29.113  0.00  0.00    +0.216 C 
ATOM     15  C   UNL     1     -15.672   2.703  31.491  0.00  0.00    +0.108 C 
ATOM     16  C   UNL     1     -16.142   0.935  29.831  0.00  0.00    +0.108 C 
ATOM     17  C   UNL     1     -14.545   1.872  32.097  0.00  0.00    +0.019 C 
ATOM     18  C   UNL     1     -15.023   0.069  30.406  0.00  0.00    +0.019 C 
ATOM     19  C   UNL     1     -14.783   0.378  31.883  0.00  0.00    +0.003 C 
ENDBRANCH  10  13
ENDBRANCH   6  10
BRANCH   7  12
ATOM     12  C   UNL     1     -15.475   3.378  24.750  0.00  0.00    +0.064 C 
BRANCH  12  14
ATOM      2  O   UNL     1     -15.445   5.026  21.549  0.00  0.00    -0.354 OA
ATOM      5  N   UNL     1     -16.025   4.191  22.496  0.00  0.00    -0.083 NA
ATOM     14  C   UNL     1     -15.170   4.187  23.523  0.00  0.00    +0.085 A 
ATOM     20  C   UNL     1     -14.044   4.994  23.283  0.00  0.00    +0.076 A 
ATOM     21  C   UNL     1     -14.266   5.498  22.028  0.00  0.00    +0.167 A 
BRANCH  21  22
ATOM     22  C   UNL     1     -13.549   6.379  21.153  0.00  0.00    +0.020 A 
ATOM     24  C   UNL     1     -12.154   8.096  19.453  0.00  0.00    -0.042 A 
ATOM     25  C   UNL     1     -14.246   7.201  20.267  0.00  0.00    +0.012 A 
ATOM     26  C   UNL     1     -12.155   6.416  21.190  0.00  0.00    +0.012 A 
ATOM     27  C   UNL     1     -13.548   8.059  19.416  0.00  0.00    +0.005 A 
ATOM     28  C   UNL     1     -11.458   7.275  20.340  0.00  0.00    +0.005 A 
BRANCH  24  23
ATOM     23  C   UNL     1     -11.409   9.012  18.544  0.00  0.00    -0.013 C 
ATOM     29  C   UNL     1     -12.375  10.004  17.823  0.00  0.00    +0.015 C 
ATOM     30  C   UNL     1     -10.364   9.864  19.331  0.00  0.00    +0.015 C 
ATOM     31  C   UNL     1     -10.600   8.314  17.400  0.00  0.00    +0.015 C 
ENDBRANCH  24  23
ENDBRANCH  21  22
ENDBRANCH  12  14
ENDBRANCH   7  12
TORSDOF 6
ENDMDL
MODEL 3
REMARK VINA RESULT:      -7.6      1.843      2.751
REMARK  Name = 26743312
REMARK  9 active torsions:
REMARK  status: ('A' for Active; 'I' for Inactive)
REMARK    1  A    between atoms: C_6  and  C_10
REMARK    2  A    between atoms: C_7  and  C_12
REMARK    3  A    between atoms: C_10  and  C_13
REMARK    4  A    between atoms: C_12  and  C_14
REMARK    5  A    between atoms: C_21  and  C_22
REMARK    6  A    between atoms: C_23  and  C_24
REMARK    7  A    between atoms: C_23  and  C_29
REMARK    8  A    between atoms: C_23  and  C_30
REMARK    9  A    between atoms: C_23  and  C_31
REMARK                            x       y       z     vdW  Elec       q    Type
REMARK                         _______ _______ _______ _____ _____    ______ ____
ROOT
ATOM      3  N   UNL     1      13.379   8.454  16.154  0.00  0.00    -0.316 NA
ATOM      6  C   UNL     1      14.441   9.624  18.647  0.00  0.00    +0.004 C 
ATOM      7  C   UNL     1      14.608   8.128  18.288  0.00  0.00    +0.012 C 
ATOM      8  C   UNL     1      14.249  10.432  17.353  0.00  0.00    +0.019 C 
ATOM      9  C   UNL     1      13.480   7.636  17.364  0.00  0.00    +0.085 C 
ATOM     11  C   UNL     1      13.141   9.861  16.468  0.00  0.00    +0.081 C 
ATOM     32  H   UNL     1      12.619   8.105  15.573  0.00  0.00    +0.122 HD
ENDROOT
BRANCH   6  10
ATOM     10  C   UNL     1      13.307   9.905  19.640  0.00  0.00    +0.100 C 
BRANCH  10  13
ATOM      1  O   UNL     1      14.974  11.172  20.748  0.00  0.00    -0.276 OA
ATOM      4  N   UNL     1      12.832  11.276  21.639  0.00  0.00    -0.301 N 
ATOM     13  C   UNL     1      13.786  10.840  20.721  0.00  0.00    +0.216 C 
ATOM     15  C   UNL     1      13.219  12.183  22.720  0.00  0.00    +0.108 C 
ATOM     16  C   UNL     1      11.403  10.933  21.607  0.00  0.00    +0.108 C 
ATOM     17  C   UNL     1      12.808  11.624  24.079  0.00  0.00    +0.019 C 
ATOM     18  C   UNL     1      10.956  10.350  22.945  0.00  0.00    +0.019 C 
ATOM     19  C   UNL     1      11.321  11.275  24.105  0.00  0.00    +0.003 C 
ENDBRANCH  10  13
ENDBRANCH   6  10
BRANCH   7  12
ATOM     12  C   UNL     1      14.725   7.225  19.518  0.00  0.00    +0.064 C 
BRANCH  12  14
ATOM      2  O   UNL     1      17.852   5.487  19.118  0.00  0.00    -0.354 OA
ATOM      5  N   UNL     1      16.574   5.829  18.696  0.00  0.00    -0.083 NA
ATOM     14  C   UNL     1      16.105   6.648  19.642  0.00  0.00    +0.085 A 
ATOM     20  C   UNL     1      17.035   6.857  20.675  0.00  0.00    +0.076 A 
ATOM     21  C   UNL     1      18.116   6.105  20.297  0.00  0.00    +0.167 A 
BRANCH  21  22
ATOM     22  C   UNL     1      19.409   5.845  20.859  0.00  0.00    +0.020 A 
ATOM     24  C   UNL     1      21.925   5.338  21.954  0.00  0.00    -0.042 A 
ATOM     25  C   UNL     1      19.823   6.527  22.004  0.00  0.00    +0.012 A 
ATOM     26  C   UNL     1      20.254   4.909  20.262  0.00  0.00    +0.012 A 
ATOM     27  C   UNL     1      21.081   6.274  22.551  0.00  0.00    +0.005 A 
ATOM     28  C   UNL     1      21.512   4.655  20.811  0.00  0.00    +0.005 A 
BRANCH  24  23
ATOM     23  C   UNL     1      23.269   5.067  22.539  0.00  0.00    -0.013 C 
ATOM     29  C   UNL     1      23.729   6.236  23.465  0.00  0.00    +0.015 C 
ATOM     30  C   UNL     1      23.261   3.763  23.397  0.00  0.00    +0.015 C 
ATOM     31  C   UNL     1      24.427   4.877  21.503  0.00  0.00    +0.015 C 
ENDBRANCH  24  23
ENDBRANCH  21  22
ENDBRANCH  12  14
ENDBRANCH   7  12
TORSDOF 6
ENDMDL
MODEL 4
REMARK VINA RESULT:      -7.3      1.952      3.193
REMARK  Name = 26743312
REMARK  9 active torsions:
REMARK  status: ('A' for Active; 'I' for Inactive)
REMARK    1  A    between atoms: C_6  and  C_10
REMARK    2  A    between atoms: C_7  and  C_12
REMARK    3  A    between atoms: C_10  and  C_13
REMARK    4  A    between atoms: C_12  and  C_14
REMARK    5  A    between atoms: C_21  and  C_22
REMARK    6  A    between atoms: C_23  and  C_24
REMARK    7  A    between atoms: C_23  and  C_29
REMARK    8  A    between atoms: C_23  and  C_30
REMARK    9  A    between atoms: C_23  and  C_31
REMARK                            x       y       z     vdW  Elec       q    Type
REMARK                         _______ _______ _______ _____ _____    ______ ____
ROOT
ATOM      3  N   UNL     1      14.294   7.989  16.443  0.00  0.00    -0.316 NA
ATOM      6  C   UNL     1      13.603   8.426  19.279  0.00  0.00    +0.004 C 
ATOM      7  C   UNL     1      14.855   7.632  18.836  0.00  0.00    +0.012 C 
ATOM      8  C   UNL     1      13.201   9.396  18.156  0.00  0.00    +0.019 C 
ATOM      9  C   UNL     1      14.661   6.992  17.451  0.00  0.00    +0.085 C 
ATOM     11  C   UNL     1      13.067   8.697  16.803  0.00  0.00    +0.081 C 
ATOM     32  H   UNL     1      14.166   7.528  15.544  0.00  0.00    +0.122 HD
ENDROOT
BRANCH   6  10
ATOM     10  C   UNL     1      12.418   7.545  19.691  0.00  0.00    +0.100 C 
BRANCH  10  13
ATOM      1  O   UNL     1      10.235   8.453  19.839  0.00  0.00    -0.276 OA
ATOM      4  N   UNL     1      11.719   9.043  21.526  0.00  0.00    -0.301 N 
ATOM     13  C   UNL     1      11.355   8.384  20.352  0.00  0.00    +0.216 C 
ATOM     15  C   UNL     1      10.743   9.880  22.226  0.00  0.00    +0.108 C 
ATOM     16  C   UNL     1      13.029   8.945  22.183  0.00  0.00    +0.108 C 
ATOM     17  C   UNL     1      11.293  11.284  22.457  0.00  0.00    +0.019 C 
ATOM     18  C   UNL     1      13.624  10.332  22.416  0.00  0.00    +0.019 C 
ATOM     19  C   UNL     1      12.647  11.238  23.164  0.00  0.00    +0.003 C 
ENDBRANCH  10  13
ENDBRANCH   6  10
BRANCH   7  12
ATOM     12  C   UNL     1      15.289   6.578  19.857  0.00  0.00    +0.064 C 
BRANCH  12  14
ATOM      2  O   UNL     1      18.539   7.579  21.040  0.00  0.00    -0.354 OA
ATOM      5  N   UNL     1      17.168   7.764  20.907  0.00  0.00    -0.083 NA
ATOM     14  C   UNL     1      16.744   6.714  20.198  0.00  0.00    +0.085 A 
ATOM     20  C   UNL     1      17.793   5.842  19.858  0.00  0.00    +0.076 A 
ATOM     21  C   UNL     1      18.900   6.431  20.411  0.00  0.00    +0.167 A 
BRANCH  21  22
ATOM     22  C   UNL     1      20.295   6.106  20.464  0.00  0.00    +0.020 A 
ATOM     24  C   UNL     1      23.011   5.476  20.568  0.00  0.00    -0.042 A 
ATOM     25  C   UNL     1      21.248   7.126  20.489  0.00  0.00    +0.012 A 
ATOM     26  C   UNL     1      20.700   4.772  20.492  0.00  0.00    +0.012 A 
ATOM     27  C   UNL     1      22.606   6.810  20.540  0.00  0.00    +0.005 A 
ATOM     28  C   UNL     1      22.058   4.457  20.544  0.00  0.00    +0.005 A 
BRANCH  24  23
ATOM     23  C   UNL     1      24.462   5.138  20.623  0.00  0.00    -0.013 C 
ATOM     29  C   UNL     1      24.793   3.914  19.714  0.00  0.00    +0.015 C 
ATOM     30  C   UNL     1      25.340   6.335  20.140  0.00  0.00    +0.015 C 
ATOM     31  C   UNL     1      25.011   4.765  22.040  0.00  0.00    +0.015 C 
ENDBRANCH  24  23
ENDBRANCH  21  22
ENDBRANCH  12  14
ENDBRANCH   7  12
TORSDOF 6
ENDMDL
MODEL 5
REMARK VINA RESULT:      -7.2      2.511      3.945
REMARK  Name = 26743312
REMARK  9 active torsions:
REMARK  status: ('A' for Active; 'I' for Inactive)
REMARK    1  A    between atoms: C_6  and  C_10
REMARK    2  A    between atoms: C_7  and  C_12
REMARK    3  A    between atoms: C_10  and  C_13
REMARK    4  A    between atoms: C_12  and  C_14
REMARK    5  A    between atoms: C_21  and  C_22
REMARK    6  A    between atoms: C_23  and  C_24
REMARK    7  A    between atoms: C_23  and  C_29
REMARK    8  A    between atoms: C_23  and  C_30
REMARK    9  A    between atoms: C_23  and  C_31
REMARK                            x       y       z     vdW  Elec       q    Type
REMARK                         _______ _______ _______ _____ _____    ______ ____
ROOT
ATOM      3  N   UNL     1      11.439   9.220  23.045  0.00  0.00    -0.316 NA
ATOM      6  C   UNL     1      11.950  11.355  21.073  0.00  0.00    +0.004 C 
ATOM      7  C   UNL     1      11.777   9.870  20.672  0.00  0.00    +0.012 C 
ATOM      8  C   UNL     1      11.236  11.600  22.412  0.00  0.00    +0.019 C 
ATOM      9  C   UNL     1      12.177   8.922  21.816  0.00  0.00    +0.085 C 
ATOM     11  C   UNL     1      11.653  10.596  23.487  0.00  0.00    +0.081 C 
ATOM     32  H   UNL     1      11.736   8.579  23.780  0.00  0.00    +0.122 HD
ENDROOT
BRANCH   6  10
ATOM     10  C   UNL     1      13.411  11.816  21.140  0.00  0.00    +0.100 C 
BRANCH  10  13
ATOM      1  O   UNL     1      12.798  13.132  19.268  0.00  0.00    -0.276 OA
ATOM      4  N   UNL     1      15.064  13.036  19.768  0.00  0.00    -0.301 N 
ATOM     13  C   UNL     1      13.722  12.720  19.974  0.00  0.00    +0.216 C 
ATOM     15  C   UNL     1      15.447  13.906  18.656  0.00  0.00    +0.108 C 
ATOM     16  C   UNL     1      16.180  12.597  20.618  0.00  0.00    +0.108 C 
ATOM     17  C   UNL     1      16.510  13.244  17.784  0.00  0.00    +0.019 C 
ATOM     18  C   UNL     1      17.259  11.910  19.784  0.00  0.00    +0.019 C 
ATOM     19  C   UNL     1      17.706  12.792  18.619  0.00  0.00    +0.003 C 
ENDBRANCH  10  13
ENDBRANCH   6  10
BRANCH   7  12
ATOM     12  C   UNL     1      12.523   9.504  19.388  0.00  0.00    +0.064 C 
BRANCH  12  14
ATOM      2  O   UNL     1      14.634   6.649  19.977  0.00  0.00    -0.354 OA
ATOM      5  N   UNL     1      13.402   7.232  19.710  0.00  0.00    -0.083 NA
ATOM     14  C   UNL     1      13.644   8.545  19.661  0.00  0.00    +0.085 A 
ATOM     20  C   UNL     1      14.999   8.846  19.886  0.00  0.00    +0.076 A 
ATOM     21  C   UNL     1      15.578   7.620  20.080  0.00  0.00    +0.167 A 
BRANCH  21  22
ATOM     22  C   UNL     1      16.909   7.165  20.355  0.00  0.00    +0.020 A 
ATOM     24  C   UNL     1      19.500   6.281  20.892  0.00  0.00    -0.042 A 
ATOM     25  C   UNL     1      17.661   7.776  21.360  0.00  0.00    +0.012 A 
ATOM     26  C   UNL     1      17.453   6.112  19.619  0.00  0.00    +0.012 A 
ATOM     27  C   UNL     1      18.957   7.334  21.628  0.00  0.00    +0.005 A 
ATOM     28  C   UNL     1      18.749   5.670  19.889  0.00  0.00    +0.005 A 
BRANCH  24  23
ATOM     23  C   UNL     1      20.885   5.809  21.179  0.00  0.00    -0.013 C 
ATOM     29  C   UNL     1      21.944   6.664  20.417  0.00  0.00    +0.015 C 
ATOM     30  C   UNL     1      21.212   5.904  22.702  0.00  0.00    +0.015 C 
ATOM     31  C   UNL     1      21.185   4.325  20.782  0.00  0.00    +0.015 C 
ENDBRANCH  24  23
ENDBRANCH  21  22
ENDBRANCH  12  14
ENDBRANCH   7  12
TORSDOF 6
ENDMDL
MODEL 6
REMARK VINA RESULT:      -7.2     28.742     31.323
REMARK  Name = 26743312
REMARK  9 active torsions:
REMARK  status: ('A' for Active; 'I' for Inactive)
REMARK    1  A    between atoms: C_6  and  C_10
REMARK    2  A    between atoms: C_7  and  C_12
REMARK    3  A    between atoms: C_10  and  C_13
REMARK    4  A    between atoms: C_12  and  C_14
REMARK    5  A    between atoms: C_21  and  C_22
REMARK    6  A    between atoms: C_23  and  C_24
REMARK    7  A    between atoms: C_23  and  C_29
REMARK    8  A    between atoms: C_23  and  C_30
REMARK    9  A    between atoms: C_23  and  C_31
REMARK                            x       y       z     vdW  Elec       q    Type
REMARK                         _______ _______ _______ _____ _____    ______ ____
ROOT
ATOM      3  N   UNL     1     -13.498  10.894  31.085  0.00  0.00    -0.316 NA
ATOM      6  C   UNL     1     -11.340   9.754  32.744  0.00  0.00    +0.004 C 
ATOM      7  C   UNL     1     -12.786   9.202  32.757  0.00  0.00    +0.012 C 
ATOM      8  C   UNL     1     -11.086  10.463  31.404  0.00  0.00    +0.019 C 
ATOM      9  C   UNL     1     -13.811  10.284  32.378  0.00  0.00    +0.085 C 
ATOM     11  C   UNL     1     -12.165  11.494  31.076  0.00  0.00    +0.081 C 
ATOM     32  H   UNL     1     -14.191  11.610  30.873  0.00  0.00    +0.122 HD
ENDROOT
BRANCH   6  10
ATOM     10  C   UNL     1     -11.015  10.680  33.922  0.00  0.00    +0.100 C 
BRANCH  10  13
ATOM      1  O   UNL     1      -8.657  10.454  33.899  0.00  0.00    -0.276 OA
ATOM      4  N   UNL     1      -9.746   9.747  35.825  0.00  0.00    -0.301 N 
ATOM     13  C   UNL     1      -9.697  10.287  34.540  0.00  0.00    +0.216 C 
ATOM     15  C   UNL     1      -8.509   9.338  36.492  0.00  0.00    +0.108 C 
ATOM     16  C   UNL     1     -10.964   9.576  36.629  0.00  0.00    +0.108 C 
ATOM     17  C   UNL     1      -8.597   7.890  36.967  0.00  0.00    +0.019 C 
ATOM     18  C   UNL     1     -11.099   8.133  37.109  0.00  0.00    +0.019 C 
ATOM     19  C   UNL     1      -9.836   7.667  37.832  0.00  0.00    +0.003 C 
ENDBRANCH  10  13
ENDBRANCH   6  10
BRANCH   7  12
ATOM     12  C   UNL     1     -13.165   8.545  34.086  0.00  0.00    +0.064 C 
BRANCH  12  14
ATOM      2  O   UNL     1     -14.058   5.076  34.444  0.00  0.00    -0.354 OA
ATOM      5  N   UNL     1     -13.793   6.337  34.964  0.00  0.00    -0.083 NA
ATOM     14  C   UNL     1     -13.507   7.096  33.901  0.00  0.00    +0.085 A 
ATOM     20  C   UNL     1     -13.576   6.374  32.697  0.00  0.00    +0.076 A 
ATOM     21  C   UNL     1     -13.925   5.110  33.094  0.00  0.00    +0.167 A 
BRANCH  21  22
ATOM     22  C   UNL     1     -14.170   3.872  32.414  0.00  0.00    +0.020 A 
ATOM     24  C   UNL     1     -14.644   1.462  31.091  0.00  0.00    -0.042 A 
ATOM     25  C   UNL     1     -14.023   3.796  31.028  0.00  0.00    +0.012 A 
ATOM     26  C   UNL     1     -14.554   2.743  33.138  0.00  0.00    +0.012 A 
ATOM     27  C   UNL     1     -14.261   2.591  30.367  0.00  0.00    +0.005 A 
ATOM     28  C   UNL     1     -14.790   1.538  32.476  0.00  0.00    +0.005 A 
BRANCH  24  23
ATOM     23  C   UNL     1     -14.898   0.174  30.384  0.00  0.00    -0.013 C 
ATOM     29  C   UNL     1     -13.593  -0.382  29.736  0.00  0.00    +0.015 C 
ATOM     30  C   UNL     1     -15.436  -0.914  31.366  0.00  0.00    +0.015 C 
ATOM     31  C   UNL     1     -15.945   0.239  29.223  0.00  0.00    +0.015 C 
ENDBRANCH  24  23
ENDBRANCH  21  22
ENDBRANCH  12  14
ENDBRANCH   7  12
TORSDOF 6
ENDMDL
MODEL 7
REMARK VINA RESULT:      -7.2     27.216     30.545
REMARK  Name = 26743312
REMARK  9 active torsions:
REMARK  status: ('A' for Active; 'I' for Inactive)
REMARK    1  A    between atoms: C_6  and  C_10
REMARK    2  A    between atoms: C_7  and  C_12
REMARK    3  A    between atoms: C_10  and  C_13
REMARK    4  A    between atoms: C_12  and  C_14
REMARK    5  A    between atoms: C_21  and  C_22
REMARK    6  A    between atoms: C_23  and  C_24
REMARK    7  A    between atoms: C_23  and  C_29
REMARK    8  A    between atoms: C_23  and  C_30
REMARK    9  A    between atoms: C_23  and  C_31
REMARK                            x       y       z     vdW  Elec       q    Type
REMARK                         _______ _______ _______ _____ _____    ______ ____
ROOT
ATOM      3  N   UNL     1     -14.201 -10.202  17.342  0.00  0.00    -0.316 NA
ATOM      6  C   UNL     1     -12.511  -8.439  15.686  0.00  0.00    +0.004 C 
ATOM      7  C   UNL     1     -11.979  -9.166  16.944  0.00  0.00    +0.012 C 
ATOM      8  C   UNL     1     -13.716  -9.214  15.129  0.00  0.00    +0.019 C 
ATOM      9  C   UNL     1     -13.104  -9.450  17.954  0.00  0.00    +0.085 C 
ATOM     11  C   UNL     1     -14.773  -9.495  16.198  0.00  0.00    +0.081 C 
ATOM     32  H   UNL     1     -14.928 -10.363  18.037  0.00  0.00    +0.122 HD
ENDROOT
BRANCH   6  10
ATOM     10  C   UNL     1     -12.870  -6.966  15.921  0.00  0.00    +0.100 C 
BRANCH  10  13
ATOM      1  O   UNL     1     -10.924  -5.818  15.210  0.00  0.00    -0.276 OA
ATOM      4  N   UNL     1     -12.794  -5.629  13.846  0.00  0.00    -0.301 N 
ATOM     13  C   UNL     1     -12.102  -6.088  14.966  0.00  0.00    +0.216 C 
ATOM     15  C   UNL     1     -12.119  -4.770  12.872  0.00  0.00    +0.108 C 
ATOM     16  C   UNL     1     -14.183  -5.970  13.506  0.00  0.00    +0.108 C 
ATOM     17  C   UNL     1     -12.907  -3.484  12.639  0.00  0.00    +0.019 C 
ATOM     18  C   UNL     1     -15.011  -4.706  13.283  0.00  0.00    +0.019 C 
ATOM     19  C   UNL     1     -14.355  -3.785  12.256  0.00  0.00    +0.003 C 
ENDBRANCH  10  13
ENDBRANCH   6  10
BRANCH   7  12
ATOM     12  C   UNL     1     -10.824  -8.426  17.621  0.00  0.00    +0.064 C 
BRANCH  12  14
ATOM      2  O   UNL     1      -8.012 -10.671  17.734  0.00  0.00    -0.354 OA
ATOM      5  N   UNL     1      -9.276 -10.262  18.143  0.00  0.00    -0.083 NA
ATOM     14  C   UNL     1      -9.525  -9.155  17.438  0.00  0.00    +0.085 A 
ATOM     20  C   UNL     1      -8.466  -8.820  16.577  0.00  0.00    +0.076 A 
ATOM     21  C   UNL     1      -7.540  -9.805  16.802  0.00  0.00    +0.167 A 
BRANCH  21  22
ATOM     22  C   UNL     1      -6.236 -10.101  16.284  0.00  0.00    +0.020 A 
ATOM     24  C   UNL     1      -3.699 -10.678  15.277  0.00  0.00    -0.042 A 
ATOM     25  C   UNL     1      -5.167 -10.301  17.159  0.00  0.00    +0.012 A 
ATOM     26  C   UNL     1      -6.036 -10.189  14.906  0.00  0.00    +0.012 A 
ATOM     27  C   UNL     1      -3.898 -10.589  16.655  0.00  0.00    +0.005 A 
ATOM     28  C   UNL     1      -4.767 -10.478  14.403  0.00  0.00    +0.005 A 
BRANCH  24  23
ATOM     23  C   UNL     1      -2.343 -10.986  14.739  0.00  0.00    -0.013 C 
ATOM     29  C   UNL     1      -2.104 -10.278  13.369  0.00  0.00    +0.015 C 
ATOM     30  C   UNL     1      -1.224 -10.507  15.716  0.00  0.00    +0.015 C 
ATOM     31  C   UNL     1      -2.050 -12.501  14.481  0.00  0.00    +0.015 C 
ENDBRANCH  24  23
ENDBRANCH  21  22
ENDBRANCH  12  14
ENDBRANCH   7  12
TORSDOF 6
ENDMDL
MODEL 8
REMARK VINA RESULT:      -7.1     27.638     30.101
REMARK  Name = 26743312
REMARK  9 active torsions:
REMARK  status: ('A' for Active; 'I' for Inactive)
REMARK    1  A    between atoms: C_6  and  C_10
REMARK    2  A    between atoms: C_7  and  C_12
REMARK    3  A    between atoms: C_10  and  C_13
REMARK    4  A    between atoms: C_12  and  C_14
REMARK    5  A    between atoms: C_21  and  C_22
REMARK    6  A    between atoms: C_23  and  C_24
REMARK    7  A    between atoms: C_23  and  C_29
REMARK    8  A    between atoms: C_23  and  C_30
REMARK    9  A    between atoms: C_23  and  C_31
REMARK                            x       y       z     vdW  Elec       q    Type
REMARK                         _______ _______ _______ _____ _____    ______ ____
ROOT
ATOM      3  N   UNL     1      -1.898 -14.955  13.676  0.00  0.00    -0.316 NA
ATOM      6  C   UNL     1      -3.697 -12.644  14.040  0.00  0.00    +0.004 C 
ATOM      7  C   UNL     1      -2.478 -12.613  13.087  0.00  0.00    +0.012 C 
ATOM      8  C   UNL     1      -4.151 -14.101  14.227  0.00  0.00    +0.019 C 
ATOM      9  C   UNL     1      -1.381 -13.592  13.537  0.00  0.00    +0.085 C 
ATOM     11  C   UNL     1      -3.000 -15.022  14.633  0.00  0.00    +0.081 C 
ATOM     32  H   UNL     1      -1.147 -15.571  13.982  0.00  0.00    +0.122 HD
ENDROOT
BRANCH   6  10
ATOM     10  C   UNL     1      -3.448 -11.971  15.395  0.00  0.00    +0.100 C 
BRANCH  10  13
ATOM      1  O   UNL     1      -5.058 -10.261  15.083  0.00  0.00    -0.276 OA
ATOM      4  N   UNL     1      -5.263 -11.538  17.013  0.00  0.00    -0.301 N 
ATOM     13  C   UNL     1      -4.660 -11.177  15.809  0.00  0.00    +0.216 C 
ATOM     15  C   UNL     1      -6.444 -10.813  17.485  0.00  0.00    +0.108 C 
ATOM     16  C   UNL     1      -4.839 -12.650  17.876  0.00  0.00    +0.108 C 
ATOM     17  C   UNL     1      -6.236 -10.294  18.905  0.00  0.00    +0.019 C 
ATOM     18  C   UNL     1      -4.601 -12.167  19.305  0.00  0.00    +0.019 C 
ATOM     19  C   UNL     1      -5.819 -11.420  19.849  0.00  0.00    +0.003 C 
ENDBRANCH  10  13
ENDBRANCH   6  10
BRANCH   7  12
ATOM     12  C   UNL     1      -1.900 -11.209  12.900  0.00  0.00    +0.064 C 
BRANCH  12  14
ATOM      2  O   UNL     1      -2.808  -9.094  10.132  0.00  0.00    -0.354 OA
ATOM      5  N   UNL     1      -1.909  -9.547  11.089  0.00  0.00    -0.083 NA
ATOM     14  C   UNL     1      -2.572 -10.487  11.769  0.00  0.00    +0.085 A 
ATOM     20  C   UNL     1      -3.881 -10.669  11.289  0.00  0.00    +0.076 A 
ATOM     21  C   UNL     1      -3.979  -9.769  10.261  0.00  0.00    +0.167 A 
BRANCH  21  22
ATOM     22  C   UNL     1      -5.011  -9.406   9.334  0.00  0.00    +0.020 A 
ATOM     24  C   UNL     1      -7.017  -8.698   7.529  0.00  0.00    -0.042 A 
ATOM     25  C   UNL     1      -6.027  -8.533   9.727  0.00  0.00    +0.012 A 
ATOM     26  C   UNL     1      -4.998  -9.923   8.038  0.00  0.00    +0.012 A 
ATOM     27  C   UNL     1      -7.030  -8.180   8.824  0.00  0.00    +0.005 A 
ATOM     28  C   UNL     1      -6.001  -9.569   7.136  0.00  0.00    +0.005 A 
BRANCH  24  23
ATOM     23  C   UNL     1      -8.090  -8.320   6.565  0.00  0.00    -0.013 C 
ATOM     29  C   UNL     1      -9.259  -9.352   6.587  0.00  0.00    +0.015 C 
ATOM     30  C   UNL     1      -8.692  -6.921   6.908  0.00  0.00    +0.015 C 
ATOM     31  C   UNL     1      -7.645  -8.226   5.068  0.00  0.00    +0.015 C 
ENDBRANCH  24  23
ENDBRANCH  21  22
ENDBRANCH  12  14
ENDBRANCH   7  12
TORSDOF 6
ENDMDL
MODEL 9
REMARK VINA RESULT:      -7.1     27.300     30.704
REMARK  Name = 26743312
REMARK  9 active torsions:
REMARK  status: ('A' for Active; 'I' for Inactive)
REMARK    1  A    between atoms: C_6  and  C_10
REMARK    2  A    between atoms: C_7  and  C_12
REMARK    3  A    between atoms: C_10  and  C_13
REMARK    4  A    between atoms: C_12  and  C_14
REMARK    5  A    between atoms: C_21  and  C_22
REMARK    6  A    between atoms: C_23  and  C_24
REMARK    7  A    between atoms: C_23  and  C_29
REMARK    8  A    between atoms: C_23  and  C_30
REMARK    9  A    between atoms: C_23  and  C_31
REMARK                            x       y       z     vdW  Elec       q    Type
REMARK                         _______ _______ _______ _____ _____    ______ ____
ROOT
ATOM      3  N   UNL     1      -5.801 -13.806  15.561  0.00  0.00    -0.316 NA
ATOM      6  C   UNL     1      -3.581 -11.875  15.793  0.00  0.00    +0.004 C 
ATOM      7  C   UNL     1      -4.639 -12.071  16.906  0.00  0.00    +0.012 C 
ATOM      8  C   UNL     1      -3.496 -13.157  14.950  0.00  0.00    +0.019 C 
ATOM      9  C   UNL     1      -5.975 -12.577  16.337  0.00  0.00    +0.085 C 
ATOM     11  C   UNL     1      -4.865 -13.621  14.454  0.00  0.00    +0.081 C 
ATOM     32  H   UNL     1      -6.703 -14.105  15.194  0.00  0.00    +0.122 HD
ENDROOT
BRANCH   6  10
ATOM     10  C   UNL     1      -3.832 -10.651  14.903  0.00  0.00    +0.100 C 
BRANCH  10  13
ATOM      1  O   UNL     1      -1.541 -10.248  14.454  0.00  0.00    -0.276 OA
ATOM      4  N   UNL     1      -2.934 -10.471  12.608  0.00  0.00    -0.301 N 
ATOM     13  C   UNL     1      -2.662 -10.439  13.976  0.00  0.00    +0.216 C 
ATOM     15  C   UNL     1      -1.852 -10.270  11.644  0.00  0.00    +0.108 C 
ATOM     16  C   UNL     1      -4.250 -10.739  12.010  0.00  0.00    +0.108 C 
ATOM     17  C   UNL     1      -2.194  -9.152  10.663  0.00  0.00    +0.019 C 
ATOM     18  C   UNL     1      -4.637  -9.630  11.035  0.00  0.00    +0.019 C 
ATOM     19  C   UNL     1      -3.544  -9.398   9.993  0.00  0.00    +0.003 C 
ENDBRANCH  10  13
ENDBRANCH   6  10
BRANCH   7  12
ATOM     12  C   UNL     1      -4.858 -10.817  17.753  0.00  0.00    +0.064 C 
BRANCH  12  14
ATOM      2  O   UNL     1      -8.333  -9.986  18.195  0.00  0.00    -0.354 OA
ATOM      5  N   UNL     1      -7.148 -10.580  18.613  0.00  0.00    -0.083 NA
ATOM     14  C   UNL     1      -6.269 -10.320  17.641  0.00  0.00    +0.085 A 
ATOM     20  C   UNL     1      -6.837  -9.572  16.594  0.00  0.00    +0.076 A 
ATOM     21  C   UNL     1      -8.136  -9.389  16.991  0.00  0.00    +0.167 A 
BRANCH  21  22
ATOM     22  C   UNL     1      -9.279  -8.730  16.431  0.00  0.00    +0.020 A 
ATOM     24  C   UNL     1     -11.504  -7.449  15.338  0.00  0.00    -0.042 A 
ATOM     25  C   UNL     1      -9.691  -9.033  15.132  0.00  0.00    +0.012 A 
ATOM     26  C   UNL     1      -9.979  -7.788  17.183  0.00  0.00    +0.012 A 
ATOM     27  C   UNL     1     -10.803  -8.392  14.586  0.00  0.00    +0.005 A 
ATOM     28  C   UNL     1     -11.092  -7.148  16.637  0.00  0.00    +0.005 A 
BRANCH  24  23
ATOM     23  C   UNL     1     -12.692  -6.764  14.755  0.00  0.00    -0.013 C 
ATOM     29  C   UNL     1     -13.274  -7.568  13.551  0.00  0.00    +0.015 C 
ATOM     30  C   UNL     1     -13.831  -6.610  15.811  0.00  0.00    +0.015 C 
ATOM     31  C   UNL     1     -12.435  -5.321  14.207  0.00  0.00    +0.015 C 
ENDBRANCH  24  23
ENDBRANCH  21  22
ENDBRANCH  12  14
ENDBRANCH   7  12
TORSDOF 6
ENDMDL
MODEL 10
REMARK VINA RESULT:      -7.0     27.109     30.417
REMARK  Name = 26743312
REMARK  9 active torsions:
REMARK  status: ('A' for Active; 'I' for Inactive)
REMARK    1  A    between atoms: C_6  and  C_10
REMARK    2  A    between atoms: C_7  and  C_12
REMARK    3  A    between atoms: C_10  and  C_13
REMARK    4  A    between atoms: C_12  and  C_14
REMARK    5  A    between atoms: C_21  and  C_22
REMARK    6  A    between atoms: C_23  and  C_24
REMARK    7  A    between atoms: C_23  and  C_29
REMARK    8  A    between atoms: C_23  and  C_30
REMARK    9  A    between atoms: C_23  and  C_31
REMARK                            x       y       z     vdW  Elec       q    Type
REMARK                         _______ _______ _______ _____ _____    ______ ____
ROOT
ATOM      3  N   UNL     1      18.345 -16.748  -2.051  0.00  0.00    -0.316 NA
ATOM      6  C   UNL     1      16.862 -14.568  -0.725  0.00  0.00    +0.004 C 
ATOM      7  C   UNL     1      18.258 -14.363  -1.362  0.00  0.00    +0.012 C 
ATOM      8  C   UNL     1      16.173 -15.765  -1.399  0.00  0.00    +0.019 C 
ATOM      9  C   UNL     1      19.071 -15.669  -1.379  0.00  0.00    +0.085 C 
ATOM     11  C   UNL     1      17.056 -17.013  -1.415  0.00  0.00    +0.081 C 
ATOM     32  H   UNL     1      18.910 -17.596  -2.035  0.00  0.00    +0.122 HD
ENDROOT
BRANCH   6  10
ATOM     10  C   UNL     1      16.890 -14.741   0.799  0.00  0.00    +0.100 C 
BRANCH  10  13
ATOM      1  O   UNL     1      15.567 -12.776   0.765  0.00  0.00    -0.276 OA
ATOM      4  N   UNL     1      15.852 -13.797   2.832  0.00  0.00    -0.301 N 
ATOM     13  C   UNL     1      16.043 -13.681   1.455  0.00  0.00    +0.216 C 
ATOM     15  C   UNL     1      15.044 -12.806   3.543  0.00  0.00    +0.108 C 
ATOM     16  C   UNL     1      16.370 -14.886   3.672  0.00  0.00    +0.108 C 
ATOM     17  C   UNL     1      15.817 -12.209   4.715  0.00  0.00    +0.019 C 
ATOM     18  C   UNL     1      17.168 -14.329   4.849  0.00  0.00    +0.019 C 
ATOM     19  C   UNL     1      16.355 -13.302   5.636  0.00  0.00    +0.003 C 
ENDBRANCH  10  13
ENDBRANCH   6  10
BRANCH   7  12
ATOM     12  C   UNL     1      19.059 -13.240  -0.701  0.00  0.00    +0.064 C 
BRANCH  12  14
ATOM      2  O   UNL     1      19.325 -10.276  -2.727  0.00  0.00    -0.354 OA
ATOM      5  N   UNL     1      19.818 -11.481  -2.241  0.00  0.00    -0.083 NA
ATOM     14  C   UNL     1      18.868 -11.937  -1.419  0.00  0.00    +0.085 A 
ATOM     20  C   UNL     1      17.763 -11.070  -1.349  0.00  0.00    +0.076 A 
ATOM     21  C   UNL     1      18.101 -10.042  -2.189  0.00  0.00    +0.167 A 
BRANCH  21  22
ATOM     22  C   UNL     1      17.464  -8.826  -2.602  0.00  0.00    +0.020 A 
ATOM     24  C   UNL     1      16.225  -6.459  -3.407  0.00  0.00    -0.042 A 
ATOM     25  C   UNL     1      18.143  -7.611  -2.496  0.00  0.00    +0.012 A 
ATOM     26  C   UNL     1      16.165  -8.856  -3.111  0.00  0.00    +0.012 A 
ATOM     27  C   UNL     1      17.524  -6.428  -2.898  0.00  0.00    +0.005 A 
ATOM     28  C   UNL     1      15.547  -7.672  -3.513  0.00  0.00    +0.005 A 
BRANCH  24  23
ATOM     23  C   UNL     1      15.563  -5.194  -3.836  0.00  0.00    -0.013 C 
ATOM     29  C   UNL     1      16.196  -3.956  -3.129  0.00  0.00    +0.015 C 
ATOM     30  C   UNL     1      15.701  -4.977  -5.376  0.00  0.00    +0.015 C 
ATOM     31  C   UNL     1      14.029  -5.104  -3.539  0.00  0.00    +0.015 C 
ENDBRANCH  24  23
ENDBRANCH  21  22
ENDBRANCH  12  14
ENDBRANCH   7  12
TORSDOF 6
ENDMDL
