MODEL 1
REMARK VINA RESULT:      -7.1      0.000      0.000
REMARK  Name = 26745437
REMARK  7 active torsions:
REMARK  status: ('A' for Active; 'I' for Inactive)
REMARK    1  A    between atoms: O_4  and  C_23
REMARK    2  A    between atoms: N_5  and  C_14
REMARK    3  A    between atoms: N_8  and  C_18
REMARK    4  A    between atoms: C_9  and  C_15
REMARK    5  A    between atoms: C_14  and  C_16
REMARK    6  A    between atoms: C_18  and  C_22
REMARK    7  A    between atoms: C_20  and  C_23
REMARK                            x       y       z     vdW  Elec       q    Type
REMARK                         _______ _______ _______ _____ _____    ______ ____
ROOT
ATOM      5  N   UNL     1      13.677   9.814  19.083  0.00  0.00    -0.278 NA
ATOM      6  N   UNL     1      11.848   9.864  15.833  0.00  0.00    -0.347 N 
ATOM      7  N   UNL     1      10.689   8.162  16.705  0.00  0.00    -0.240 NA
ATOM      9  C   UNL     1      13.419   8.378  19.360  0.00  0.00    +0.150 C 
ATOM     10  C   UNL     1      12.031   7.898  18.844  0.00  0.00    +0.085 C 
ATOM     11  C   UNL     1      13.623  10.190  17.651  0.00  0.00    +0.140 C 
ATOM     12  C   UNL     1      12.438   9.565  17.023  0.00  0.00    +0.053 A 
ATOM     13  C   UNL     1      11.713   8.517  17.535  0.00  0.00    +0.065 A 
ATOM     17  C   UNL     1      10.798   8.992  15.686  0.00  0.00    +0.197 A 
ATOM     29  H   UNL     1      12.127  10.585  15.180  0.00  0.00    +0.167 HD
ENDROOT
BRANCH   9  15
ATOM      3  O   UNL     1      14.591   7.317  17.566  0.00  0.00    -0.274 OA
ATOM      8  N   UNL     1      15.366   7.031  19.743  0.00  0.00    -0.310 N 
ATOM     15  C   UNL     1      14.513   7.530  18.773  0.00  0.00    +0.231 C 
ATOM     30  H   UNL     1      15.227   7.285  20.716  0.00  0.00    +0.149 HD
BRANCH   8  18
ATOM     18  C   UNL     1      16.487   6.170  19.442  0.00  0.00    +0.139 C 
BRANCH  18  22
ATOM      1 CL   UNL     1      21.392   7.692  22.568  0.00  0.00    -0.084 Cl
ATOM     22  C   UNL     1      17.712   6.550  20.223  0.00  0.00    -0.030 A 
ATOM     24  C   UNL     1      18.872   5.782  20.118  0.00  0.00    +0.006 A 
ATOM     25  C   UNL     1      17.689   7.670  21.055  0.00  0.00    +0.006 A 
ATOM     26  C   UNL     1      20.010   6.135  20.844  0.00  0.00    +0.020 A 
ATOM     27  C   UNL     1      18.827   8.023  21.780  0.00  0.00    +0.020 A 
ATOM     28  C   UNL     1      19.987   7.255  21.676  0.00  0.00    +0.041 A 
ENDBRANCH  18  22
ENDBRANCH   8  18
ENDBRANCH   9  15
BRANCH   5  14
ATOM     14  C   UNL     1      14.890  10.317  19.720  0.00  0.00    +0.160 C 
BRANCH  14  16
ATOM      2  O   UNL     1      13.450  10.989  21.560  0.00  0.00    -0.461 OA
ATOM     16  C   UNL     1      14.690  10.573  21.186  0.00  0.00    +0.119 A 
ATOM     19  C   UNL     1      15.517  10.478  22.280  0.00  0.00    +0.046 A 
ATOM     20  C   UNL     1      13.488  11.160  22.907  0.00  0.00    +0.131 A 
ATOM     21  C   UNL     1      14.738  10.858  23.398  0.00  0.00    +0.047 A 
BRANCH  20  23
ATOM     23  C   UNL     1      12.242  11.612  23.540  0.00  0.00    +0.230 C 
BRANCH  23   4
ATOM      4  O   UNL     1      11.601  10.522  24.207  0.00  0.00    -0.387 OA
ATOM     31  H   UNL     1      12.183   9.750  24.110  0.00  0.00    +0.210 HD
ENDBRANCH  23   4
ENDBRANCH  20  23
ENDBRANCH  14  16
ENDBRANCH   5  14
TORSDOF 7
ENDMDL
MODEL 2
REMARK VINA RESULT:      -6.4     15.700     20.210
REMARK  Name = 26745437
REMARK  7 active torsions:
REMARK  status: ('A' for Active; 'I' for Inactive)
REMARK    1  A    between atoms: O_4  and  C_23
REMARK    2  A    between atoms: N_5  and  C_14
REMARK    3  A    between atoms: N_8  and  C_18
REMARK    4  A    between atoms: C_9  and  C_15
REMARK    5  A    between atoms: C_14  and  C_16
REMARK    6  A    between atoms: C_18  and  C_22
REMARK    7  A    between atoms: C_20  and  C_23
REMARK                            x       y       z     vdW  Elec       q    Type
REMARK                         _______ _______ _______ _____ _____    ______ ____
ROOT
ATOM      5  N   UNL     1      11.155   4.771   0.373  0.00  0.00    -0.278 NA
ATOM      6  N   UNL     1      14.871   4.742   0.060  0.00  0.00    -0.347 N 
ATOM      7  N   UNL     1      14.778   3.178   1.657  0.00  0.00    -0.240 NA
ATOM      9  C   UNL     1      11.135   4.301   1.781  0.00  0.00    +0.150 C 
ATOM     10  C   UNL     1      12.281   3.301   2.106  0.00  0.00    +0.085 C 
ATOM     11  C   UNL     1      12.409   5.443  -0.041  0.00  0.00    +0.140 C 
ATOM     12  C   UNL     1      13.568   4.661   0.446  0.00  0.00    +0.053 A 
ATOM     13  C   UNL     1      13.537   3.701   1.427  0.00  0.00    +0.065 A 
ATOM     17  C   UNL     1      15.561   3.828   0.818  0.00  0.00    +0.197 A 
ATOM     29  H   UNL     1      15.261   5.355  -0.644  0.00  0.00    +0.167 HD
ENDROOT
BRANCH   9  15
ATOM      3  O   UNL     1      12.196   6.162   2.845  0.00  0.00    -0.274 OA
ATOM      8  N   UNL     1       9.998   5.645   3.410  0.00  0.00    -0.310 N 
ATOM     15  C   UNL     1      11.186   5.474   2.721  0.00  0.00    +0.231 C 
ATOM     30  H   UNL     1       9.211   5.033   3.219  0.00  0.00    +0.149 HD
BRANCH   8  18
ATOM     18  C   UNL     1       9.795   6.688   4.390  0.00  0.00    +0.139 C 
BRANCH  18  22
ATOM      1 CL   UNL     1       9.356   4.479   9.965  0.00  0.00    -0.084 Cl
ATOM     22  C   UNL     1       9.686   6.136   5.782  0.00  0.00    -0.030 A 
ATOM     24  C   UNL     1       9.352   6.979   6.842  0.00  0.00    +0.006 A 
ATOM     25  C   UNL     1       9.920   4.781   6.016  0.00  0.00    +0.006 A 
ATOM     26  C   UNL     1       9.251   6.466   8.136  0.00  0.00    +0.020 A 
ATOM     27  C   UNL     1       9.819   4.268   7.309  0.00  0.00    +0.020 A 
ATOM     28  C   UNL     1       9.485   5.111   8.369  0.00  0.00    +0.041 A 
ENDBRANCH  18  22
ENDBRANCH   8  18
ENDBRANCH   9  15
BRANCH   5  14
ATOM     14  C   UNL     1       9.984   5.563   0.010  0.00  0.00    +0.160 C 
BRANCH  14  16
ATOM      2  O   UNL     1       9.818   4.137  -1.951  0.00  0.00    -0.461 OA
ATOM     16  C   UNL     1       9.601   5.374  -1.430  0.00  0.00    +0.119 A 
ATOM     19  C   UNL     1       9.058   6.210  -2.377  0.00  0.00    +0.046 A 
ATOM     20  C   UNL     1       9.408   4.185  -3.246  0.00  0.00    +0.131 A 
ATOM     21  C   UNL     1       8.932   5.438  -3.556  0.00  0.00    +0.047 A 
BRANCH  20  23
ATOM     23  C   UNL     1       9.550   2.943  -4.019  0.00  0.00    +0.230 C 
BRANCH  23   4
ATOM      4  O   UNL     1      10.152   3.215  -5.286  0.00  0.00    -0.387 OA
ATOM     31  H   UNL     1      10.933   2.641  -5.357  0.00  0.00    +0.210 HD
ENDBRANCH  23   4
ENDBRANCH  20  23
ENDBRANCH  14  16
ENDBRANCH   5  14
TORSDOF 7
ENDMDL
MODEL 3
REMARK VINA RESULT:      -6.4     11.507     15.497
REMARK  Name = 26745437
REMARK  7 active torsions:
REMARK  status: ('A' for Active; 'I' for Inactive)
REMARK    1  A    between atoms: O_4  and  C_23
REMARK    2  A    between atoms: N_5  and  C_14
REMARK    3  A    between atoms: N_8  and  C_18
REMARK    4  A    between atoms: C_9  and  C_15
REMARK    5  A    between atoms: C_14  and  C_16
REMARK    6  A    between atoms: C_18  and  C_22
REMARK    7  A    between atoms: C_20  and  C_23
REMARK                            x       y       z     vdW  Elec       q    Type
REMARK                         _______ _______ _______ _____ _____    ______ ____
ROOT
ATOM      5  N   UNL     1      10.136   6.742   5.468  0.00  0.00    -0.278 NA
ATOM      6  N   UNL     1      10.451   4.278   8.250  0.00  0.00    -0.347 N 
ATOM      7  N   UNL     1       8.816   5.471   9.203  0.00  0.00    -0.240 NA
ATOM      9  C   UNL     1       9.605   7.838   6.318  0.00  0.00    +0.150 C 
ATOM     10  C   UNL     1       8.697   7.326   7.474  0.00  0.00    +0.085 C 
ATOM     11  C   UNL     1      10.934   5.725   6.191  0.00  0.00    +0.140 C 
ATOM     12  C   UNL     1      10.238   5.355   7.444  0.00  0.00    +0.053 A 
ATOM     13  C   UNL     1       9.236   6.072   8.051  0.00  0.00    +0.065 A 
ATOM     17  C   UNL     1       9.569   4.392   9.297  0.00  0.00    +0.197 A 
ATOM     29  H   UNL     1      11.127   3.538   8.111  0.00  0.00    +0.167 HD
ENDROOT
BRANCH   9  15
ATOM      3  O   UNL     1      11.905   8.303   6.775  0.00  0.00    -0.274 OA
ATOM      8  N   UNL     1      10.287   9.815   7.493  0.00  0.00    -0.310 N 
ATOM     15  C   UNL     1      10.735   8.661   6.871  0.00  0.00    +0.231 C 
ATOM     30  H   UNL     1       9.295  10.032   7.500  0.00  0.00    +0.149 HD
BRANCH   8  18
ATOM     18  C   UNL     1      11.171  10.766   8.126  0.00  0.00    +0.139 C 
BRANCH  18  22
ATOM      1 CL   UNL     1       9.016  12.677  13.403  0.00  0.00    -0.084 Cl
ATOM     22  C   UNL     1      10.633  11.243   9.443  0.00  0.00    -0.030 A 
ATOM     24  C   UNL     1      11.504  11.734  10.416  0.00  0.00    +0.006 A 
ATOM     25  C   UNL     1       9.262  11.194   9.696  0.00  0.00    +0.006 A 
ATOM     26  C   UNL     1      11.003  12.177  11.641  0.00  0.00    +0.020 A 
ATOM     27  C   UNL     1       8.761  11.637  10.920  0.00  0.00    +0.020 A 
ATOM     28  C   UNL     1       9.632  12.127  11.893  0.00  0.00    +0.041 A 
ENDBRANCH  18  22
ENDBRANCH   8  18
ENDBRANCH   9  15
BRANCH   5  14
ATOM     14  C   UNL     1      10.836   7.220   4.280  0.00  0.00    +0.160 C 
BRANCH  14  16
ATOM      2  O   UNL     1      12.514   6.103   2.922  0.00  0.00    -0.461 OA
ATOM     16  C   UNL     1      11.231   6.093   3.369  0.00  0.00    +0.119 A 
ATOM     19  C   UNL     1      10.552   5.008   2.866  0.00  0.00    +0.046 A 
ATOM     20  C   UNL     1      12.656   5.012   2.125  0.00  0.00    +0.131 A 
ATOM     21  C   UNL     1      11.478   4.305   2.058  0.00  0.00    +0.047 A 
BRANCH  20  23
ATOM     23  C   UNL     1      13.982   4.816   1.521  0.00  0.00    +0.230 C 
BRANCH  23   4
ATOM      4  O   UNL     1      14.994   4.841   2.531  0.00  0.00    -0.387 OA
ATOM     31  H   UNL     1      14.559   4.629   3.373  0.00  0.00    +0.210 HD
ENDBRANCH  23   4
ENDBRANCH  20  23
ENDBRANCH  14  16
ENDBRANCH   5  14
TORSDOF 7
ENDMDL
MODEL 4
REMARK VINA RESULT:      -6.4     13.525     17.015
REMARK  Name = 26745437
REMARK  7 active torsions:
REMARK  status: ('A' for Active; 'I' for Inactive)
REMARK    1  A    between atoms: O_4  and  C_23
REMARK    2  A    between atoms: N_5  and  C_14
REMARK    3  A    between atoms: N_8  and  C_18
REMARK    4  A    between atoms: C_9  and  C_15
REMARK    5  A    between atoms: C_14  and  C_16
REMARK    6  A    between atoms: C_18  and  C_22
REMARK    7  A    between atoms: C_20  and  C_23
REMARK                            x       y       z     vdW  Elec       q    Type
REMARK                         _______ _______ _______ _____ _____    ______ ____
ROOT
ATOM      5  N   UNL     1      10.305   6.016   3.978  0.00  0.00    -0.278 NA
ATOM      6  N   UNL     1      11.257   5.775   7.577  0.00  0.00    -0.347 N 
ATOM      7  N   UNL     1       9.080   6.125   7.954  0.00  0.00    -0.240 NA
ATOM      9  C   UNL     1       9.110   6.868   4.213  0.00  0.00    +0.150 C 
ATOM     10  C   UNL     1       8.382   6.541   5.548  0.00  0.00    +0.085 C 
ATOM     11  C   UNL     1      11.340   6.093   5.036  0.00  0.00    +0.140 C 
ATOM     12  C   UNL     1      10.691   6.027   6.364  0.00  0.00    +0.053 A 
ATOM     13  C   UNL     1       9.359   6.243   6.622  0.00  0.00    +0.065 A 
ATOM     17  C   UNL     1      10.246   5.844   8.503  0.00  0.00    +0.197 A 
ATOM     29  H   UNL     1      12.231   5.578   7.764  0.00  0.00    +0.167 HD
ENDROOT
BRANCH   9  15
ATOM      3  O   UNL     1      10.389   8.735   3.440  0.00  0.00    -0.274 OA
ATOM      8  N   UNL     1       8.741   9.086   5.048  0.00  0.00    -0.310 N 
ATOM     15  C   UNL     1       9.493   8.321   4.171  0.00  0.00    +0.231 C 
ATOM     30  H   UNL     1       8.006   8.649   5.595  0.00  0.00    +0.149 HD
BRANCH   8  18
ATOM     18  C   UNL     1       8.927  10.509   5.215  0.00  0.00    +0.139 C 
BRANCH  18  22
ATOM      1 CL   UNL     1       9.767  12.002  10.978  0.00  0.00    -0.084 Cl
ATOM     22  C   UNL     1       9.137  10.882   6.654  0.00  0.00    -0.030 A 
ATOM     24  C   UNL     1       9.514   9.908   7.579  0.00  0.00    +0.006 A 
ATOM     25  C   UNL     1       8.953  12.202   7.067  0.00  0.00    +0.006 A 
ATOM     26  C   UNL     1       9.708  10.255   8.916  0.00  0.00    +0.020 A 
ATOM     27  C   UNL     1       9.147  12.549   8.404  0.00  0.00    +0.020 A 
ATOM     28  C   UNL     1       9.524  11.575   9.329  0.00  0.00    +0.041 A 
ENDBRANCH  18  22
ENDBRANCH   8  18
ENDBRANCH   9  15
BRANCH   5  14
ATOM     14  C   UNL     1      10.887   6.188   2.651  0.00  0.00    +0.160 C 
BRANCH  14  16
ATOM      2  O   UNL     1      13.020   5.260   1.948  0.00  0.00    -0.461 OA
ATOM     16  C   UNL     1      11.718   5.005   2.245  0.00  0.00    +0.119 A 
ATOM     19  C   UNL     1      11.442   3.666   2.100  0.00  0.00    +0.046 A 
ATOM     20  C   UNL     1      13.581   4.069   1.610  0.00  0.00    +0.131 A 
ATOM     21  C   UNL     1      12.651   3.057   1.688  0.00  0.00    +0.047 A 
BRANCH  20  23
ATOM     23  C   UNL     1      15.004   4.101   1.245  0.00  0.00    +0.230 C 
BRANCH  23   4
ATOM      4  O   UNL     1      15.715   3.070   1.935  0.00  0.00    -0.387 OA
ATOM     31  H   UNL     1      15.575   2.247   1.437  0.00  0.00    +0.210 HD
ENDBRANCH  23   4
ENDBRANCH  20  23
ENDBRANCH  14  16
ENDBRANCH   5  14
TORSDOF 7
ENDMDL
MODEL 5
REMARK VINA RESULT:      -6.3     14.345     19.103
REMARK  Name = 26745437
REMARK  7 active torsions:
REMARK  status: ('A' for Active; 'I' for Inactive)
REMARK    1  A    between atoms: O_4  and  C_23
REMARK    2  A    between atoms: N_5  and  C_14
REMARK    3  A    between atoms: N_8  and  C_18
REMARK    4  A    between atoms: C_9  and  C_15
REMARK    5  A    between atoms: C_14  and  C_16
REMARK    6  A    between atoms: C_18  and  C_22
REMARK    7  A    between atoms: C_20  and  C_23
REMARK                            x       y       z     vdW  Elec       q    Type
REMARK                         _______ _______ _______ _____ _____    ______ ____
ROOT
ATOM      5  N   UNL     1      10.885   5.969   4.247  0.00  0.00    -0.278 NA
ATOM      6  N   UNL     1      11.505   5.901   7.924  0.00  0.00    -0.347 N 
ATOM      7  N   UNL     1       9.339   5.361   8.062  0.00  0.00    -0.240 NA
ATOM      9  C   UNL     1       9.437   6.278   4.361  0.00  0.00    +0.150 C 
ATOM     10  C   UNL     1       8.769   5.617   5.600  0.00  0.00    +0.085 C 
ATOM     11  C   UNL     1      11.702   6.376   5.414  0.00  0.00    +0.140 C 
ATOM     12  C   UNL     1      11.005   5.987   6.661  0.00  0.00    +0.053 A 
ATOM     13  C   UNL     1       9.677   5.656   6.771  0.00  0.00    +0.065 A 
ATOM     17  C   UNL     1      10.463   5.519   8.733  0.00  0.00    +0.197 A 
ATOM     29  H   UNL     1      12.456   6.084   8.216  0.00  0.00    +0.167 HD
ENDROOT
BRANCH   9  15
ATOM      3  O   UNL     1      10.165   8.556   4.397  0.00  0.00    -0.274 OA
ATOM      8  N   UNL     1       7.881   8.103   4.421  0.00  0.00    -0.310 N 
ATOM     15  C   UNL     1       9.224   7.767   4.387  0.00  0.00    +0.231 C 
ATOM     30  H   UNL     1       7.177   7.373   4.388  0.00  0.00    +0.149 HD
BRANCH   8  18
ATOM     18  C   UNL     1       7.409   9.468   4.473  0.00  0.00    +0.139 C 
BRANCH  18  22
ATOM      1 CL   UNL     1       3.779  10.768  -0.139  0.00  0.00    -0.084 Cl
ATOM     22  C   UNL     1       6.502   9.793   3.321  0.00  0.00    -0.030 A 
ATOM     24  C   UNL     1       6.890   9.479   2.018  0.00  0.00    +0.006 A 
ATOM     25  C   UNL     1       5.273  10.411   3.554  0.00  0.00    +0.006 A 
ATOM     26  C   UNL     1       6.048   9.781   0.949  0.00  0.00    +0.020 A 
ATOM     27  C   UNL     1       4.431  10.713   2.484  0.00  0.00    +0.020 A 
ATOM     28  C   UNL     1       4.819  10.399   1.181  0.00  0.00    +0.041 A 
ENDBRANCH  18  22
ENDBRANCH   8  18
ENDBRANCH   9  15
BRANCH   5  14
ATOM     14  C   UNL     1      11.479   6.431   2.996  0.00  0.00    +0.160 C 
BRANCH  14  16
ATOM      2  O   UNL     1      13.363   5.142   2.162  0.00  0.00    -0.461 OA
ATOM     16  C   UNL     1      12.012   5.293   2.174  0.00  0.00    +0.119 A 
ATOM     19  C   UNL     1      11.411   4.331   1.397  0.00  0.00    +0.046 A 
ATOM     20  C   UNL     1      13.627   4.071   1.369  0.00  0.00    +0.131 A 
ATOM     21  C   UNL     1      12.459   3.536   0.874  0.00  0.00    +0.047 A 
BRANCH  20  23
ATOM     23  C   UNL     1      15.043   3.715   1.206  0.00  0.00    +0.230 C 
BRANCH  23   4
ATOM      4  O   UNL     1      15.559   3.168   2.422  0.00  0.00    -0.387 OA
ATOM     31  H   UNL     1      16.526   3.133   2.328  0.00  0.00    +0.210 HD
ENDBRANCH  23   4
ENDBRANCH  20  23
ENDBRANCH  14  16
ENDBRANCH   5  14
TORSDOF 7
ENDMDL
MODEL 6
REMARK VINA RESULT:      -6.2     26.858     28.834
REMARK  Name = 26745437
REMARK  7 active torsions:
REMARK  status: ('A' for Active; 'I' for Inactive)
REMARK    1  A    between atoms: O_4  and  C_23
REMARK    2  A    between atoms: N_5  and  C_14
REMARK    3  A    between atoms: N_8  and  C_18
REMARK    4  A    between atoms: C_9  and  C_15
REMARK    5  A    between atoms: C_14  and  C_16
REMARK    6  A    between atoms: C_18  and  C_22
REMARK    7  A    between atoms: C_20  and  C_23
REMARK                            x       y       z     vdW  Elec       q    Type
REMARK                         _______ _______ _______ _____ _____    ______ ____
ROOT
ATOM      5  N   UNL     1      -3.109 -11.936  15.491  0.00  0.00    -0.278 NA
ATOM      6  N   UNL     1      -5.191 -13.631  12.901  0.00  0.00    -0.347 N 
ATOM      7  N   UNL     1      -3.258 -14.561  12.266  0.00  0.00    -0.240 NA
ATOM      9  C   UNL     1      -1.849 -11.992  14.707  0.00  0.00    +0.150 C 
ATOM     10  C   UNL     1      -1.731 -13.275  13.834  0.00  0.00    +0.085 C 
ATOM     11  C   UNL     1      -4.348 -11.991  14.680  0.00  0.00    +0.140 C 
ATOM     12  C   UNL     1      -4.216 -13.048  13.653  0.00  0.00    +0.053 A 
ATOM     13  C   UNL     1      -3.042 -13.631  13.242  0.00  0.00    +0.065 A 
ATOM     17  C   UNL     1      -4.564 -14.537  12.081  0.00  0.00    +0.197 A 
ATOM     29  H   UNL     1      -6.183 -13.437  12.934  0.00  0.00    +0.167 HD
ENDROOT
BRANCH   9  15
ATOM      3  O   UNL     1      -1.497  -9.657  14.332  0.00  0.00    -0.274 OA
ATOM      8  N   UNL     1      -1.887 -11.045  12.504  0.00  0.00    -0.310 N 
ATOM     15  C   UNL     1      -1.715 -10.765  13.849  0.00  0.00    +0.231 C 
ATOM     30  H   UNL     1      -2.042 -12.002  12.204  0.00  0.00    +0.149 HD
BRANCH   8  18
ATOM     18  C   UNL     1      -1.830 -10.034  11.472  0.00  0.00    +0.139 C 
BRANCH  18  22
ATOM      1 CL   UNL     1      -6.518 -10.378   7.725  0.00  0.00    -0.084 Cl
ATOM     22  C   UNL     1      -3.001 -10.121  10.537  0.00  0.00    -0.030 A 
ATOM     24  C   UNL     1      -3.436  -8.982   9.858  0.00  0.00    +0.006 A 
ATOM     25  C   UNL     1      -3.654 -11.338  10.347  0.00  0.00    +0.006 A 
ATOM     26  C   UNL     1      -4.525  -9.062   8.990  0.00  0.00    +0.020 A 
ATOM     27  C   UNL     1      -4.742 -11.419   9.478  0.00  0.00    +0.020 A 
ATOM     28  C   UNL     1      -5.178 -10.280   8.800  0.00  0.00    +0.041 A 
ENDBRANCH  18  22
ENDBRANCH   8  18
ENDBRANCH   9  15
BRANCH   5  14
ATOM     14  C   UNL     1      -3.148 -10.834  16.446  0.00  0.00    +0.160 C 
BRANCH  14  16
ATOM      2  O   UNL     1      -5.328 -10.472  17.458  0.00  0.00    -0.461 OA
ATOM     16  C   UNL     1      -4.122 -11.090  17.560  0.00  0.00    +0.119 A 
ATOM     19  C   UNL     1      -4.060 -11.842  18.710  0.00  0.00    +0.046 A 
ATOM     20  C   UNL     1      -6.044 -10.835  18.554  0.00  0.00    +0.131 A 
ATOM     21  C   UNL     1      -5.308 -11.677  19.356  0.00  0.00    +0.047 A 
BRANCH  20  23
ATOM     23  C   UNL     1      -7.401 -10.279  18.658  0.00  0.00    +0.230 C 
BRANCH  23   4
ATOM      4  O   UNL     1      -7.916 -10.474  19.977  0.00  0.00    -0.387 OA
ATOM     31  H   UNL     1      -8.294 -11.370  20.004  0.00  0.00    +0.210 HD
ENDBRANCH  23   4
ENDBRANCH  20  23
ENDBRANCH  14  16
ENDBRANCH   5  14
TORSDOF 7
ENDMDL
MODEL 7
REMARK VINA RESULT:      -6.0     27.456     29.175
REMARK  Name = 26745437
REMARK  7 active torsions:
REMARK  status: ('A' for Active; 'I' for Inactive)
REMARK    1  A    between atoms: O_4  and  C_23
REMARK    2  A    between atoms: N_5  and  C_14
REMARK    3  A    between atoms: N_8  and  C_18
REMARK    4  A    between atoms: C_9  and  C_15
REMARK    5  A    between atoms: C_14  and  C_16
REMARK    6  A    between atoms: C_18  and  C_22
REMARK    7  A    between atoms: C_20  and  C_23
REMARK                            x       y       z     vdW  Elec       q    Type
REMARK                         _______ _______ _______ _____ _____    ______ ____
ROOT
ATOM      5  N   UNL     1      -3.552 -12.631  14.275  0.00  0.00    -0.278 NA
ATOM      6  N   UNL     1      -3.189 -16.174  13.168  0.00  0.00    -0.347 N 
ATOM      7  N   UNL     1      -1.001 -15.712  13.129  0.00  0.00    -0.240 NA
ATOM      9  C   UNL     1      -2.299 -12.161  13.633  0.00  0.00    +0.150 C 
ATOM     10  C   UNL     1      -1.169 -13.231  13.644  0.00  0.00    +0.085 C 
ATOM     11  C   UNL     1      -4.141 -13.849  13.672  0.00  0.00    +0.140 C 
ATOM     12  C   UNL     1      -3.071 -14.843  13.428  0.00  0.00    +0.053 A 
ATOM     13  C   UNL     1      -1.723 -14.583  13.395  0.00  0.00    +0.065 A 
ATOM     17  C   UNL     1      -1.914 -16.654  12.996  0.00  0.00    +0.197 A 
ATOM     29  H   UNL     1      -4.045 -16.709  13.110  0.00  0.00    +0.167 HD
ENDROOT
BRANCH   9  15
ATOM      3  O   UNL     1      -2.910 -12.500  11.346  0.00  0.00    -0.274 OA
ATOM      8  N   UNL     1      -2.382 -10.349  12.063  0.00  0.00    -0.310 N 
ATOM     15  C   UNL     1      -2.574 -11.710  12.224  0.00  0.00    +0.231 C 
ATOM     30  H   UNL     1      -2.123  -9.777  12.861  0.00  0.00    +0.149 HD
BRANCH   8  18
ATOM     18  C   UNL     1      -2.559  -9.670  10.800  0.00  0.00    +0.139 C 
BRANCH  18  22
ATOM      1 CL   UNL     1      -8.348  -8.514   9.660  0.00  0.00    -0.084 Cl
ATOM     22  C   UNL     1      -4.005  -9.381  10.515  0.00  0.00    -0.030 A 
ATOM     24  C   UNL     1      -4.436  -9.211   9.200  0.00  0.00    +0.006 A 
ATOM     25  C   UNL     1      -4.916  -9.280  11.567  0.00  0.00    +0.006 A 
ATOM     26  C   UNL     1      -5.779  -8.942   8.936  0.00  0.00    +0.020 A 
ATOM     27  C   UNL     1      -6.259  -9.012  11.303  0.00  0.00    +0.020 A 
ATOM     28  C   UNL     1      -6.691  -8.842   9.987  0.00  0.00    +0.041 A 
ENDBRANCH  18  22
ENDBRANCH   8  18
ENDBRANCH   9  15
BRANCH   5  14
ATOM     14  C   UNL     1      -4.552 -11.579  14.432  0.00  0.00    +0.160 C 
BRANCH  14  16
ATOM      2  O   UNL     1      -4.176 -12.009  16.795  0.00  0.00    -0.461 OA
ATOM     16  C   UNL     1      -4.725 -11.178  15.869  0.00  0.00    +0.119 A 
ATOM     19  C   UNL     1      -5.342 -10.112  16.481  0.00  0.00    +0.046 A 
ATOM     20  C   UNL     1      -4.446 -11.466  18.011  0.00  0.00    +0.131 A 
ATOM     21  C   UNL     1      -5.161 -10.299  17.872  0.00  0.00    +0.047 A 
BRANCH  20  23
ATOM     23  C   UNL     1      -3.942 -12.204  19.178  0.00  0.00    +0.230 C 
BRANCH  23   4
ATOM      4  O   UNL     1      -2.550 -11.940  19.367  0.00  0.00    -0.387 OA
ATOM     31  H   UNL     1      -2.068 -12.491  18.727  0.00  0.00    +0.210 HD
ENDBRANCH  23   4
ENDBRANCH  20  23
ENDBRANCH  14  16
ENDBRANCH   5  14
TORSDOF 7
ENDMDL
MODEL 8
REMARK VINA RESULT:      -6.0     13.712     16.626
REMARK  Name = 26745437
REMARK  7 active torsions:
REMARK  status: ('A' for Active; 'I' for Inactive)
REMARK    1  A    between atoms: O_4  and  C_23
REMARK    2  A    between atoms: N_5  and  C_14
REMARK    3  A    between atoms: N_8  and  C_18
REMARK    4  A    between atoms: C_9  and  C_15
REMARK    5  A    between atoms: C_14  and  C_16
REMARK    6  A    between atoms: C_18  and  C_22
REMARK    7  A    between atoms: C_20  and  C_23
REMARK                            x       y       z     vdW  Elec       q    Type
REMARK                         _______ _______ _______ _____ _____    ______ ____
ROOT
ATOM      5  N   UNL     1      12.375   7.966   5.929  0.00  0.00    -0.278 NA
ATOM      6  N   UNL     1      14.511  10.727   7.242  0.00  0.00    -0.347 N 
ATOM      7  N   UNL     1      14.176  11.652   5.233  0.00  0.00    -0.240 NA
ATOM      9  C   UNL     1      12.701   8.212   4.501  0.00  0.00    +0.150 C 
ATOM     10  C   UNL     1      12.916   9.718   4.176  0.00  0.00    +0.085 C 
ATOM     11  C   UNL     1      13.392   8.449   6.892  0.00  0.00    +0.140 C 
ATOM     12  C   UNL     1      13.829   9.809   6.504  0.00  0.00    +0.053 A 
ATOM     13  C   UNL     1      13.639  10.397   5.277  0.00  0.00    +0.065 A 
ATOM     17  C   UNL     1      14.695  11.822   6.434  0.00  0.00    +0.197 A 
ATOM     29  H   UNL     1      14.825  10.627   8.199  0.00  0.00    +0.167 HD
ENDROOT
BRANCH   9  15
ATOM      3  O   UNL     1      14.985   7.529   4.688  0.00  0.00    -0.274 OA
ATOM      8  N   UNL     1      13.663   6.592   3.016  0.00  0.00    -0.310 N 
ATOM     15  C   UNL     1      13.912   7.415   4.101  0.00  0.00    +0.231 C 
ATOM     30  H   UNL     1      12.731   6.555   2.615  0.00  0.00    +0.149 HD
BRANCH   8  18
ATOM     18  C   UNL     1      14.668   5.740   2.422  0.00  0.00    +0.139 C 
BRANCH  18  22
ATOM      1 CL   UNL     1      12.390   2.274  -1.930  0.00  0.00    -0.084 Cl
ATOM     22  C   UNL     1      14.099   4.874   1.336  0.00  0.00    -0.030 A 
ATOM     24  C   UNL     1      14.608   4.957   0.040  0.00  0.00    +0.006 A 
ATOM     25  C   UNL     1      13.059   3.989   1.621  0.00  0.00    +0.006 A 
ATOM     26  C   UNL     1      14.079   4.153  -0.970  0.00  0.00    +0.020 A 
ATOM     27  C   UNL     1      12.530   3.185   0.612  0.00  0.00    +0.020 A 
ATOM     28  C   UNL     1      13.040   3.268  -0.684  0.00  0.00    +0.041 A 
ENDBRANCH  18  22
ENDBRANCH   8  18
ENDBRANCH   9  15
BRANCH   5  14
ATOM     14  C   UNL     1      11.994   6.585   6.207  0.00  0.00    +0.160 C 
BRANCH  14  16
ATOM      2  O   UNL     1      10.741   5.378   7.904  0.00  0.00    -0.461 OA
ATOM     16  C   UNL     1      10.824   6.503   7.146  0.00  0.00    +0.119 A 
ATOM     19  C   UNL     1       9.774   7.348   7.418  0.00  0.00    +0.046 A 
ATOM     20  C   UNL     1       9.626   5.508   8.670  0.00  0.00    +0.131 A 
ATOM     21  C   UNL     1       8.996   6.703   8.408  0.00  0.00    +0.047 A 
BRANCH  20  23
ATOM     23  C   UNL     1       9.331   4.394   9.582  0.00  0.00    +0.230 C 
BRANCH  23   4
ATOM      4  O   UNL     1      10.040   4.561  10.813  0.00  0.00    -0.387 OA
ATOM     31  H   UNL     1       9.754   5.410  11.191  0.00  0.00    +0.210 HD
ENDBRANCH  23   4
ENDBRANCH  20  23
ENDBRANCH  14  16
ENDBRANCH   5  14
TORSDOF 7
ENDMDL
MODEL 9
REMARK VINA RESULT:      -6.0     27.748     29.443
REMARK  Name = 26745437
REMARK  7 active torsions:
REMARK  status: ('A' for Active; 'I' for Inactive)
REMARK    1  A    between atoms: O_4  and  C_23
REMARK    2  A    between atoms: N_5  and  C_14
REMARK    3  A    between atoms: N_8  and  C_18
REMARK    4  A    between atoms: C_9  and  C_15
REMARK    5  A    between atoms: C_14  and  C_16
REMARK    6  A    between atoms: C_18  and  C_22
REMARK    7  A    between atoms: C_20  and  C_23
REMARK                            x       y       z     vdW  Elec       q    Type
REMARK                         _______ _______ _______ _____ _____    ______ ____
ROOT
ATOM      5  N   UNL     1      -4.156 -10.641  10.337  0.00  0.00    -0.278 NA
ATOM      6  N   UNL     1      -1.503 -11.993  12.584  0.00  0.00    -0.347 N 
ATOM      7  N   UNL     1      -3.057 -13.497  13.157  0.00  0.00    -0.240 NA
ATOM      9  C   UNL     1      -5.291 -11.143  11.152  0.00  0.00    +0.150 C 
ATOM     10  C   UNL     1      -4.990 -12.505  11.842  0.00  0.00    +0.085 C 
ATOM     11  C   UNL     1      -2.892 -10.447  11.084  0.00  0.00    +0.140 C 
ATOM     12  C   UNL     1      -2.653 -11.617  11.958  0.00  0.00    +0.053 A 
ATOM     13  C   UNL     1      -3.591 -12.551  12.328  0.00  0.00    +0.065 A 
ATOM     17  C   UNL     1      -1.797 -13.132  13.293  0.00  0.00    +0.197 A 
ATOM     29  H   UNL     1      -0.607 -11.527  12.540  0.00  0.00    +0.167 HD
ENDROOT
BRANCH   9  15
ATOM      3  O   UNL     1      -5.913  -8.949  11.872  0.00  0.00    -0.274 OA
ATOM      8  N   UNL     1      -5.740 -10.647  13.456  0.00  0.00    -0.310 N 
ATOM     15  C   UNL     1      -5.688 -10.117  12.177  0.00  0.00    +0.231 C 
ATOM     30  H   UNL     1      -5.557 -11.635  13.600  0.00  0.00    +0.149 HD
BRANCH   8  18
ATOM     18  C   UNL     1      -6.074  -9.863  14.623  0.00  0.00    +0.139 C 
BRANCH  18  22
ATOM      1 CL   UNL     1      -3.536 -12.065  19.609  0.00  0.00    -0.084 Cl
ATOM     22  C   UNL     1      -5.441 -10.413  15.868  0.00  0.00    -0.030 A 
ATOM     24  C   UNL     1      -4.107 -10.822  15.850  0.00  0.00    +0.006 A 
ATOM     25  C   UNL     1      -6.186 -10.517  17.043  0.00  0.00    +0.006 A 
ATOM     26  C   UNL     1      -3.519 -11.333  17.007  0.00  0.00    +0.020 A 
ATOM     27  C   UNL     1      -5.598 -11.028  18.200  0.00  0.00    +0.020 A 
ATOM     28  C   UNL     1      -4.264 -11.437  18.181  0.00  0.00    +0.041 A 
ENDBRANCH  18  22
ENDBRANCH   8  18
ENDBRANCH   9  15
BRANCH   5  14
ATOM     14  C   UNL     1      -4.490  -9.463   9.543  0.00  0.00    +0.160 C 
BRANCH  14  16
ATOM      2  O   UNL     1      -6.023  -9.003   7.713  0.00  0.00    -0.461 OA
ATOM     16  C   UNL     1      -5.064  -9.832   8.205  0.00  0.00    +0.119 A 
ATOM     19  C   UNL     1      -4.825 -10.866   7.330  0.00  0.00    +0.046 A 
ATOM     20  C   UNL     1      -6.398  -9.514   6.512  0.00  0.00    +0.131 A 
ATOM     21  C   UNL     1      -5.691 -10.660   6.231  0.00  0.00    +0.047 A 
BRANCH  20  23
ATOM     23  C   UNL     1      -7.440  -8.772   5.787  0.00  0.00    +0.230 C 
BRANCH  23   4
ATOM      4  O   UNL     1      -7.375  -7.381   6.112  0.00  0.00    -0.387 OA
ATOM     31  H   UNL     1      -6.441  -7.175   6.286  0.00  0.00    +0.210 HD
ENDBRANCH  23   4
ENDBRANCH  20  23
ENDBRANCH  14  16
ENDBRANCH   5  14
TORSDOF 7
ENDMDL
MODEL 10
REMARK VINA RESULT:      -5.9     26.336     28.586
REMARK  Name = 26745437
REMARK  7 active torsions:
REMARK  status: ('A' for Active; 'I' for Inactive)
REMARK    1  A    between atoms: O_4  and  C_23
REMARK    2  A    between atoms: N_5  and  C_14
REMARK    3  A    between atoms: N_8  and  C_18
REMARK    4  A    between atoms: C_9  and  C_15
REMARK    5  A    between atoms: C_14  and  C_16
REMARK    6  A    between atoms: C_18  and  C_22
REMARK    7  A    between atoms: C_20  and  C_23
REMARK                            x       y       z     vdW  Elec       q    Type
REMARK                         _______ _______ _______ _____ _____    ______ ____
ROOT
ATOM      5  N   UNL     1     -13.783   7.877  19.696  0.00  0.00    -0.278 NA
ATOM      6  N   UNL     1     -12.316   8.731  16.375  0.00  0.00    -0.347 N 
ATOM      7  N   UNL     1     -10.401   8.005  17.276  0.00  0.00    -0.240 NA
ATOM      9  C   UNL     1     -12.515   8.045  20.451  0.00  0.00    +0.150 C 
ATOM     10  C   UNL     1     -11.260   7.620  19.634  0.00  0.00    +0.085 C 
ATOM     11  C   UNL     1     -13.853   8.630  18.422  0.00  0.00    +0.140 C 
ATOM     12  C   UNL     1     -12.581   8.467  17.685  0.00  0.00    +0.053 A 
ATOM     13  C   UNL     1     -11.393   8.028  18.216  0.00  0.00    +0.065 A 
ATOM     17  C   UNL     1     -10.989   8.436  16.177  0.00  0.00    +0.197 A 
ATOM     29  H   UNL     1     -12.964   9.079  15.681  0.00  0.00    +0.167 HD
ENDROOT
BRANCH   9  15
ATOM      3  O   UNL     1     -11.833  10.326  20.229  0.00  0.00    -0.274 OA
ATOM      8  N   UNL     1     -12.894   9.653  22.189  0.00  0.00    -0.310 N 
ATOM     15  C   UNL     1     -12.373   9.466  20.920  0.00  0.00    +0.231 C 
ATOM     30  H   UNL     1     -13.342   8.879  22.670  0.00  0.00    +0.149 HD
BRANCH   8  18
ATOM     18  C   UNL     1     -12.863  10.924  22.877  0.00  0.00    +0.139 C 
BRANCH  18  22
ATOM      1 CL   UNL     1     -11.939  10.260  28.780  0.00  0.00    -0.084 Cl
ATOM     22  C   UNL     1     -12.633  10.758  24.351  0.00  0.00    -0.030 A 
ATOM     24  C   UNL     1     -11.362  10.970  24.887  0.00  0.00    +0.006 A 
ATOM     25  C   UNL     1     -13.689  10.389  25.186  0.00  0.00    +0.006 A 
ATOM     26  C   UNL     1     -11.148  10.816  26.256  0.00  0.00    +0.020 A 
ATOM     27  C   UNL     1     -13.475  10.235  26.555  0.00  0.00    +0.020 A 
ATOM     28  C   UNL     1     -12.204  10.447  27.090  0.00  0.00    +0.041 A 
ENDBRANCH  18  22
ENDBRANCH   8  18
ENDBRANCH   9  15
BRANCH   5  14
ATOM     14  C   UNL     1     -14.974   8.098  20.510  0.00  0.00    +0.160 C 
BRANCH  14  16
ATOM      2  O   UNL     1     -14.986   6.437  22.284  0.00  0.00    -0.461 OA
ATOM     16  C   UNL     1     -15.506   6.818  21.088  0.00  0.00    +0.119 A 
ATOM     19  C   UNL     1     -16.441   5.907  20.655  0.00  0.00    +0.046 A 
ATOM     20  C   UNL     1     -15.597   5.270  22.619  0.00  0.00    +0.131 A 
ATOM     21  C   UNL     1     -16.501   4.902  21.649  0.00  0.00    +0.047 A 
BRANCH  20  23
ATOM     23  C   UNL     1     -15.186   4.663  23.893  0.00  0.00    +0.230 C 
BRANCH  23   4
ATOM      4  O   UNL     1     -13.766   4.504  23.931  0.00  0.00    -0.387 OA
ATOM     31  H   UNL     1     -13.471   4.801  24.808  0.00  0.00    +0.210 HD
ENDBRANCH  23   4
ENDBRANCH  20  23
ENDBRANCH  14  16
ENDBRANCH   5  14
TORSDOF 7
ENDMDL
