MODEL 1
REMARK VINA RESULT:      -7.1      0.000      0.000
REMARK  Name = 26744606
REMARK  8 active torsions:
REMARK  status: ('A' for Active; 'I' for Inactive)
REMARK    1  A    between atoms: O_3  and  C_12
REMARK    2  A    between atoms: N_6  and  C_14
REMARK    3  A    between atoms: N_9  and  C_23
REMARK    4  A    between atoms: C_10  and  C_15
REMARK    5  A    between atoms: C_14  and  C_16
REMARK    6  A    between atoms: C_17  and  C_20
REMARK    7  A    between atoms: C_20  and  C_24
REMARK    8  A    between atoms: C_29  and  C_31
REMARK                            x       y       z     vdW  Elec       q    Type
REMARK                         _______ _______ _______ _____ _____    ______ ____
ROOT
ATOM      6  N   UNL     1      -3.130 -10.548  13.958  0.00  0.00    -0.285 NA
ATOM     10  C   UNL     1      -3.552 -11.209  15.209  0.00  0.00    +0.149 C 
ATOM     11  C   UNL     1      -2.460 -10.850  16.233  0.00  0.00    +0.061 C 
ATOM     12  C   UNL     1      -1.445 -10.022  15.453  0.00  0.00    +0.130 C 
ATOM     13  C   UNL     1      -1.673 -10.446  14.014  0.00  0.00    +0.116 C 
ENDROOT
BRANCH  10  15
ATOM      4  O   UNL     1      -5.020  -9.613  16.336  0.00  0.00    -0.336 OA
ATOM      7  N   UNL     1      -6.085 -11.388  15.481  0.00  0.00    -0.194 NA
ATOM      8  N   UNL     1      -6.376  -9.436  16.639  0.00  0.00    -0.061 NA
ATOM     15  C   UNL     1      -4.935 -10.785  15.654  0.00  0.00    +0.245 A 
ATOM     17  C   UNL     1      -6.938 -10.524  16.102  0.00  0.00    +0.176 A 
BRANCH  17  20
ATOM     20  C   UNL     1      -8.382 -10.770  16.178  0.00  0.00    +0.116 C 
BRANCH  20  24
ATOM      1 CL   UNL     1      -9.246  -9.476  13.499  0.00  0.00    -0.083 Cl
ATOM      2  F   UNL     1     -11.569  -6.108  16.468  0.00  0.00    -0.205 F 
ATOM     24  C   UNL     1      -9.243  -9.511  16.225  0.00  0.00    -0.021 A 
ATOM     25  C   UNL     1      -9.670  -8.872  15.060  0.00  0.00    +0.047 A 
ATOM     26  C   UNL     1      -9.602  -8.999  17.471  0.00  0.00    +0.008 A 
ATOM     27  C   UNL     1     -10.456  -7.724  15.142  0.00  0.00    +0.058 A 
ATOM     28  C   UNL     1     -10.388  -7.849  17.554  0.00  0.00    +0.039 A 
ATOM     30  C   UNL     1     -10.815  -7.212  16.389  0.00  0.00    +0.125 A 
ENDBRANCH  20  24
ENDBRANCH  17  20
ENDBRANCH  10  15
BRANCH  12   3
ATOM      3  O   UNL     1      -0.129 -10.308  15.883  0.00  0.00    -0.390 OA
ATOM     32  H   UNL     1       0.081  -9.698  16.611  0.00  0.00    +0.210 HD
ENDBRANCH  12   3
BRANCH   6  14
ATOM     14  C   UNL     1      -3.585 -11.241  12.759  0.00  0.00    +0.120 C 
BRANCH  14  16
ATOM     16  C   UNL     1      -4.294 -10.313  11.810  0.00  0.00    -0.033 A 
ATOM     18  C   UNL     1      -3.751 -10.052  10.552  0.00  0.00    +0.007 A 
ATOM     19  C   UNL     1      -5.494  -9.711  12.190  0.00  0.00    +0.007 A 
ATOM     21  C   UNL     1      -4.407  -9.191   9.674  0.00  0.00    +0.023 A 
ATOM     22  C   UNL     1      -6.150  -8.849  11.311  0.00  0.00    +0.023 A 
ATOM     23  C   UNL     1      -5.607  -8.588  10.053  0.00  0.00    +0.033 A 
BRANCH  23   9
ATOM      5  O   UNL     1      -8.258  -8.873   8.655  0.00  0.00    -0.276 OA
ATOM      9  N   UNL     1      -6.264  -7.727   9.175  0.00  0.00    -0.286 N 
ATOM     29  C   UNL     1      -7.504  -7.911   8.548  0.00  0.00    +0.214 C 
ATOM     31  C   UNL     1      -7.865  -6.741   7.668  0.00  0.00    +0.109 C 
ATOM     33  H   UNL     1      -5.769  -6.863   8.967  0.00  0.00    +0.155 HD
ENDBRANCH  23   9
ENDBRANCH  14  16
ENDBRANCH   6  14
TORSDOF 7
ENDMDL
MODEL 2
REMARK VINA RESULT:      -7.0      1.987      2.597
REMARK  Name = 26744606
REMARK  8 active torsions:
REMARK  status: ('A' for Active; 'I' for Inactive)
REMARK    1  A    between atoms: O_3  and  C_12
REMARK    2  A    between atoms: N_6  and  C_14
REMARK    3  A    between atoms: N_9  and  C_23
REMARK    4  A    between atoms: C_10  and  C_15
REMARK    5  A    between atoms: C_14  and  C_16
REMARK    6  A    between atoms: C_17  and  C_20
REMARK    7  A    between atoms: C_20  and  C_24
REMARK    8  A    between atoms: C_29  and  C_31
REMARK                            x       y       z     vdW  Elec       q    Type
REMARK                         _______ _______ _______ _____ _____    ______ ____
ROOT
ATOM      6  N   UNL     1      -2.939 -10.457  13.803  0.00  0.00    -0.285 NA
ATOM     10  C   UNL     1      -3.415 -11.206  14.983  0.00  0.00    +0.149 C 
ATOM     11  C   UNL     1      -2.414 -10.860  16.100  0.00  0.00    +0.061 C 
ATOM     12  C   UNL     1      -1.387  -9.946  15.440  0.00  0.00    +0.130 C 
ATOM     13  C   UNL     1      -1.496 -10.297  13.968  0.00  0.00    +0.116 C 
ENDROOT
BRANCH  10  15
ATOM      4  O   UNL     1      -5.811 -11.665  14.826  0.00  0.00    -0.336 OA
ATOM      7  N   UNL     1      -5.299  -9.903  16.112  0.00  0.00    -0.194 NA
ATOM      8  N   UNL     1      -7.029 -11.161  15.299  0.00  0.00    -0.061 NA
ATOM     15  C   UNL     1      -4.844 -10.868  15.351  0.00  0.00    +0.245 A 
ATOM     17  C   UNL     1      -6.644 -10.124  16.049  0.00  0.00    +0.176 A 
BRANCH  17  20
ATOM     20  C   UNL     1      -7.609  -9.278  16.760  0.00  0.00    +0.116 C 
BRANCH  20  24
ATOM      1 CL   UNL     1     -10.580  -8.484  17.129  0.00  0.00    -0.083 Cl
ATOM      2  F   UNL     1     -10.539 -12.011  20.750  0.00  0.00    -0.205 F 
ATOM     24  C   UNL     1      -8.425  -9.998  17.829  0.00  0.00    -0.021 A 
ATOM     25  C   UNL     1      -9.768  -9.694  18.053  0.00  0.00    +0.047 A 
ATOM     26  C   UNL     1      -7.796 -10.981  18.593  0.00  0.00    +0.008 A 
ATOM     27  C   UNL     1     -10.482 -10.375  19.039  0.00  0.00    +0.058 A 
ATOM     28  C   UNL     1      -8.510 -11.662  19.579  0.00  0.00    +0.039 A 
ATOM     30  C   UNL     1      -9.853 -11.358  19.802  0.00  0.00    +0.125 A 
ENDBRANCH  20  24
ENDBRANCH  17  20
ENDBRANCH  10  15
BRANCH  12   3
ATOM      3  O   UNL     1      -0.092 -10.200  15.947  0.00  0.00    -0.390 OA
ATOM     32  H   UNL     1       0.042  -9.617  16.714  0.00  0.00    +0.210 HD
ENDBRANCH  12   3
BRANCH   6  14
ATOM     14  C   UNL     1      -3.278 -11.099  12.539  0.00  0.00    +0.120 C 
BRANCH  14  16
ATOM     16  C   UNL     1      -4.053 -10.180  11.633  0.00  0.00    -0.033 A 
ATOM     18  C   UNL     1      -5.296  -9.690  12.034  0.00  0.00    +0.007 A 
ATOM     19  C   UNL     1      -3.528  -9.819  10.392  0.00  0.00    +0.007 A 
ATOM     21  C   UNL     1      -6.014  -8.840  11.194  0.00  0.00    +0.023 A 
ATOM     22  C   UNL     1      -4.247  -8.968   9.552  0.00  0.00    +0.023 A 
ATOM     23  C   UNL     1      -5.490  -8.479   9.952  0.00  0.00    +0.033 A 
BRANCH  23   9
ATOM      5  O   UNL     1      -8.147  -8.865   8.588  0.00  0.00    -0.276 OA
ATOM      9  N   UNL     1      -6.208  -7.629   9.112  0.00  0.00    -0.286 N 
ATOM     29  C   UNL     1      -7.447  -7.861   8.499  0.00  0.00    +0.214 C 
ATOM     31  C   UNL     1      -7.886  -6.687   7.661  0.00  0.00    +0.109 C 
ATOM     33  H   UNL     1      -5.764  -6.733   8.923  0.00  0.00    +0.155 HD
ENDBRANCH  23   9
ENDBRANCH  14  16
ENDBRANCH   6  14
TORSDOF 7
ENDMDL
MODEL 3
REMARK VINA RESULT:      -6.7     23.269     25.436
REMARK  Name = 26744606
REMARK  8 active torsions:
REMARK  status: ('A' for Active; 'I' for Inactive)
REMARK    1  A    between atoms: O_3  and  C_12
REMARK    2  A    between atoms: N_6  and  C_14
REMARK    3  A    between atoms: N_9  and  C_23
REMARK    4  A    between atoms: C_10  and  C_15
REMARK    5  A    between atoms: C_14  and  C_16
REMARK    6  A    between atoms: C_17  and  C_20
REMARK    7  A    between atoms: C_20  and  C_24
REMARK    8  A    between atoms: C_29  and  C_31
REMARK                            x       y       z     vdW  Elec       q    Type
REMARK                         _______ _______ _______ _____ _____    ______ ____
ROOT
ATOM      6  N   UNL     1       9.902   5.783   6.244  0.00  0.00    -0.285 NA
ATOM     10  C   UNL     1       8.868   6.689   6.782  0.00  0.00    +0.149 C 
ATOM     11  C   UNL     1       9.128   6.727   8.299  0.00  0.00    +0.061 C 
ATOM     12  C   UNL     1      10.297   5.775   8.522  0.00  0.00    +0.130 C 
ATOM     13  C   UNL     1      10.238   4.852   7.319  0.00  0.00    +0.116 C 
ENDROOT
BRANCH  10  15
ATOM      4  O   UNL     1      10.085   8.739   6.239  0.00  0.00    -0.336 OA
ATOM      7  N   UNL     1       7.966   8.713   5.511  0.00  0.00    -0.194 NA
ATOM      8  N   UNL     1       9.880   9.964   5.591  0.00  0.00    -0.061 NA
ATOM     15  C   UNL     1       8.910   8.063   6.147  0.00  0.00    +0.245 A 
ATOM     17  C   UNL     1       8.609   9.873   5.190  0.00  0.00    +0.176 A 
BRANCH  17  20
ATOM     20  C   UNL     1       7.948  10.954   4.451  0.00  0.00    +0.116 C 
BRANCH  20  24
ATOM      1 CL   UNL     1       4.895  11.319   4.832  0.00  0.00    -0.083 Cl
ATOM      2  F   UNL     1       4.591   9.197   0.254  0.00  0.00    -0.205 F 
ATOM     24  C   UNL     1       7.017  10.489   3.335  0.00  0.00    -0.021 A 
ATOM     25  C   UNL     1       5.632  10.621   3.435  0.00  0.00    +0.047 A 
ATOM     26  C   UNL     1       7.582   9.920   2.194  0.00  0.00    +0.008 A 
ATOM     27  C   UNL     1       4.812  10.185   2.395  0.00  0.00    +0.058 A 
ATOM     28  C   UNL     1       6.763   9.484   1.152  0.00  0.00    +0.039 A 
ATOM     30  C   UNL     1       5.378   9.617   1.253  0.00  0.00    +0.125 A 
ENDBRANCH  20  24
ENDBRANCH  17  20
ENDBRANCH  10  15
BRANCH  12   3
ATOM      3  O   UNL     1      10.142   5.067   9.736  0.00  0.00    -0.390 OA
ATOM     32  H   UNL     1      10.073   4.122   9.518  0.00  0.00    +0.210 HD
ENDBRANCH  12   3
BRANCH   6  14
ATOM     14  C   UNL     1       9.484   5.090   5.031  0.00  0.00    +0.120 C 
BRANCH  14  16
ATOM     16  C   UNL     1      10.589   5.029   4.011  0.00  0.00    -0.033 A 
ATOM     18  C   UNL     1      11.460   6.108   3.860  0.00  0.00    +0.007 A 
ATOM     19  C   UNL     1      10.741   3.894   3.214  0.00  0.00    +0.007 A 
ATOM     21  C   UNL     1      12.482   6.053   2.914  0.00  0.00    +0.023 A 
ATOM     22  C   UNL     1      11.764   3.839   2.268  0.00  0.00    +0.023 A 
ATOM     23  C   UNL     1      12.635   4.918   2.117  0.00  0.00    +0.033 A 
BRANCH  23   9
ATOM      5  O   UNL     1      15.068   3.150   1.973  0.00  0.00    -0.276 OA
ATOM      9  N   UNL     1      13.657   4.862   1.171  0.00  0.00    -0.286 N 
ATOM     29  C   UNL     1      14.774   4.015   1.154  0.00  0.00    +0.214 C 
ATOM     31  C   UNL     1      15.650   4.269  -0.047  0.00  0.00    +0.109 C 
ATOM     33  H   UNL     1      13.574   5.527   0.405  0.00  0.00    +0.155 HD
ENDBRANCH  23   9
ENDBRANCH  14  16
ENDBRANCH   6  14
TORSDOF 7
ENDMDL
MODEL 4
REMARK VINA RESULT:      -6.7     23.763     25.804
REMARK  Name = 26744606
REMARK  8 active torsions:
REMARK  status: ('A' for Active; 'I' for Inactive)
REMARK    1  A    between atoms: O_3  and  C_12
REMARK    2  A    between atoms: N_6  and  C_14
REMARK    3  A    between atoms: N_9  and  C_23
REMARK    4  A    between atoms: C_10  and  C_15
REMARK    5  A    between atoms: C_14  and  C_16
REMARK    6  A    between atoms: C_17  and  C_20
REMARK    7  A    between atoms: C_20  and  C_24
REMARK    8  A    between atoms: C_29  and  C_31
REMARK                            x       y       z     vdW  Elec       q    Type
REMARK                         _______ _______ _______ _____ _____    ______ ____
ROOT
ATOM      6  N   UNL     1       9.942   6.008   6.172  0.00  0.00    -0.285 NA
ATOM     10  C   UNL     1       9.012   6.728   7.065  0.00  0.00    +0.149 C 
ATOM     11  C   UNL     1       9.172   6.045   8.435  0.00  0.00    +0.061 C 
ATOM     12  C   UNL     1      10.179   4.925   8.202  0.00  0.00    +0.130 C 
ATOM     13  C   UNL     1      10.071   4.656   6.712  0.00  0.00    +0.116 C 
ENDROOT
BRANCH  10  15
ATOM      4  O   UNL     1       8.629   8.987   6.213  0.00  0.00    -0.336 OA
ATOM      7  N   UNL     1      10.083   8.885   7.913  0.00  0.00    -0.194 NA
ATOM      8  N   UNL     1       9.043  10.304   6.450  0.00  0.00    -0.061 NA
ATOM     15  C   UNL     1       9.288   8.216   7.116  0.00  0.00    +0.245 A 
ATOM     17  C   UNL     1       9.899  10.161   7.467  0.00  0.00    +0.176 A 
BRANCH  17  20
ATOM     20  C   UNL     1      10.596  11.306   8.063  0.00  0.00    +0.116 C 
BRANCH  20  24
ATOM      1 CL   UNL     1      12.848  11.943  10.092  0.00  0.00    -0.083 Cl
ATOM      2  F   UNL     1       9.042  12.418  13.385  0.00  0.00    -0.205 F 
ATOM     24  C   UNL     1      10.207  11.611   9.506  0.00  0.00    -0.021 A 
ATOM     25  C   UNL     1      11.166  11.906  10.476  0.00  0.00    +0.047 A 
ATOM     26  C   UNL     1       8.855  11.587   9.848  0.00  0.00    +0.008 A 
ATOM     27  C   UNL     1      10.773  12.179  11.785  0.00  0.00    +0.058 A 
ATOM     28  C   UNL     1       8.461  11.861  11.158  0.00  0.00    +0.039 A 
ATOM     30  C   UNL     1       9.420  12.157  12.126  0.00  0.00    +0.125 A 
ENDBRANCH  20  24
ENDBRANCH  17  20
ENDBRANCH  10  15
BRANCH  12   3
ATOM      3  O   UNL     1       9.845   3.783   8.967  0.00  0.00    -0.390 OA
ATOM     32  H   UNL     1       9.751   4.068   9.892  0.00  0.00    +0.210 HD
ENDBRANCH  12   3
BRANCH   6  14
ATOM     14  C   UNL     1       9.512   6.002   4.779  0.00  0.00    +0.120 C 
BRANCH  14  16
ATOM     16  C   UNL     1      10.664   5.772   3.838  0.00  0.00    -0.033 A 
ATOM     18  C   UNL     1      11.757   6.638   3.847  0.00  0.00    +0.007 A 
ATOM     19  C   UNL     1      10.638   4.691   2.955  0.00  0.00    +0.007 A 
ATOM     21  C   UNL     1      12.824   6.425   2.975  0.00  0.00    +0.023 A 
ATOM     22  C   UNL     1      11.705   4.478   2.083  0.00  0.00    +0.023 A 
ATOM     23  C   UNL     1      12.798   5.346   2.091  0.00  0.00    +0.033 A 
BRANCH  23   9
ATOM      5  O   UNL     1      14.778   3.083   1.944  0.00  0.00    -0.276 OA
ATOM      9  N   UNL     1      13.864   5.132   1.218  0.00  0.00    -0.286 N 
ATOM     29  C   UNL     1      14.761   4.055   1.196  0.00  0.00    +0.214 C 
ATOM     31  C   UNL     1      15.777   4.196   0.091  0.00  0.00    +0.109 C 
ATOM     33  H   UNL     1      14.001   5.858   0.519  0.00  0.00    +0.155 HD
ENDBRANCH  23   9
ENDBRANCH  14  16
ENDBRANCH   6  14
TORSDOF 7
ENDMDL
MODEL 5
REMARK VINA RESULT:      -6.6     24.455     26.935
REMARK  Name = 26744606
REMARK  8 active torsions:
REMARK  status: ('A' for Active; 'I' for Inactive)
REMARK    1  A    between atoms: O_3  and  C_12
REMARK    2  A    between atoms: N_6  and  C_14
REMARK    3  A    between atoms: N_9  and  C_23
REMARK    4  A    between atoms: C_10  and  C_15
REMARK    5  A    between atoms: C_14  and  C_16
REMARK    6  A    between atoms: C_17  and  C_20
REMARK    7  A    between atoms: C_20  and  C_24
REMARK    8  A    between atoms: C_29  and  C_31
REMARK                            x       y       z     vdW  Elec       q    Type
REMARK                         _______ _______ _______ _____ _____    ______ ____
ROOT
ATOM      6  N   UNL     1      10.089   5.509   6.218  0.00  0.00    -0.285 NA
ATOM     10  C   UNL     1       9.414   6.672   6.829  0.00  0.00    +0.149 C 
ATOM     11  C   UNL     1       9.487   6.416   8.346  0.00  0.00    +0.061 C 
ATOM     12  C   UNL     1      10.179   5.066   8.486  0.00  0.00    +0.130 C 
ATOM     13  C   UNL     1       9.921   4.396   7.150  0.00  0.00    +0.116 C 
ENDROOT
BRANCH  10  15
ATOM      4  O   UNL     1       9.202   8.938   5.939  0.00  0.00    -0.336 OA
ATOM      7  N   UNL     1      11.298   8.358   6.474  0.00  0.00    -0.194 NA
ATOM      8  N   UNL     1      10.002  10.048   5.638  0.00  0.00    -0.061 NA
ATOM     15  C   UNL     1      10.043   7.989   6.426  0.00  0.00    +0.245 A 
ATOM     17  C   UNL     1      11.224   9.628   5.981  0.00  0.00    +0.176 A 
BRANCH  17  20
ATOM     20  C   UNL     1      12.408  10.481   5.834  0.00  0.00    +0.116 C 
BRANCH  20  24
ATOM      1 CL   UNL     1      12.743   9.713   2.852  0.00  0.00    -0.083 Cl
ATOM      2  F   UNL     1      17.147   7.759   4.382  0.00  0.00    -0.205 F 
ATOM     24  C   UNL     1      13.677   9.746   5.412  0.00  0.00    -0.021 A 
ATOM     25  C   UNL     1      13.898   9.367   4.088  0.00  0.00    +0.047 A 
ATOM     26  C   UNL     1      14.628   9.452   6.389  0.00  0.00    +0.008 A 
ATOM     27  C   UNL     1      15.070   8.697   3.740  0.00  0.00    +0.058 A 
ATOM     28  C   UNL     1      15.801   8.781   6.041  0.00  0.00    +0.039 A 
ATOM     30  C   UNL     1      16.021   8.404   4.716  0.00  0.00    +0.125 A 
ENDBRANCH  20  24
ENDBRANCH  17  20
ENDBRANCH  10  15
BRANCH  12   3
ATOM      3  O   UNL     1       9.626   4.329   9.559  0.00  0.00    -0.390 OA
ATOM     32  H   UNL     1       9.863   4.788  10.382  0.00  0.00    +0.210 HD
ENDBRANCH  12   3
BRANCH   6  14
ATOM     14  C   UNL     1       9.589   5.189   4.886  0.00  0.00    +0.120 C 
BRANCH  14  16
ATOM     16  C   UNL     1      10.702   5.094   3.878  0.00  0.00    -0.033 A 
ATOM     18  C   UNL     1      10.852   3.939   3.111  0.00  0.00    +0.007 A 
ATOM     19  C   UNL     1      11.585   6.161   3.711  0.00  0.00    +0.007 A 
ATOM     21  C   UNL     1      11.884   3.850   2.178  0.00  0.00    +0.023 A 
ATOM     22  C   UNL     1      12.617   6.072   2.778  0.00  0.00    +0.023 A 
ATOM     23  C   UNL     1      12.768   4.916   2.011  0.00  0.00    +0.033 A 
BRANCH  23   9
ATOM      5  O   UNL     1      15.197   3.138   1.948  0.00  0.00    -0.276 OA
ATOM      9  N   UNL     1      13.800   4.828   1.078  0.00  0.00    -0.286 N 
ATOM     29  C   UNL     1      14.915   3.978   1.099  0.00  0.00    +0.214 C 
ATOM     31  C   UNL     1      15.805   4.193  -0.099  0.00  0.00    +0.109 C 
ATOM     33  H   UNL     1      13.728   5.470   0.292  0.00  0.00    +0.155 HD
ENDBRANCH  23   9
ENDBRANCH  14  16
ENDBRANCH   6  14
TORSDOF 7
ENDMDL
MODEL 6
REMARK VINA RESULT:      -6.6     24.998     27.880
REMARK  Name = 26744606
REMARK  8 active torsions:
REMARK  status: ('A' for Active; 'I' for Inactive)
REMARK    1  A    between atoms: O_3  and  C_12
REMARK    2  A    between atoms: N_6  and  C_14
REMARK    3  A    between atoms: N_9  and  C_23
REMARK    4  A    between atoms: C_10  and  C_15
REMARK    5  A    between atoms: C_14  and  C_16
REMARK    6  A    between atoms: C_17  and  C_20
REMARK    7  A    between atoms: C_20  and  C_24
REMARK    8  A    between atoms: C_29  and  C_31
REMARK                            x       y       z     vdW  Elec       q    Type
REMARK                         _______ _______ _______ _____ _____    ______ ____
ROOT
ATOM      6  N   UNL     1      10.217   7.859   5.630  0.00  0.00    -0.285 NA
ATOM     10  C   UNL     1       9.526   6.715   5.004  0.00  0.00    +0.149 C 
ATOM     11  C   UNL     1       8.250   7.315   4.385  0.00  0.00    +0.061 C 
ATOM     12  C   UNL     1       8.290   8.793   4.756  0.00  0.00    +0.130 C 
ATOM     13  C   UNL     1       9.180   8.826   5.985  0.00  0.00    +0.116 C 
ENDROOT
BRANCH  10  15
ATOM      4  O   UNL     1      11.060   6.782   3.101  0.00  0.00    -0.336 OA
ATOM      7  N   UNL     1      10.590   4.715   3.824  0.00  0.00    -0.194 NA
ATOM      8  N   UNL     1      11.775   5.908   2.273  0.00  0.00    -0.061 NA
ATOM     15  C   UNL     1      10.389   5.999   3.986  0.00  0.00    +0.245 A 
ATOM     17  C   UNL     1      11.447   4.709   2.762  0.00  0.00    +0.176 A 
BRANCH  17  20
ATOM     20  C   UNL     1      11.975   3.465   2.191  0.00  0.00    +0.116 C 
BRANCH  20  24
ATOM      1 CL   UNL     1      11.226   3.851  -0.790  0.00  0.00    -0.083 Cl
ATOM      2  F   UNL     1      16.225   4.160  -1.474  0.00  0.00    -0.205 F 
ATOM     24  C   UNL     1      13.101   3.655   1.178  0.00  0.00    -0.021 A 
ATOM     25  C   UNL     1      12.841   3.834  -0.181  0.00  0.00    +0.047 A 
ATOM     26  C   UNL     1      14.417   3.646   1.640  0.00  0.00    +0.008 A 
ATOM     27  C   UNL     1      13.895   4.005  -1.076  0.00  0.00    +0.058 A 
ATOM     28  C   UNL     1      15.472   3.817   0.745  0.00  0.00    +0.039 A 
ATOM     30  C   UNL     1      15.211   3.997  -0.614  0.00  0.00    +0.125 A 
ENDBRANCH  20  24
ENDBRANCH  17  20
ENDBRANCH  10  15
BRANCH  12   3
ATOM      3  O   UNL     1       6.990   9.274   5.035  0.00  0.00    -0.390 OA
ATOM     32  H   UNL     1       7.084  10.144   5.458  0.00  0.00    +0.210 HD
ENDBRANCH  12   3
BRANCH   6  14
ATOM     14  C   UNL     1      11.029   7.481   6.780  0.00  0.00    +0.120 C 
BRANCH  14  16
ATOM     16  C   UNL     1      12.476   7.845   6.588  0.00  0.00    -0.033 A 
ATOM     18  C   UNL     1      13.469   6.881   6.767  0.00  0.00    +0.007 A 
ATOM     19  C   UNL     1      12.827   9.148   6.234  0.00  0.00    +0.007 A 
ATOM     21  C   UNL     1      14.810   7.219   6.591  0.00  0.00    +0.023 A 
ATOM     22  C   UNL     1      14.168   9.486   6.057  0.00  0.00    +0.023 A 
ATOM     23  C   UNL     1      15.161   8.522   6.237  0.00  0.00    +0.033 A 
BRANCH  23   9
ATOM      5  O   UNL     1      17.040   7.936   3.959  0.00  0.00    -0.276 OA
ATOM      9  N   UNL     1      16.501   8.861   6.060  0.00  0.00    -0.286 N 
ATOM     29  C   UNL     1      17.334   8.559   4.974  0.00  0.00    +0.214 C 
ATOM     31  C   UNL     1      18.726   9.107   5.166  0.00  0.00    +0.109 C 
ATOM     33  H   UNL     1      16.918   9.388   6.824  0.00  0.00    +0.155 HD
ENDBRANCH  23   9
ENDBRANCH  14  16
ENDBRANCH   6  14
TORSDOF 7
ENDMDL
MODEL 7
REMARK VINA RESULT:      -6.6     23.254     25.909
REMARK  Name = 26744606
REMARK  8 active torsions:
REMARK  status: ('A' for Active; 'I' for Inactive)
REMARK    1  A    between atoms: O_3  and  C_12
REMARK    2  A    between atoms: N_6  and  C_14
REMARK    3  A    between atoms: N_9  and  C_23
REMARK    4  A    between atoms: C_10  and  C_15
REMARK    5  A    between atoms: C_14  and  C_16
REMARK    6  A    between atoms: C_17  and  C_20
REMARK    7  A    between atoms: C_20  and  C_24
REMARK    8  A    between atoms: C_29  and  C_31
REMARK                            x       y       z     vdW  Elec       q    Type
REMARK                         _______ _______ _______ _____ _____    ______ ____
ROOT
ATOM      6  N   UNL     1       9.405   7.303   6.728  0.00  0.00    -0.285 NA
ATOM     10  C   UNL     1      10.654   6.518   6.666  0.00  0.00    +0.149 C 
ATOM     11  C   UNL     1      10.468   5.398   7.706  0.00  0.00    +0.061 C 
ATOM     12  C   UNL     1       9.104   5.664   8.332  0.00  0.00    +0.130 C 
ATOM     13  C   UNL     1       8.883   7.144   8.084  0.00  0.00    +0.116 C 
ENDROOT
BRANCH  10  15
ATOM      4  O   UNL     1      11.761   6.737   4.498  0.00  0.00    -0.336 OA
ATOM      7  N   UNL     1      10.507   4.893   4.702  0.00  0.00    -0.194 NA
ATOM      8  N   UNL     1      11.872   6.054   3.280  0.00  0.00    -0.061 NA
ATOM     15  C   UNL     1      10.940   5.987   5.278  0.00  0.00    +0.245 A 
ATOM     17  C   UNL     1      11.105   4.978   3.479  0.00  0.00    +0.176 A 
BRANCH  17  20
ATOM     20  C   UNL     1      10.919   3.954   2.444  0.00  0.00    +0.116 C 
BRANCH  20  24
ATOM      1 CL   UNL     1      10.112   5.025  -0.348  0.00  0.00    -0.083 Cl
ATOM      2  F   UNL     1      14.896   3.945  -1.575  0.00  0.00    -0.205 F 
ATOM     24  C   UNL     1      11.972   3.965   1.339  0.00  0.00    -0.021 A 
ATOM     25  C   UNL     1      11.682   4.431   0.057  0.00  0.00    +0.047 A 
ATOM     26  C   UNL     1      13.249   3.490   1.636  0.00  0.00    +0.008 A 
ATOM     27  C   UNL     1      12.669   4.426  -0.927  0.00  0.00    +0.058 A 
ATOM     28  C   UNL     1      14.237   3.484   0.652  0.00  0.00    +0.039 A 
ATOM     30  C   UNL     1      13.947   3.952  -0.630  0.00  0.00    +0.125 A 
ENDBRANCH  20  24
ENDBRANCH  17  20
ENDBRANCH  10  15
BRANCH  12   3
ATOM      3  O   UNL     1       9.118   5.358   9.712  0.00  0.00    -0.390 OA
ATOM     32  H   UNL     1       8.393   4.733   9.882  0.00  0.00    +0.210 HD
ENDBRANCH  12   3
BRANCH   6  14
ATOM     14  C   UNL     1       9.590   8.705   6.373  0.00  0.00    +0.120 C 
BRANCH  14  16
ATOM     16  C   UNL     1       8.765   9.092   5.175  0.00  0.00    -0.033 A 
ATOM     18  C   UNL     1       8.248  10.383   5.070  0.00  0.00    +0.007 A 
ATOM     19  C   UNL     1       8.517   8.158   4.168  0.00  0.00    +0.007 A 
ATOM     21  C   UNL     1       7.483  10.741   3.961  0.00  0.00    +0.023 A 
ATOM     22  C   UNL     1       7.751   8.516   3.058  0.00  0.00    +0.023 A 
ATOM     23  C   UNL     1       7.233   9.808   2.955  0.00  0.00    +0.033 A 
BRANCH  23   9
ATOM      5  O   UNL     1       4.249   9.799   2.555  0.00  0.00    -0.276 OA
ATOM      9  N   UNL     1       6.468  10.164   1.845  0.00  0.00    -0.286 N 
ATOM     29  C   UNL     1       5.073  10.139   1.712  0.00  0.00    +0.214 C 
ATOM     31  C   UNL     1       4.633  10.604   0.346  0.00  0.00    +0.109 C 
ATOM     33  H   UNL     1       7.001  10.474   1.035  0.00  0.00    +0.155 HD
ENDBRANCH  23   9
ENDBRANCH  14  16
ENDBRANCH   6  14
TORSDOF 7
ENDMDL
MODEL 8
REMARK VINA RESULT:      -6.6      1.636      2.009
REMARK  Name = 26744606
REMARK  8 active torsions:
REMARK  status: ('A' for Active; 'I' for Inactive)
REMARK    1  A    between atoms: O_3  and  C_12
REMARK    2  A    between atoms: N_6  and  C_14
REMARK    3  A    between atoms: N_9  and  C_23
REMARK    4  A    between atoms: C_10  and  C_15
REMARK    5  A    between atoms: C_14  and  C_16
REMARK    6  A    between atoms: C_17  and  C_20
REMARK    7  A    between atoms: C_20  and  C_24
REMARK    8  A    between atoms: C_29  and  C_31
REMARK                            x       y       z     vdW  Elec       q    Type
REMARK                         _______ _______ _______ _____ _____    ______ ____
ROOT
ATOM      6  N   UNL     1      -2.747 -10.668  13.432  0.00  0.00    -0.285 NA
ATOM     10  C   UNL     1      -2.990 -11.828  14.313  0.00  0.00    +0.149 C 
ATOM     11  C   UNL     1      -2.218 -11.508  15.607  0.00  0.00    +0.061 C 
ATOM     12  C   UNL     1      -1.538 -10.171  15.340  0.00  0.00    +0.130 C 
ATOM     13  C   UNL     1      -1.455 -10.112  13.826  0.00  0.00    +0.116 C 
ENDROOT
BRANCH  10  15
ATOM      4  O   UNL     1      -5.153 -12.673  13.549  0.00  0.00    -0.336 OA
ATOM      7  N   UNL     1      -5.189 -11.798  15.611  0.00  0.00    -0.194 NA
ATOM      8  N   UNL     1      -6.473 -12.794  14.000  0.00  0.00    -0.061 NA
ATOM     15  C   UNL     1      -4.463 -12.077  14.557  0.00  0.00    +0.245 A 
ATOM     17  C   UNL     1      -6.414 -12.256  15.222  0.00  0.00    +0.176 A 
BRANCH  17  20
ATOM     20  C   UNL     1      -7.595 -12.165  16.088  0.00  0.00    +0.116 C 
BRANCH  20  24
ATOM      1 CL   UNL     1      -6.886 -10.261  18.428  0.00  0.00    -0.083 Cl
ATOM      2  F   UNL     1     -10.092  -7.092  16.140  0.00  0.00    -0.205 F 
ATOM     24  C   UNL     1      -8.253 -10.789  16.129  0.00  0.00    -0.021 A 
ATOM     25  C   UNL     1      -7.983  -9.878  17.151  0.00  0.00    +0.047 A 
ATOM     26  C   UNL     1      -9.144 -10.450  15.111  0.00  0.00    +0.008 A 
ATOM     27  C   UNL     1      -8.603  -8.629  17.154  0.00  0.00    +0.058 A 
ATOM     28  C   UNL     1      -9.765  -9.201  15.114  0.00  0.00    +0.039 A 
ATOM     30  C   UNL     1      -9.495  -8.291  16.136  0.00  0.00    +0.125 A 
ENDBRANCH  20  24
ENDBRANCH  17  20
ENDBRANCH  10  15
BRANCH  12   3
ATOM      3  O   UNL     1      -0.258 -10.132  15.939  0.00  0.00    -0.390 OA
ATOM     32  H   UNL     1      -0.283  -9.461  16.642  0.00  0.00    +0.210 HD
ENDBRANCH  12   3
BRANCH   6  14
ATOM     14  C   UNL     1      -2.790 -11.006  12.014  0.00  0.00    +0.120 C 
BRANCH  14  16
ATOM     16  C   UNL     1      -3.705 -10.089  11.248  0.00  0.00    -0.033 A 
ATOM     18  C   UNL     1      -3.359  -9.672   9.963  0.00  0.00    +0.007 A 
ATOM     19  C   UNL     1      -4.900  -9.655  11.824  0.00  0.00    +0.007 A 
ATOM     21  C   UNL     1      -4.206  -8.822   9.253  0.00  0.00    +0.023 A 
ATOM     22  C   UNL     1      -5.747  -8.804  11.114  0.00  0.00    +0.023 A 
ATOM     23  C   UNL     1      -5.400  -8.387   9.829  0.00  0.00    +0.033 A 
BRANCH  23   9
ATOM      5  O   UNL     1      -7.994  -8.953   8.409  0.00  0.00    -0.276 OA
ATOM      9  N   UNL     1      -6.248  -7.536   9.120  0.00  0.00    -0.286 N 
ATOM     29  C   UNL     1      -7.450  -7.856   8.473  0.00  0.00    +0.214 C 
ATOM     31  C   UNL     1      -8.070  -6.648   7.817  0.00  0.00    +0.109 C 
ATOM     33  H   UNL     1      -5.943  -6.567   9.069  0.00  0.00    +0.155 HD
ENDBRANCH  23   9
ENDBRANCH  14  16
ENDBRANCH   6  14
TORSDOF 7
ENDMDL
MODEL 9
REMARK VINA RESULT:      -6.5     24.973     27.538
REMARK  Name = 26744606
REMARK  8 active torsions:
REMARK  status: ('A' for Active; 'I' for Inactive)
REMARK    1  A    between atoms: O_3  and  C_12
REMARK    2  A    between atoms: N_6  and  C_14
REMARK    3  A    between atoms: N_9  and  C_23
REMARK    4  A    between atoms: C_10  and  C_15
REMARK    5  A    between atoms: C_14  and  C_16
REMARK    6  A    between atoms: C_17  and  C_20
REMARK    7  A    between atoms: C_20  and  C_24
REMARK    8  A    between atoms: C_29  and  C_31
REMARK                            x       y       z     vdW  Elec       q    Type
REMARK                         _______ _______ _______ _____ _____    ______ ____
ROOT
ATOM      6  N   UNL     1      10.365   5.415   6.172  0.00  0.00    -0.285 NA
ATOM     10  C   UNL     1      10.573   6.590   7.042  0.00  0.00    +0.149 C 
ATOM     11  C   UNL     1      10.423   6.051   8.476  0.00  0.00    +0.061 C 
ATOM     12  C   UNL     1      10.087   4.573   8.309  0.00  0.00    +0.130 C 
ATOM     13  C   UNL     1       9.498   4.501   6.912  0.00  0.00    +0.116 C 
ENDROOT
BRANCH  10  15
ATOM      4  O   UNL     1      11.879   8.580   6.482  0.00  0.00    -0.336 OA
ATOM      7  N   UNL     1      13.116   6.752   6.865  0.00  0.00    -0.194 NA
ATOM      8  N   UNL     1      13.213   8.970   6.312  0.00  0.00    -0.061 NA
ATOM     15  C   UNL     1      11.910   7.261   6.806  0.00  0.00    +0.245 A 
ATOM     17  C   UNL     1      13.881   7.838   6.555  0.00  0.00    +0.176 A 
BRANCH  17  20
ATOM     20  C   UNL     1      15.345   7.771   6.491  0.00  0.00    +0.116 C 
BRANCH  20  24
ATOM      1 CL   UNL     1      18.050   9.250   6.183  0.00  0.00    -0.083 Cl
ATOM      2  F   UNL     1      17.424   8.295   1.258  0.00  0.00    -0.205 F 
ATOM     24  C   UNL     1      15.931   7.928   5.090  0.00  0.00    -0.021 A 
ATOM     25  C   UNL     1      17.144   8.582   4.874  0.00  0.00    +0.047 A 
ATOM     26  C   UNL     1      15.222   7.399   4.012  0.00  0.00    +0.008 A 
ATOM     27  C   UNL     1      17.649   8.705   3.580  0.00  0.00    +0.058 A 
ATOM     28  C   UNL     1      15.727   7.522   2.717  0.00  0.00    +0.039 A 
ATOM     30  C   UNL     1      16.940   8.176   2.502  0.00  0.00    +0.125 A 
ENDBRANCH  20  24
ENDBRANCH  17  20
ENDBRANCH  10  15
BRANCH  12   3
ATOM      3  O   UNL     1       9.161   4.156   9.292  0.00  0.00    -0.390 OA
ATOM     32  H   UNL     1       8.356   3.864   8.832  0.00  0.00    +0.210 HD
ENDBRANCH  12   3
BRANCH   6  14
ATOM     14  C   UNL     1       9.815   5.757   4.867  0.00  0.00    +0.120 C 
BRANCH  14  16
ATOM     16  C   UNL     1      10.797   5.492   3.757  0.00  0.00    -0.033 A 
ATOM     18  C   UNL     1      11.552   6.539   3.229  0.00  0.00    +0.007 A 
ATOM     19  C   UNL     1      10.951   4.199   3.256  0.00  0.00    +0.007 A 
ATOM     21  C   UNL     1      12.461   6.294   2.200  0.00  0.00    +0.023 A 
ATOM     22  C   UNL     1      11.860   3.954   2.227  0.00  0.00    +0.023 A 
ATOM     23  C   UNL     1      12.615   5.002   1.698  0.00  0.00    +0.033 A 
BRANCH  23   9
ATOM      5  O   UNL     1      15.114   3.324   1.659  0.00  0.00    -0.276 OA
ATOM      9  N   UNL     1      13.523   4.756   0.669  0.00  0.00    -0.286 N 
ATOM     29  C   UNL     1      14.678   3.963   0.707  0.00  0.00    +0.214 C 
ATOM     31  C   UNL     1      15.394   3.954  -0.620  0.00  0.00    +0.109 C 
ATOM     33  H   UNL     1      13.314   5.220  -0.212  0.00  0.00    +0.155 HD
ENDBRANCH  23   9
ENDBRANCH  14  16
ENDBRANCH   6  14
TORSDOF 7
ENDMDL
MODEL 10
REMARK VINA RESULT:      -6.5     18.796     23.060
REMARK  Name = 26744606
REMARK  8 active torsions:
REMARK  status: ('A' for Active; 'I' for Inactive)
REMARK    1  A    between atoms: O_3  and  C_12
REMARK    2  A    between atoms: N_6  and  C_14
REMARK    3  A    between atoms: N_9  and  C_23
REMARK    4  A    between atoms: C_10  and  C_15
REMARK    5  A    between atoms: C_14  and  C_16
REMARK    6  A    between atoms: C_17  and  C_20
REMARK    7  A    between atoms: C_20  and  C_24
REMARK    8  A    between atoms: C_29  and  C_31
REMARK                            x       y       z     vdW  Elec       q    Type
REMARK                         _______ _______ _______ _____ _____    ______ ____
ROOT
ATOM      6  N   UNL     1      -2.946  10.005   5.166  0.00  0.00    -0.285 NA
ATOM     10  C   UNL     1      -1.963  10.978   4.649  0.00  0.00    +0.149 C 
ATOM     11  C   UNL     1      -0.729  10.811   5.556  0.00  0.00    +0.061 C 
ATOM     12  C   UNL     1      -1.131   9.754   6.577  0.00  0.00    +0.130 C 
ATOM     13  C   UNL     1      -2.647   9.827   6.585  0.00  0.00    +0.116 C 
ENDROOT
BRANCH  10  15
ATOM      4  O   UNL     1      -1.151  11.836   2.509  0.00  0.00    -0.336 OA
ATOM      7  N   UNL     1      -1.784   9.688   2.453  0.00  0.00    -0.194 NA
ATOM      8  N   UNL     1      -0.943  11.402   1.194  0.00  0.00    -0.061 NA
ATOM     15  C   UNL     1      -1.647  10.766   3.184  0.00  0.00    +0.245 A 
ATOM     17  C   UNL     1      -1.339  10.127   1.241  0.00  0.00    +0.176 A 
BRANCH  17  20
ATOM     20  C   UNL     1      -1.298   9.256   0.061  0.00  0.00    +0.116 C 
BRANCH  20  24
ATOM      1 CL   UNL     1       0.072  10.567  -2.389  0.00  0.00    -0.083 Cl
ATOM      2  F   UNL     1      -4.639  10.916  -4.189  0.00  0.00    -0.205 F 
ATOM     24  C   UNL     1      -2.174   9.714  -1.102  0.00  0.00    -0.021 A 
ATOM     25  C   UNL     1      -1.628  10.313  -2.238  0.00  0.00    +0.047 A 
ATOM     26  C   UNL     1      -3.552   9.523  -1.009  0.00  0.00    +0.008 A 
ATOM     27  C   UNL     1      -2.460  10.718  -3.281  0.00  0.00    +0.058 A 
ATOM     28  C   UNL     1      -4.385   9.928  -2.052  0.00  0.00    +0.039 A 
ATOM     30  C   UNL     1      -3.839  10.525  -3.188  0.00  0.00    +0.125 A 
ENDBRANCH  20  24
ENDBRANCH  17  20
ENDBRANCH  10  15
BRANCH  12   3
ATOM      3  O   UNL     1      -0.584  10.052   7.847  0.00  0.00    -0.390 OA
ATOM     32  H   UNL     1      -1.115  10.768   8.234  0.00  0.00    +0.210 HD
ENDBRANCH  12   3
BRANCH   6  14
ATOM     14  C   UNL     1      -4.328  10.412   4.944  0.00  0.00    +0.120 C 
BRANCH  14  16
ATOM     16  C   UNL     1      -5.221   9.233   4.664  0.00  0.00    -0.033 A 
ATOM     18  C   UNL     1      -6.518   9.435   4.193  0.00  0.00    +0.007 A 
ATOM     19  C   UNL     1      -4.752   7.936   4.879  0.00  0.00    +0.007 A 
ATOM     21  C   UNL     1      -7.346   8.343   3.935  0.00  0.00    +0.023 A 
ATOM     22  C   UNL     1      -5.580   6.844   4.621  0.00  0.00    +0.023 A 
ATOM     23  C   UNL     1      -6.878   7.047   4.150  0.00  0.00    +0.033 A 
BRANCH  23   9
ATOM      5  O   UNL     1      -9.066   5.818   5.814  0.00  0.00    -0.276 OA
ATOM      9  N   UNL     1      -7.704   5.954   3.893  0.00  0.00    -0.286 N 
ATOM     29  C   UNL     1      -8.712   5.421   4.708  0.00  0.00    +0.214 C 
ATOM     31  C   UNL     1      -9.379   4.230   4.067  0.00  0.00    +0.109 C 
ATOM     33  H   UNL     1      -7.543   5.491   3.001  0.00  0.00    +0.155 HD
ENDBRANCH  23   9
ENDBRANCH  14  16
ENDBRANCH   6  14
TORSDOF 7
ENDMDL
