MODEL 1
REMARK VINA RESULT:      -7.0      0.000      0.000
REMARK  Name = 26743452
REMARK  7 active torsions:
REMARK  status: ('A' for Active; 'I' for Inactive)
REMARK    1  A    between atoms: S_1  and  C_23
REMARK    2  A    between atoms: S_1  and  C_24
REMARK    3  A    between atoms: O_3  and  C_15
REMARK    4  A    between atoms: N_7  and  C_11
REMARK    5  A    between atoms: N_8  and  C_21
REMARK    6  A    between atoms: C_12  and  C_20
REMARK    7  A    between atoms: C_22  and  C_23
REMARK                            x       y       z     vdW  Elec       q    Type
REMARK                         _______ _______ _______ _____ _____    ______ ____
ROOT
ATOM      4  O   UNL     1      12.614   8.103  16.827  0.00  0.00    -0.336 OA
ATOM      9  N   UNL     1      14.214   9.482  17.572  0.00  0.00    -0.193 NA
ATOM     10  N   UNL     1      12.610   9.205  15.964  0.00  0.00    -0.060 NA
ATOM     20  C   UNL     1      13.587   8.346  17.744  0.00  0.00    +0.245 A 
ATOM     22  C   UNL     1      13.580   9.973  16.467  0.00  0.00    +0.193 A 
ENDROOT
BRANCH  20  12
ATOM      7  N   UNL     1      14.477   7.811  20.006  0.00  0.00    -0.286 NA
ATOM     12  C   UNL     1      13.797   7.286  18.805  0.00  0.00    +0.149 C 
ATOM     13  C   UNL     1      14.005   7.007  21.133  0.00  0.00    +0.116 C 
ATOM     14  C   UNL     1      12.474   6.695  19.327  0.00  0.00    +0.061 C 
ATOM     15  C   UNL     1      12.523   6.895  20.837  0.00  0.00    +0.130 C 
BRANCH   7  11
ATOM      8  N   UNL     1      18.534   6.928  20.914  0.00  0.00    -0.305 NA
ATOM     11  C   UNL     1      15.934   7.800  19.894  0.00  0.00    +0.060 C 
ATOM     16  C   UNL     1      16.583   8.436  21.126  0.00  0.00    +0.034 C 
ATOM     17  C   UNL     1      16.442   6.367  19.718  0.00  0.00    +0.034 C 
ATOM     18  C   UNL     1      18.109   8.327  21.061  0.00  0.00    +0.085 C 
ATOM     19  C   UNL     1      17.971   6.325  19.698  0.00  0.00    +0.085 C 
ATOM     21  C   UNL     1      19.994   6.835  20.904  0.00  0.00    +0.104 C 
ENDBRANCH   7  11
BRANCH  15   3
ATOM      3  O   UNL     1      11.935   5.796  21.507  0.00  0.00    -0.390 OA
ATOM     30  H   UNL     1      11.692   6.095  22.400  0.00  0.00    +0.210 HD
ENDBRANCH  15   3
ENDBRANCH  20  12
BRANCH  22  23
ATOM     23  C   UNL     1      13.940  11.263  15.869  0.00  0.00    +0.251 C 
BRANCH  23   1
ATOM      1  S   UNL     1      15.111  10.980  14.570  0.00  0.00    +0.004 S 
ATOM      5  O   UNL     1      14.661  11.721  13.406  0.00  0.00    -0.169 OA
ATOM      6  O   UNL     1      15.366   9.555  14.482  0.00  0.00    -0.169 OA
BRANCH   1  24
ATOM      2  F   UNL     1      20.057  13.507  16.546  0.00  0.00    -0.205 F 
ATOM     24  C   UNL     1      16.593  11.737  15.163  0.00  0.00    +0.089 A 
ATOM     25  C   UNL     1      16.571  12.484  16.341  0.00  0.00    +0.030 A 
ATOM     26  C   UNL     1      17.784  11.588  14.453  0.00  0.00    +0.030 A 
ATOM     27  C   UNL     1      17.742  13.082  16.808  0.00  0.00    +0.040 A 
ATOM     28  C   UNL     1      18.954  12.186  14.921  0.00  0.00    +0.040 A 
ATOM     29  C   UNL     1      18.933  12.933  16.099  0.00  0.00    +0.124 A 
ENDBRANCH   1  24
ENDBRANCH  23   1
ENDBRANCH  22  23
TORSDOF 6
ENDMDL
MODEL 2
REMARK VINA RESULT:      -6.9     15.347     18.268
REMARK  Name = 26743452
REMARK  7 active torsions:
REMARK  status: ('A' for Active; 'I' for Inactive)
REMARK    1  A    between atoms: S_1  and  C_23
REMARK    2  A    between atoms: S_1  and  C_24
REMARK    3  A    between atoms: O_3  and  C_15
REMARK    4  A    between atoms: N_7  and  C_11
REMARK    5  A    between atoms: N_8  and  C_21
REMARK    6  A    between atoms: C_12  and  C_20
REMARK    7  A    between atoms: C_22  and  C_23
REMARK                            x       y       z     vdW  Elec       q    Type
REMARK                         _______ _______ _______ _____ _____    ______ ____
ROOT
ATOM      4  O   UNL     1      11.945   6.033   1.489  0.00  0.00    -0.336 OA
ATOM      9  N   UNL     1      11.353   4.360   2.855  0.00  0.00    -0.193 NA
ATOM     10  N   UNL     1      11.047   6.584   2.411  0.00  0.00    -0.060 NA
ATOM     20  C   UNL     1      12.070   4.722   1.821  0.00  0.00    +0.245 A 
ATOM     22  C   UNL     1      10.743   5.536   3.183  0.00  0.00    +0.193 A 
ENDROOT
BRANCH  20  12
ATOM      7  N   UNL     1      13.292   4.528  -0.339  0.00  0.00    -0.286 NA
ATOM     12  C   UNL     1      13.001   3.893   0.962  0.00  0.00    +0.149 C 
ATOM     13  C   UNL     1      14.629   4.083  -0.727  0.00  0.00    +0.116 C 
ATOM     14  C   UNL     1      14.380   3.678   1.613  0.00  0.00    +0.061 C 
ATOM     15  C   UNL     1      15.384   4.183   0.584  0.00  0.00    +0.130 C 
BRANCH   7  11
ATOM      8  N   UNL     1      11.655   3.383  -4.091  0.00  0.00    -0.305 NA
ATOM     11  C   UNL     1      12.293   4.228  -1.363  0.00  0.00    +0.060 C 
ATOM     16  C   UNL     1      12.441   5.166  -2.564  0.00  0.00    +0.034 C 
ATOM     17  C   UNL     1      12.422   2.773  -1.818  0.00  0.00    +0.034 C 
ATOM     18  C   UNL     1      11.468   4.782  -3.682  0.00  0.00    +0.085 C 
ATOM     19  C   UNL     1      11.450   2.467  -2.960  0.00  0.00    +0.085 C 
ATOM     21  C   UNL     1      10.755   3.047  -5.193  0.00  0.00    +0.104 C 
ENDBRANCH   7  11
BRANCH  15   3
ATOM      3  O   UNL     1      16.547   3.378   0.583  0.00  0.00    -0.390 OA
ATOM     30  H   UNL     1      16.710   3.102  -0.336  0.00  0.00    +0.210 HD
ENDBRANCH  15   3
ENDBRANCH  20  12
BRANCH  22  23
ATOM     23  C   UNL     1       9.813   5.646   4.312  0.00  0.00    +0.251 C 
BRANCH  23   1
ATOM      1  S   UNL     1      10.565   6.636   5.574  0.00  0.00    +0.004 S 
ATOM      5  O   UNL     1      10.003   7.971   5.476  0.00  0.00    -0.169 OA
ATOM      6  O   UNL     1      12.002   6.437   5.521  0.00  0.00    -0.169 OA
BRANCH   1  24
ATOM      2  F   UNL     1       8.665   4.212  10.600  0.00  0.00    -0.205 F 
ATOM     24  C   UNL     1       9.995   5.910   7.079  0.00  0.00    +0.089 A 
ATOM     25  C   UNL     1       9.417   6.711   8.065  0.00  0.00    +0.030 A 
ATOM     26  C   UNL     1      10.123   4.536   7.283  0.00  0.00    +0.030 A 
ATOM     27  C   UNL     1       8.967   6.137   9.254  0.00  0.00    +0.040 A 
ATOM     28  C   UNL     1       9.673   3.963   8.472  0.00  0.00    +0.040 A 
ATOM     29  C   UNL     1       9.095   4.763   9.458  0.00  0.00    +0.124 A 
ENDBRANCH   1  24
ENDBRANCH  23   1
ENDBRANCH  22  23
TORSDOF 6
ENDMDL
MODEL 3
REMARK VINA RESULT:      -6.8      4.435      6.602
REMARK  Name = 26743452
REMARK  7 active torsions:
REMARK  status: ('A' for Active; 'I' for Inactive)
REMARK    1  A    between atoms: S_1  and  C_23
REMARK    2  A    between atoms: S_1  and  C_24
REMARK    3  A    between atoms: O_3  and  C_15
REMARK    4  A    between atoms: N_7  and  C_11
REMARK    5  A    between atoms: N_8  and  C_21
REMARK    6  A    between atoms: C_12  and  C_20
REMARK    7  A    between atoms: C_22  and  C_23
REMARK                            x       y       z     vdW  Elec       q    Type
REMARK                         _______ _______ _______ _____ _____    ______ ____
ROOT
ATOM      4  O   UNL     1      15.517   7.041  21.456  0.00  0.00    -0.336 OA
ATOM      9  N   UNL     1      15.146   6.974  19.248  0.00  0.00    -0.193 NA
ATOM     10  N   UNL     1      14.128   6.966  21.298  0.00  0.00    -0.060 NA
ATOM     20  C   UNL     1      16.040   7.041  20.202  0.00  0.00    +0.245 A 
ATOM     22  C   UNL     1      13.987   6.929  19.969  0.00  0.00    +0.193 A 
ENDROOT
BRANCH  20  12
ATOM      7  N   UNL     1      18.207   7.169  21.419  0.00  0.00    -0.286 NA
ATOM     12  C   UNL     1      17.548   7.116  20.098  0.00  0.00    +0.149 C 
ATOM     13  C   UNL     1      19.518   6.544  21.253  0.00  0.00    +0.116 C 
ATOM     14  C   UNL     1      18.160   5.887  19.402  0.00  0.00    +0.061 C 
ATOM     15  C   UNL     1      19.183   5.342  20.391  0.00  0.00    +0.130 C 
BRANCH   7  11
ATOM      8  N   UNL     1      19.591  11.154  21.943  0.00  0.00    -0.305 NA
ATOM     11  C   UNL     1      18.308   8.524  21.958  0.00  0.00    +0.060 C 
ATOM     16  C   UNL     1      19.685   8.765  22.583  0.00  0.00    +0.034 C 
ATOM     17  C   UNL     1      18.048   9.554  20.856  0.00  0.00    +0.034 C 
ATOM     18  C   UNL     1      19.830  10.216  23.049  0.00  0.00    +0.085 C 
ATOM     19  C   UNL     1      18.246  10.979  21.378  0.00  0.00    +0.085 C 
ATOM     21  C   UNL     1      19.783  12.533  22.392  0.00  0.00    +0.104 C 
ENDBRANCH   7  11
BRANCH  15   3
ATOM      3  O   UNL     1      20.323   4.849  19.713  0.00  0.00    -0.390 OA
ATOM     30  H   UNL     1      20.743   5.602  19.263  0.00  0.00    +0.210 HD
ENDBRANCH  15   3
ENDBRANCH  20  12
BRANCH  22  23
ATOM     23  C   UNL     1      12.671   6.845  19.328  0.00  0.00    +0.251 C 
BRANCH  23   1
ATOM      1  S   UNL     1      12.156   8.477  18.871  0.00  0.00    +0.004 S 
ATOM      5  O   UNL     1      10.973   8.346  18.040  0.00  0.00    -0.169 OA
ATOM      6  O   UNL     1      13.314   9.208  18.393  0.00  0.00    -0.169 OA
BRANCH   1  24
ATOM      2  F   UNL     1      10.540  10.937  23.979  0.00  0.00    -0.205 F 
ATOM     24  C   UNL     1      11.672   9.213  20.402  0.00  0.00    +0.089 A 
ATOM     25  C   UNL     1      10.860   8.508  21.289  0.00  0.00    +0.030 A 
ATOM     26  C   UNL     1      12.103  10.500  20.723  0.00  0.00    +0.030 A 
ATOM     27  C   UNL     1      10.477   9.089  22.498  0.00  0.00    +0.040 A 
ATOM     28  C   UNL     1      11.720  11.082  21.932  0.00  0.00    +0.040 A 
ATOM     29  C   UNL     1      10.908  10.377  22.820  0.00  0.00    +0.124 A 
ENDBRANCH   1  24
ENDBRANCH  23   1
ENDBRANCH  22  23
TORSDOF 6
ENDMDL
MODEL 4
REMARK VINA RESULT:      -6.8      2.427      2.975
REMARK  Name = 26743452
REMARK  7 active torsions:
REMARK  status: ('A' for Active; 'I' for Inactive)
REMARK    1  A    between atoms: S_1  and  C_23
REMARK    2  A    between atoms: S_1  and  C_24
REMARK    3  A    between atoms: O_3  and  C_15
REMARK    4  A    between atoms: N_7  and  C_11
REMARK    5  A    between atoms: N_8  and  C_21
REMARK    6  A    between atoms: C_12  and  C_20
REMARK    7  A    between atoms: C_22  and  C_23
REMARK                            x       y       z     vdW  Elec       q    Type
REMARK                         _______ _______ _______ _____ _____    ______ ____
ROOT
ATOM      4  O   UNL     1      12.810   7.860  16.705  0.00  0.00    -0.336 OA
ATOM      9  N   UNL     1      14.161   9.408  17.596  0.00  0.00    -0.193 NA
ATOM     10  N   UNL     1      12.802   8.940  15.815  0.00  0.00    -0.060 NA
ATOM     20  C   UNL     1      13.635   8.217  17.725  0.00  0.00    +0.245 A 
ATOM     22  C   UNL     1      13.622   9.813  16.409  0.00  0.00    +0.193 A 
ENDROOT
BRANCH  20  12
ATOM      7  N   UNL     1      14.528   7.760  20.003  0.00  0.00    -0.286 NA
ATOM     12  C   UNL     1      13.817   7.203  18.834  0.00  0.00    +0.149 C 
ATOM     13  C   UNL     1      14.040   7.029  21.171  0.00  0.00    +0.116 C 
ATOM     14  C   UNL     1      12.479   6.687  19.396  0.00  0.00    +0.061 C 
ATOM     15  C   UNL     1      12.551   6.957  20.894  0.00  0.00    +0.130 C 
BRANCH   7  11
ATOM      8  N   UNL     1      18.544   6.619  20.805  0.00  0.00    -0.305 NA
ATOM     11  C   UNL     1      15.983   7.690  19.878  0.00  0.00    +0.060 C 
ATOM     16  C   UNL     1      16.667   8.195  21.151  0.00  0.00    +0.034 C 
ATOM     17  C   UNL     1      16.422   6.253  19.585  0.00  0.00    +0.034 C 
ATOM     18  C   UNL     1      18.185   8.021  21.064  0.00  0.00    +0.085 C 
ATOM     19  C   UNL     1      17.947   6.141  19.549  0.00  0.00    +0.085 C 
ATOM     21  C   UNL     1      19.997   6.460  20.775  0.00  0.00    +0.104 C 
ENDBRANCH   7  11
BRANCH  15   3
ATOM      3  O   UNL     1      11.932   5.915  21.622  0.00  0.00    -0.390 OA
ATOM     30  H   UNL     1      11.207   6.309  22.137  0.00  0.00    +0.210 HD
ENDBRANCH  15   3
ENDBRANCH  20  12
BRANCH  22  23
ATOM     23  C   UNL     1      13.922  11.122  15.820  0.00  0.00    +0.251 C 
BRANCH  23   1
ATOM      1  S   UNL     1      15.338  10.962  14.769  0.00  0.00    +0.004 S 
ATOM      5  O   UNL     1      15.407   9.578  14.336  0.00  0.00    -0.169 OA
ATOM      6  O   UNL     1      16.473  11.585  15.425  0.00  0.00    -0.169 OA
BRANCH   1  24
ATOM      2  F   UNL     1      14.008  14.284  10.085  0.00  0.00    -0.205 F 
ATOM     24  C   UNL     1      14.940  11.956  13.365  0.00  0.00    +0.089 A 
ATOM     25  C   UNL     1      15.804  11.996  12.271  0.00  0.00    +0.030 A 
ATOM     26  C   UNL     1      13.761  12.702  13.351  0.00  0.00    +0.030 A 
ATOM     27  C   UNL     1      15.489  12.782  11.162  0.00  0.00    +0.040 A 
ATOM     28  C   UNL     1      13.447  13.488  12.242  0.00  0.00    +0.040 A 
ATOM     29  C   UNL     1      14.311  13.528  11.148  0.00  0.00    +0.124 A 
ENDBRANCH   1  24
ENDBRANCH  23   1
ENDBRANCH  22  23
TORSDOF 6
ENDMDL
MODEL 5
REMARK VINA RESULT:      -6.8      6.287      8.477
REMARK  Name = 26743452
REMARK  7 active torsions:
REMARK  status: ('A' for Active; 'I' for Inactive)
REMARK    1  A    between atoms: S_1  and  C_23
REMARK    2  A    between atoms: S_1  and  C_24
REMARK    3  A    between atoms: O_3  and  C_15
REMARK    4  A    between atoms: N_7  and  C_11
REMARK    5  A    between atoms: N_8  and  C_21
REMARK    6  A    between atoms: C_12  and  C_20
REMARK    7  A    between atoms: C_22  and  C_23
REMARK                            x       y       z     vdW  Elec       q    Type
REMARK                         _______ _______ _______ _____ _____    ______ ____
ROOT
ATOM      4  O   UNL     1      12.895   9.877  22.349  0.00  0.00    -0.336 OA
ATOM      9  N   UNL     1      11.316  11.271  21.588  0.00  0.00    -0.193 NA
ATOM     10  N   UNL     1      13.072  11.080  23.043  0.00  0.00    -0.060 NA
ATOM     20  C   UNL     1      11.842  10.074  21.514  0.00  0.00    +0.245 A 
ATOM     22  C   UNL     1      12.104  11.851  22.540  0.00  0.00    +0.193 A 
ENDROOT
BRANCH  20  12
ATOM      7  N   UNL     1      12.570   8.374  19.848  0.00  0.00    -0.286 NA
ATOM     12  C   UNL     1      11.442   8.904  20.642  0.00  0.00    +0.149 C 
ATOM     13  C   UNL     1      12.303   6.951  19.647  0.00  0.00    +0.116 C 
ATOM     14  C   UNL     1      10.934   7.699  21.455  0.00  0.00    +0.061 C 
ATOM     15  C   UNL     1      11.808   6.531  21.017  0.00  0.00    +0.130 C 
BRANCH   7  11
ATOM      8  N   UNL     1      14.549   9.950  16.431  0.00  0.00    -0.305 NA
ATOM     11  C   UNL     1      12.766   9.081  18.583  0.00  0.00    +0.060 C 
ATOM     16  C   UNL     1      13.743  10.248  18.753  0.00  0.00    +0.034 C 
ATOM     17  C   UNL     1      13.284   8.118  17.512  0.00  0.00    +0.034 C 
ATOM     18  C   UNL     1      14.034  10.919  17.409  0.00  0.00    +0.085 C 
ATOM     19  C   UNL     1      13.590   8.858  16.209  0.00  0.00    +0.085 C 
ATOM     21  C   UNL     1      14.869  10.616  15.169  0.00  0.00    +0.104 C 
ENDBRANCH   7  11
BRANCH  15   3
ATOM      3  O   UNL     1      11.055   5.335  20.959  0.00  0.00    -0.390 OA
ATOM     30  H   UNL     1      11.576   4.640  21.395  0.00  0.00    +0.210 HD
ENDBRANCH  15   3
ENDBRANCH  20  12
BRANCH  22  23
ATOM     23  C   UNL     1      11.902  13.235  22.984  0.00  0.00    +0.251 C 
BRANCH  23   1
ATOM      1  S   UNL     1      10.706  13.243  24.290  0.00  0.00    +0.004 S 
ATOM      5  O   UNL     1      10.371  11.862  24.586  0.00  0.00    -0.169 OA
ATOM      6  O   UNL     1       9.665  14.197  23.955  0.00  0.00    -0.169 OA
BRANCH   1  24
ATOM      2  F   UNL     1      13.651  15.441  28.899  0.00  0.00    -0.205 F 
ATOM     24  C   UNL     1      11.589  13.902  25.670  0.00  0.00    +0.089 A 
ATOM     25  C   UNL     1      12.866  13.428  25.972  0.00  0.00    +0.030 A 
ATOM     26  C   UNL     1      11.009  14.896  26.458  0.00  0.00    +0.030 A 
ATOM     27  C   UNL     1      13.563  13.948  27.062  0.00  0.00    +0.040 A 
ATOM     28  C   UNL     1      11.707  15.416  27.549  0.00  0.00    +0.040 A 
ATOM     29  C   UNL     1      12.984  14.942  27.851  0.00  0.00    +0.124 A 
ENDBRANCH   1  24
ENDBRANCH  23   1
ENDBRANCH  22  23
TORSDOF 6
ENDMDL
MODEL 6
REMARK VINA RESULT:      -6.5     28.366     30.635
REMARK  Name = 26743452
REMARK  7 active torsions:
REMARK  status: ('A' for Active; 'I' for Inactive)
REMARK    1  A    between atoms: S_1  and  C_23
REMARK    2  A    between atoms: S_1  and  C_24
REMARK    3  A    between atoms: O_3  and  C_15
REMARK    4  A    between atoms: N_7  and  C_11
REMARK    5  A    between atoms: N_8  and  C_21
REMARK    6  A    between atoms: C_12  and  C_20
REMARK    7  A    between atoms: C_22  and  C_23
REMARK                            x       y       z     vdW  Elec       q    Type
REMARK                         _______ _______ _______ _____ _____    ______ ____
ROOT
ATOM      4  O   UNL     1      -3.701 -10.652  15.957  0.00  0.00    -0.336 OA
ATOM      9  N   UNL     1      -5.772 -10.834  15.123  0.00  0.00    -0.193 NA
ATOM     10  N   UNL     1      -4.546 -10.018  16.874  0.00  0.00    -0.060 NA
ATOM     20  C   UNL     1      -4.502 -11.105  14.957  0.00  0.00    +0.245 A 
ATOM     22  C   UNL     1      -5.750 -10.167  16.314  0.00  0.00    +0.193 A 
ENDROOT
BRANCH  20  12
ATOM      7  N   UNL     1      -3.008 -10.946  12.972  0.00  0.00    -0.286 NA
ATOM     12  C   UNL     1      -3.819 -11.840  13.823  0.00  0.00    +0.149 C 
ATOM     13  C   UNL     1      -1.916 -11.759  12.439  0.00  0.00    +0.116 C 
ATOM     14  C   UNL     1      -2.832 -12.914  14.318  0.00  0.00    +0.061 C 
ATOM     15  C   UNL     1      -1.505 -12.565  13.656  0.00  0.00    +0.130 C 
BRANCH   7  11
ATOM      8  N   UNL     1      -4.591 -10.173   9.104  0.00  0.00    -0.305 NA
ATOM     11  C   UNL     1      -3.782 -10.301  11.913  0.00  0.00    +0.060 C 
ATOM     16  C   UNL     1      -2.862  -9.745  10.823  0.00  0.00    +0.034 C 
ATOM     17  C   UNL     1      -4.775 -11.294  11.302  0.00  0.00    +0.034 C 
ATOM     18  C   UNL     1      -3.675  -9.168   9.661  0.00  0.00    +0.085 C 
ATOM     19  C   UNL     1      -5.525 -10.666  10.126  0.00  0.00    +0.085 C 
ATOM     21  C   UNL     1      -5.323  -9.622   7.964  0.00  0.00    +0.104 C 
ENDBRANCH   7  11
BRANCH  15   3
ATOM      3  O   UNL     1      -0.801 -13.737  13.295  0.00  0.00    -0.390 OA
ATOM     30  H   UNL     1      -1.351 -14.498  13.550  0.00  0.00    +0.210 HD
ENDBRANCH  15   3
ENDBRANCH  20  12
BRANCH  22  23
ATOM     23  C   UNL     1      -6.970  -9.646  16.940  0.00  0.00    +0.251 C 
BRANCH  23   1
ATOM      1  S   UNL     1      -7.388 -10.680  18.316  0.00  0.00    +0.004 S 
ATOM      5  O   UNL     1      -6.622 -10.218  19.459  0.00  0.00    -0.169 OA
ATOM      6  O   UNL     1      -7.313 -12.065  17.891  0.00  0.00    -0.169 OA
BRANCH   1  24
ATOM      2  F   UNL     1     -13.071  -9.477  19.316  0.00  0.00    -0.205 F 
ATOM     24  C   UNL     1      -9.091 -10.320  18.615  0.00  0.00    +0.089 A 
ATOM     25  C   UNL     1      -9.795  -9.500  17.734  0.00  0.00    +0.030 A 
ATOM     26  C   UNL     1      -9.731 -10.855  19.732  0.00  0.00    +0.030 A 
ATOM     27  C   UNL     1     -11.140  -9.215  17.970  0.00  0.00    +0.040 A 
ATOM     28  C   UNL     1     -11.076 -10.571  19.969  0.00  0.00    +0.040 A 
ATOM     29  C   UNL     1     -11.781  -9.751  19.088  0.00  0.00    +0.124 A 
ENDBRANCH   1  24
ENDBRANCH  23   1
ENDBRANCH  22  23
TORSDOF 6
ENDMDL
MODEL 7
REMARK VINA RESULT:      -6.5      5.880      7.728
REMARK  Name = 26743452
REMARK  7 active torsions:
REMARK  status: ('A' for Active; 'I' for Inactive)
REMARK    1  A    between atoms: S_1  and  C_23
REMARK    2  A    between atoms: S_1  and  C_24
REMARK    3  A    between atoms: O_3  and  C_15
REMARK    4  A    between atoms: N_7  and  C_11
REMARK    5  A    between atoms: N_8  and  C_21
REMARK    6  A    between atoms: C_12  and  C_20
REMARK    7  A    between atoms: C_22  and  C_23
REMARK                            x       y       z     vdW  Elec       q    Type
REMARK                         _______ _______ _______ _____ _____    ______ ____
ROOT
ATOM      4  O   UNL     1      13.757   9.671  22.347  0.00  0.00    -0.336 OA
ATOM      9  N   UNL     1      11.875  10.807  22.777  0.00  0.00    -0.193 NA
ATOM     10  N   UNL     1      14.106  10.669  23.265  0.00  0.00    -0.060 NA
ATOM     20  C   UNL     1      12.427   9.822  22.114  0.00  0.00    +0.245 A 
ATOM     22  C   UNL     1      12.944  11.296  23.470  0.00  0.00    +0.193 A 
ENDROOT
BRANCH  20  12
ATOM      7  N   UNL     1      12.772   8.288  20.184  0.00  0.00    -0.286 NA
ATOM     12  C   UNL     1      11.796   8.849  21.141  0.00  0.00    +0.149 C 
ATOM     13  C   UNL     1      12.286   6.955  19.831  0.00  0.00    +0.116 C 
ATOM     14  C   UNL     1      11.180   7.623  21.839  0.00  0.00    +0.061 C 
ATOM     15  C   UNL     1      11.839   6.419  21.177  0.00  0.00    +0.130 C 
BRANCH   7  11
ATOM      8  N   UNL     1      14.285   9.590  16.432  0.00  0.00    -0.305 NA
ATOM     11  C   UNL     1      12.974   9.130  19.007  0.00  0.00    +0.060 C 
ATOM     16  C   UNL     1      14.432   9.586  18.902  0.00  0.00    +0.034 C 
ATOM     17  C   UNL     1      12.571   8.373  17.739  0.00  0.00    +0.034 C 
ATOM     18  C   UNL     1      14.668  10.376  17.613  0.00  0.00    +0.085 C 
ATOM     19  C   UNL     1      12.868   9.202  16.487  0.00  0.00    +0.085 C 
ATOM     21  C   UNL     1      14.564  10.338  15.206  0.00  0.00    +0.104 C 
ENDBRANCH   7  11
BRANCH  15   3
ATOM      3  O   UNL     1      10.916   5.356  21.038  0.00  0.00    -0.390 OA
ATOM     30  H   UNL     1      11.015   4.999  20.139  0.00  0.00    +0.210 HD
ENDBRANCH  15   3
ENDBRANCH  20  12
BRANCH  22  23
ATOM     23  C   UNL     1      12.827  12.438  24.384  0.00  0.00    +0.251 C 
BRANCH  23   1
ATOM      1  S   UNL     1      12.982  13.933  23.447  0.00  0.00    +0.004 S 
ATOM      5  O   UNL     1      13.771  13.630  22.267  0.00  0.00    -0.169 OA
ATOM      6  O   UNL     1      13.381  15.000  24.346  0.00  0.00    -0.169 OA
BRANCH   1  24
ATOM      2  F   UNL     1       7.469  15.093  21.713  0.00  0.00    -0.205 F 
ATOM     24  C   UNL     1      11.330  14.281  22.928  0.00  0.00    +0.089 A 
ATOM     25  C   UNL     1      10.355  14.599  23.873  0.00  0.00    +0.030 A 
ATOM     26  C   UNL     1      11.002  14.238  21.574  0.00  0.00    +0.030 A 
ATOM     27  C   UNL     1       9.050  14.873  23.463  0.00  0.00    +0.040 A 
ATOM     28  C   UNL     1       9.697  14.512  21.164  0.00  0.00    +0.040 A 
ATOM     29  C   UNL     1       8.721  14.830  22.108  0.00  0.00    +0.124 A 
ENDBRANCH   1  24
ENDBRANCH  23   1
ENDBRANCH  22  23
TORSDOF 6
ENDMDL
MODEL 8
REMARK VINA RESULT:      -6.4     27.575     29.937
REMARK  Name = 26743452
REMARK  7 active torsions:
REMARK  status: ('A' for Active; 'I' for Inactive)
REMARK    1  A    between atoms: S_1  and  C_23
REMARK    2  A    between atoms: S_1  and  C_24
REMARK    3  A    between atoms: O_3  and  C_15
REMARK    4  A    between atoms: N_7  and  C_11
REMARK    5  A    between atoms: N_8  and  C_21
REMARK    6  A    between atoms: C_12  and  C_20
REMARK    7  A    between atoms: C_22  and  C_23
REMARK                            x       y       z     vdW  Elec       q    Type
REMARK                         _______ _______ _______ _____ _____    ______ ____
ROOT
ATOM      4  O   UNL     1      -4.927 -11.246  18.226  0.00  0.00    -0.336 OA
ATOM      9  N   UNL     1      -4.849 -10.065  16.324  0.00  0.00    -0.193 NA
ATOM     10  N   UNL     1      -3.669 -11.494  17.666  0.00  0.00    -0.060 NA
ATOM     20  C   UNL     1      -5.558 -10.396  17.374  0.00  0.00    +0.245 A 
ATOM     22  C   UNL     1      -3.697 -10.763  16.548  0.00  0.00    +0.193 A 
ENDROOT
BRANCH  20  12
ATOM      7  N   UNL     1      -8.003 -10.731  17.050  0.00  0.00    -0.286 NA
ATOM     12  C   UNL     1      -6.957  -9.966  17.760  0.00  0.00    +0.149 C 
ATOM     13  C   UNL     1      -9.162 -10.772  17.940  0.00  0.00    +0.116 C 
ATOM     14  C   UNL     1      -7.257 -10.183  19.255  0.00  0.00    +0.061 C 
ATOM     15  C   UNL     1      -8.514 -11.045  19.283  0.00  0.00    +0.130 C 
BRANCH   7  11
ATOM      8  N   UNL     1     -10.148 -10.029  13.448  0.00  0.00    -0.305 NA
ATOM     11  C   UNL     1      -8.335 -10.174  15.740  0.00  0.00    +0.060 C 
ATOM     16  C   UNL     1      -8.396 -11.273  14.676  0.00  0.00    +0.034 C 
ATOM     17  C   UNL     1      -9.673  -9.433  15.802  0.00  0.00    +0.034 C 
ATOM     18  C   UNL     1      -8.850 -10.707  13.328  0.00  0.00    +0.085 C 
ATOM     19  C   UNL     1     -10.085  -8.927  14.419  0.00  0.00    +0.085 C 
ATOM     21  C   UNL     1     -10.592  -9.539  12.144  0.00  0.00    +0.104 C 
ENDBRANCH   7  11
BRANCH  15   3
ATOM      3  O   UNL     1      -9.355 -10.669  20.357  0.00  0.00    -0.390 OA
ATOM     30  H   UNL     1      -9.805  -9.846  20.102  0.00  0.00    +0.210 HD
ENDBRANCH  15   3
ENDBRANCH  20  12
BRANCH  22  23
ATOM     23  C   UNL     1      -2.562 -10.714  15.621  0.00  0.00    +0.251 C 
BRANCH  23   1
ATOM      1  S   UNL     1      -2.812 -11.924  14.352  0.00  0.00    +0.004 S 
ATOM      5  O   UNL     1      -4.069 -12.595  14.629  0.00  0.00    -0.169 OA
ATOM      6  O   UNL     1      -1.588 -12.689  14.197  0.00  0.00    -0.169 OA
BRANCH   1  24
ATOM      2  F   UNL     1      -3.489  -8.716   9.453  0.00  0.00    -0.205 F 
ATOM     24  C   UNL     1      -3.014 -10.964  12.884  0.00  0.00    +0.089 A 
ATOM     25  C   UNL     1      -1.894 -10.493  12.199  0.00  0.00    +0.030 A 
ATOM     26  C   UNL     1      -4.294 -10.676  12.410  0.00  0.00    +0.030 A 
ATOM     27  C   UNL     1      -2.054  -9.733  11.040  0.00  0.00    +0.040 A 
ATOM     28  C   UNL     1      -4.454  -9.917  11.251  0.00  0.00    +0.040 A 
ATOM     29  C   UNL     1      -3.334  -9.445  10.565  0.00  0.00    +0.124 A 
ENDBRANCH   1  24
ENDBRANCH  23   1
ENDBRANCH  22  23
TORSDOF 6
ENDMDL
MODEL 9
REMARK VINA RESULT:      -6.4      4.712      6.784
REMARK  Name = 26743452
REMARK  7 active torsions:
REMARK  status: ('A' for Active; 'I' for Inactive)
REMARK    1  A    between atoms: S_1  and  C_23
REMARK    2  A    between atoms: S_1  and  C_24
REMARK    3  A    between atoms: O_3  and  C_15
REMARK    4  A    between atoms: N_7  and  C_11
REMARK    5  A    between atoms: N_8  and  C_21
REMARK    6  A    between atoms: C_12  and  C_20
REMARK    7  A    between atoms: C_22  and  C_23
REMARK                            x       y       z     vdW  Elec       q    Type
REMARK                         _______ _______ _______ _____ _____    ______ ____
ROOT
ATOM      4  O   UNL     1      10.916   9.942  22.029  0.00  0.00    -0.336 OA
ATOM      9  N   UNL     1      13.020   9.231  22.317  0.00  0.00    -0.193 NA
ATOM     10  N   UNL     1      11.039   8.775  21.266  0.00  0.00    -0.060 NA
ATOM     20  C   UNL     1      12.125  10.140  22.615  0.00  0.00    +0.245 A 
ATOM     22  C   UNL     1      12.307   8.415  21.488  0.00  0.00    +0.193 A 
ENDROOT
BRANCH  20  12
ATOM      7  N   UNL     1      11.798  12.596  22.848  0.00  0.00    -0.286 NA
ATOM     12  C   UNL     1      12.254  11.356  23.507  0.00  0.00    +0.149 C 
ATOM     13  C   UNL     1      11.303  13.472  23.909  0.00  0.00    +0.116 C 
ATOM     14  C   UNL     1      11.400  11.252  24.784  0.00  0.00    +0.061 C 
ATOM     15  C   UNL     1      10.527  12.501  24.777  0.00  0.00    +0.130 C 
BRANCH   7  11
ATOM      8  N   UNL     1      15.269  13.021  20.431  0.00  0.00    -0.305 NA
ATOM     11  C   UNL     1      12.838  13.238  22.045  0.00  0.00    +0.060 C 
ATOM     16  C   UNL     1      14.219  13.035  22.673  0.00  0.00    +0.034 C 
ATOM     17  C   UNL     1      12.825  12.681  20.619  0.00  0.00    +0.034 C 
ATOM     18  C   UNL     1      15.319  13.610  21.777  0.00  0.00    +0.085 C 
ATOM     19  C   UNL     1      13.970  13.268  19.790  0.00  0.00    +0.085 C 
ATOM     21  C   UNL     1      16.356  13.543  19.604  0.00  0.00    +0.104 C 
ENDBRANCH   7  11
BRANCH  15   3
ATOM      3  O   UNL     1      10.351  12.997  26.090  0.00  0.00    -0.390 OA
ATOM     30  H   UNL     1       9.414  12.881  26.323  0.00  0.00    +0.210 HD
ENDBRANCH  15   3
ENDBRANCH  20  12
BRANCH  22  23
ATOM     23  C   UNL     1      12.893   7.217  20.877  0.00  0.00    +0.251 C 
BRANCH  23   1
ATOM      1  S   UNL     1      13.767   7.695  19.413  0.00  0.00    +0.004 S 
ATOM      5  O   UNL     1      13.808   9.146  19.382  0.00  0.00    -0.169 OA
ATOM      6  O   UNL     1      13.229   6.950  18.291  0.00  0.00    -0.169 OA
BRANCH   1  24
ATOM      2  F   UNL     1      19.250   5.732  20.328  0.00  0.00    -0.205 F 
ATOM     24  C   UNL     1      15.410   7.107  19.688  0.00  0.00    +0.089 A 
ATOM     25  C   UNL     1      16.096   7.471  20.846  0.00  0.00    +0.030 A 
ATOM     26  C   UNL     1      16.020   6.278  18.747  0.00  0.00    +0.030 A 
ATOM     27  C   UNL     1      17.393   7.006  21.063  0.00  0.00    +0.040 A 
ATOM     28  C   UNL     1      17.317   5.814  18.964  0.00  0.00    +0.040 A 
ATOM     29  C   UNL     1      18.004   6.178  20.122  0.00  0.00    +0.124 A 
ENDBRANCH   1  24
ENDBRANCH  23   1
ENDBRANCH  22  23
TORSDOF 6
ENDMDL
MODEL 10
REMARK VINA RESULT:      -6.3     26.962     30.281
REMARK  Name = 26743452
REMARK  7 active torsions:
REMARK  status: ('A' for Active; 'I' for Inactive)
REMARK    1  A    between atoms: S_1  and  C_23
REMARK    2  A    between atoms: S_1  and  C_24
REMARK    3  A    between atoms: O_3  and  C_15
REMARK    4  A    between atoms: N_7  and  C_11
REMARK    5  A    between atoms: N_8  and  C_21
REMARK    6  A    between atoms: C_12  and  C_20
REMARK    7  A    between atoms: C_22  and  C_23
REMARK                            x       y       z     vdW  Elec       q    Type
REMARK                         _______ _______ _______ _____ _____    ______ ____
ROOT
ATOM      4  O   UNL     1      -5.364  -9.608  15.833  0.00  0.00    -0.336 OA
ATOM      9  N   UNL     1      -5.853 -11.664  16.574  0.00  0.00    -0.193 NA
ATOM     10  N   UNL     1      -6.617  -9.511  16.451  0.00  0.00    -0.060 NA
ATOM     20  C   UNL     1      -4.986 -10.908  15.949  0.00  0.00    +0.245 A 
ATOM     22  C   UNL     1      -6.836 -10.763  16.863  0.00  0.00    +0.193 A 
ENDROOT
BRANCH  20  12
ATOM      7  N   UNL     1      -3.331 -10.503  14.134  0.00  0.00    -0.286 NA
ATOM     12  C   UNL     1      -3.645 -11.278  15.352  0.00  0.00    +0.149 C 
ATOM     13  C   UNL     1      -1.875 -10.395  14.077  0.00  0.00    +0.116 C 
ATOM     14  C   UNL     1      -2.470 -11.002  16.308  0.00  0.00    +0.061 C 
ATOM     15  C   UNL     1      -1.527 -10.100  15.522  0.00  0.00    +0.130 C 
BRANCH   7  11
ATOM      8  N   UNL     1      -4.106 -11.113  10.000  0.00  0.00    -0.305 NA
ATOM     11  C   UNL     1      -3.888 -11.091  12.918  0.00  0.00    +0.060 C 
ATOM     16  C   UNL     1      -4.738 -10.072  12.155  0.00  0.00    +0.034 C 
ATOM     17  C   UNL     1      -2.764 -11.612  12.018  0.00  0.00    +0.034 C 
ATOM     18  C   UNL     1      -5.231 -10.652  10.827  0.00  0.00    +0.085 C 
ATOM     19  C   UNL     1      -3.321 -12.142  10.696  0.00  0.00    +0.085 C 
ATOM     21  C   UNL     1      -4.589 -11.618   8.715  0.00  0.00    +0.104 C 
ENDBRANCH   7  11
BRANCH  15   3
ATOM      3  O   UNL     1      -0.177 -10.412  15.811  0.00  0.00    -0.390 OA
ATOM     30  H   UNL     1       0.020 -10.061  16.697  0.00  0.00    +0.210 HD
ENDBRANCH  15   3
ENDBRANCH  20  12
BRANCH  22  23
ATOM     23  C   UNL     1      -8.058 -11.142  17.581  0.00  0.00    +0.251 C 
BRANCH  23   1
ATOM      1  S   UNL     1      -9.396 -11.223  16.423  0.00  0.00    +0.004 S 
ATOM      5  O   UNL     1     -10.446 -12.024  17.024  0.00  0.00    -0.169 OA
ATOM      6  O   UNL     1      -8.858 -11.571  15.121  0.00  0.00    -0.169 OA
BRANCH   1  24
ATOM      2  F   UNL     1     -11.310  -5.658  16.077  0.00  0.00    -0.205 F 
ATOM     24  C   UNL     1      -9.968  -9.556  16.320  0.00  0.00    +0.089 A 
ATOM     25  C   UNL     1     -10.052  -8.774  17.472  0.00  0.00    +0.030 A 
ATOM     26  C   UNL     1     -10.337  -9.021  15.086  0.00  0.00    +0.030 A 
ATOM     27  C   UNL     1     -10.505  -7.458  17.390  0.00  0.00    +0.040 A 
ATOM     28  C   UNL     1     -10.789  -7.704  15.004  0.00  0.00    +0.040 A 
ATOM     29  C   UNL     1     -10.874  -6.922  16.156  0.00  0.00    +0.124 A 
ENDBRANCH   1  24
ENDBRANCH  23   1
ENDBRANCH  22  23
TORSDOF 6
ENDMDL
