MODEL 1
REMARK VINA RESULT:      -5.5      0.000      0.000
REMARK  Name = 56775685
REMARK  9 active torsions:
REMARK  status: ('A' for Active; 'I' for Inactive)
REMARK    1  A    between atoms: N_3  and  C_6
REMARK    2  A    between atoms: N_3  and  C_11
REMARK    3  A    between atoms: C_6  and  C_9
REMARK    4  A    between atoms: C_9  and  C_10
REMARK    5  A    between atoms: C_11  and  C_14
REMARK    6  A    between atoms: C_13  and  C_15
REMARK    7  A    between atoms: C_15  and  C_16
REMARK    8  A    between atoms: C_16  and  C_17
REMARK    9  A    between atoms: C_16  and  C_18
REMARK                            x       y       z     vdW  Elec       q    Type
REMARK                         _______ _______ _______ _____ _____    ______ ____
ROOT
ATOM      1  O   UNL     1      -1.924 -14.560  14.117  0.00  0.00    -0.376 OA
ATOM      6  C   UNL     1      -2.175 -12.512  13.571  0.00  0.00    +0.072 C 
ATOM      7  C   UNL     1      -3.007 -13.609  14.225  0.00  0.00    +0.184 C 
ATOM      8  C   UNL     1      -1.051 -13.541  13.580  0.00  0.00    +0.184 C 
ENDROOT
BRANCH   6   3
ATOM      3  N   UNL     1      -2.633 -12.328  12.202  0.00  0.00    -0.302 NA
ATOM     23  H   UNL     1      -3.623 -12.511  12.048  0.00  0.00    +0.123 HD
BRANCH   3  11
ATOM     11  C   UNL     1      -2.303 -10.980  11.747  0.00  0.00    +0.118 C 
BRANCH  11  14
ATOM      5  N   UNL     1      -5.740 -10.392  10.271  0.00  0.00    -0.263 NA
ATOM     14  C   UNL     1      -3.413 -10.378  10.925  0.00  0.00    -0.015 A 
ATOM     19  C   UNL     1      -3.175  -9.296  10.085  0.00  0.00    +0.008 A 
ATOM     20  C   UNL     1      -4.701 -10.884  10.982  0.00  0.00    +0.115 A 
ATOM     21  C   UNL     1      -4.219  -8.761   9.337  0.00  0.00    +0.020 A 
ATOM     22  C   UNL     1      -5.470  -9.340   9.466  0.00  0.00    +0.111 A 
ENDBRANCH  11  14
ENDBRANCH   3  11
ENDBRANCH   6   3
BRANCH   6   9
ATOM      9  C   UNL     1      -1.975 -11.186  14.317  0.00  0.00    +0.085 C 
BRANCH   9  10
ATOM      2  O   UNL     1      -5.138 -10.342  15.744  0.00  0.00    -0.359 OA
ATOM      4  N   UNL     1      -4.295 -10.545  14.658  0.00  0.00    -0.083 NA
ATOM     10  C   UNL     1      -3.120 -10.890  15.192  0.00  0.00    +0.086 A 
ATOM     12  C   UNL     1      -3.161 -10.920  16.597  0.00  0.00    +0.071 A 
ATOM     13  C   UNL     1      -4.451 -10.568  16.893  0.00  0.00    +0.138 A 
BRANCH  13  15
ATOM     15  C   UNL     1      -5.218 -10.393  18.181  0.00  0.00    +0.080 C 
BRANCH  15  16
ATOM     16  C   UNL     1      -5.349 -11.687  19.009  0.00  0.00    -0.010 C 
ATOM     17  C   UNL     1      -5.991 -12.820  18.204  0.00  0.00    +0.007 C 
ATOM     18  C   UNL     1      -3.970 -12.125  19.506  0.00  0.00    +0.007 C 
ENDBRANCH  15  16
ENDBRANCH  13  15
ENDBRANCH   9  10
ENDBRANCH   6   9
TORSDOF 7
ENDMDL
MODEL 2
REMARK VINA RESULT:      -5.4      1.638      6.532
REMARK  Name = 56775685
REMARK  9 active torsions:
REMARK  status: ('A' for Active; 'I' for Inactive)
REMARK    1  A    between atoms: N_3  and  C_6
REMARK    2  A    between atoms: N_3  and  C_11
REMARK    3  A    between atoms: C_6  and  C_9
REMARK    4  A    between atoms: C_9  and  C_10
REMARK    5  A    between atoms: C_11  and  C_14
REMARK    6  A    between atoms: C_13  and  C_15
REMARK    7  A    between atoms: C_15  and  C_16
REMARK    8  A    between atoms: C_16  and  C_17
REMARK    9  A    between atoms: C_16  and  C_18
REMARK                            x       y       z     vdW  Elec       q    Type
REMARK                         _______ _______ _______ _____ _____    ______ ____
ROOT
ATOM      1  O   UNL     1      -1.844 -14.118  12.951  0.00  0.00    -0.376 OA
ATOM      6  C   UNL     1      -2.213 -12.230  13.874  0.00  0.00    +0.072 C 
ATOM      7  C   UNL     1      -1.096 -13.268  13.848  0.00  0.00    +0.184 C 
ATOM      8  C   UNL     1      -2.897 -13.134  12.856  0.00  0.00    +0.184 C 
ENDROOT
BRANCH   6   3
ATOM      3  N   UNL     1      -2.919 -12.333  15.143  0.00  0.00    -0.302 NA
ATOM     23  H   UNL     1      -2.603 -13.084  15.755  0.00  0.00    +0.123 HD
BRANCH   3  11
ATOM     11  C   UNL     1      -2.852 -11.057  15.851  0.00  0.00    +0.118 C 
BRANCH  11  14
ATOM      5  N   UNL     1      -6.279  -9.790  16.845  0.00  0.00    -0.263 NA
ATOM     14  C   UNL     1      -4.091 -10.804  16.669  0.00  0.00    -0.015 A 
ATOM     19  C   UNL     1      -4.216 -11.316  17.956  0.00  0.00    +0.008 A 
ATOM     20  C   UNL     1      -5.142 -10.055  16.164  0.00  0.00    +0.115 A 
ATOM     21  C   UNL     1      -5.372 -11.065  18.688  0.00  0.00    +0.020 A 
ATOM     22  C   UNL     1      -6.364 -10.304  18.093  0.00  0.00    +0.111 A 
ENDBRANCH  11  14
ENDBRANCH   3  11
ENDBRANCH   6   3
BRANCH   6   9
ATOM      9  C   UNL     1      -1.891 -10.781  13.485  0.00  0.00    +0.085 C 
BRANCH   9  10
ATOM      2  O   UNL     1      -4.655  -9.705  11.497  0.00  0.00    -0.359 OA
ATOM      4  N   UNL     1      -4.104 -10.176  12.682  0.00  0.00    -0.083 NA
ATOM     10  C   UNL     1      -2.798 -10.299  12.432  0.00  0.00    +0.086 A 
ATOM     12  C   UNL     1      -2.469  -9.924  11.117  0.00  0.00    +0.071 A 
ATOM     13  C   UNL     1      -3.672  -9.560  10.573  0.00  0.00    +0.138 A 
BRANCH  13  15
ATOM     15  C   UNL     1      -4.093  -9.052   9.215  0.00  0.00    +0.080 C 
BRANCH  15  16
ATOM     16  C   UNL     1      -5.425  -9.645   8.714  0.00  0.00    -0.010 C 
ATOM     17  C   UNL     1      -6.563  -8.622   8.761  0.00  0.00    +0.007 C 
ATOM     18  C   UNL     1      -5.256 -10.162   7.283  0.00  0.00    +0.007 C 
ENDBRANCH  15  16
ENDBRANCH  13  15
ENDBRANCH   9  10
ENDBRANCH   6   9
TORSDOF 7
ENDMDL
MODEL 3
REMARK VINA RESULT:      -5.3      1.854      2.425
REMARK  Name = 56775685
REMARK  9 active torsions:
REMARK  status: ('A' for Active; 'I' for Inactive)
REMARK    1  A    between atoms: N_3  and  C_6
REMARK    2  A    between atoms: N_3  and  C_11
REMARK    3  A    between atoms: C_6  and  C_9
REMARK    4  A    between atoms: C_9  and  C_10
REMARK    5  A    between atoms: C_11  and  C_14
REMARK    6  A    between atoms: C_13  and  C_15
REMARK    7  A    between atoms: C_15  and  C_16
REMARK    8  A    between atoms: C_16  and  C_17
REMARK    9  A    between atoms: C_16  and  C_18
REMARK                            x       y       z     vdW  Elec       q    Type
REMARK                         _______ _______ _______ _____ _____    ______ ____
ROOT
ATOM      1  O   UNL     1      -0.723 -11.085  15.485  0.00  0.00    -0.376 OA
ATOM      6  C   UNL     1      -2.794 -11.264  15.000  0.00  0.00    +0.072 C 
ATOM      7  C   UNL     1      -1.478 -11.890  14.552  0.00  0.00    +0.184 C 
ATOM      8  C   UNL     1      -1.941 -10.522  16.022  0.00  0.00    +0.184 C 
ENDROOT
BRANCH   6   3
ATOM      3  N   UNL     1      -3.235 -10.321  13.983  0.00  0.00    -0.302 NA
ATOM     23  H   UNL     1      -2.517  -9.682  13.644  0.00  0.00    +0.123 HD
BRANCH   3  11
ATOM     11  C   UNL     1      -3.822 -11.046  12.858  0.00  0.00    +0.118 C 
BRANCH  11  14
ATOM      5  N   UNL     1      -5.798  -8.605  10.744  0.00  0.00    -0.263 NA
ATOM     14  C   UNL     1      -4.194 -10.122  11.729  0.00  0.00    -0.015 A 
ATOM     19  C   UNL     1      -3.334  -9.922  10.655  0.00  0.00    +0.008 A 
ATOM     20  C   UNL     1      -5.403  -9.445  11.726  0.00  0.00    +0.115 A 
ATOM     21  C   UNL     1      -3.705  -9.064   9.625  0.00  0.00    +0.020 A 
ATOM     22  C   UNL     1      -4.935  -8.435   9.717  0.00  0.00    +0.111 A 
ENDBRANCH  11  14
ENDBRANCH   3  11
ENDBRANCH   6   3
BRANCH   6   9
ATOM      9  C   UNL     1      -3.922 -12.179  15.497  0.00  0.00    +0.085 C 
BRANCH   9  10
ATOM      2  O   UNL     1      -6.261  -9.984  17.065  0.00  0.00    -0.359 OA
ATOM      4  N   UNL     1      -5.525 -10.414  15.967  0.00  0.00    -0.083 NA
ATOM     10  C   UNL     1      -4.825 -11.461  16.410  0.00  0.00    +0.086 A 
ATOM     12  C   UNL     1      -5.076 -11.737  17.766  0.00  0.00    +0.071 A 
ATOM     13  C   UNL     1      -5.985 -10.779  18.129  0.00  0.00    +0.138 A 
BRANCH  13  15
ATOM     15  C   UNL     1      -6.703 -10.455  19.417  0.00  0.00    +0.080 C 
BRANCH  15  16
ATOM     16  C   UNL     1      -8.069 -11.155  19.562  0.00  0.00    -0.010 C 
ATOM     17  C   UNL     1      -9.018 -10.805  18.413  0.00  0.00    +0.007 C 
ATOM     18  C   UNL     1      -7.870 -12.671  19.623  0.00  0.00    +0.007 C 
ENDBRANCH  15  16
ENDBRANCH  13  15
ENDBRANCH   9  10
ENDBRANCH   6   9
TORSDOF 7
ENDMDL
MODEL 4
REMARK VINA RESULT:      -5.2     20.909     22.152
REMARK  Name = 56775685
REMARK  9 active torsions:
REMARK  status: ('A' for Active; 'I' for Inactive)
REMARK    1  A    between atoms: N_3  and  C_6
REMARK    2  A    between atoms: N_3  and  C_11
REMARK    3  A    between atoms: C_6  and  C_9
REMARK    4  A    between atoms: C_9  and  C_10
REMARK    5  A    between atoms: C_11  and  C_14
REMARK    6  A    between atoms: C_13  and  C_15
REMARK    7  A    between atoms: C_15  and  C_16
REMARK    8  A    between atoms: C_16  and  C_17
REMARK    9  A    between atoms: C_16  and  C_18
REMARK                            x       y       z     vdW  Elec       q    Type
REMARK                         _______ _______ _______ _____ _____    ______ ____
ROOT
ATOM      1  O   UNL     1     -15.752   8.396  21.826  0.00  0.00    -0.376 OA
ATOM      6  C   UNL     1     -13.862   7.431  21.596  0.00  0.00    +0.072 C 
ATOM      7  C   UNL     1     -14.703   7.996  22.736  0.00  0.00    +0.184 C 
ATOM      8  C   UNL     1     -15.051   7.796  20.714  0.00  0.00    +0.184 C 
ENDROOT
BRANCH   6   3
ATOM      3  N   UNL     1     -12.771   8.353  21.318  0.00  0.00    -0.302 NA
ATOM     23  H   UNL     1     -12.475   8.926  22.106  0.00  0.00    +0.123 HD
BRANCH   3  11
ATOM     11  C   UNL     1     -11.626   7.617  20.786  0.00  0.00    +0.118 C 
BRANCH  11  14
ATOM      5  N   UNL     1     -10.692   8.049  17.142  0.00  0.00    -0.263 NA
ATOM     14  C   UNL     1     -11.101   8.237  19.517  0.00  0.00    -0.015 A 
ATOM     19  C   UNL     1     -10.555   9.515  19.519  0.00  0.00    +0.008 A 
ATOM     20  C   UNL     1     -11.147   7.552  18.314  0.00  0.00    +0.115 A 
ATOM     21  C   UNL     1     -10.077  10.062  18.332  0.00  0.00    +0.020 A 
ATOM     22  C   UNL     1     -10.169   9.295  17.183  0.00  0.00    +0.111 A 
ENDBRANCH  11  14
ENDBRANCH   3  11
ENDBRANCH   6   3
BRANCH   6   9
ATOM      9  C   UNL     1     -13.407   5.967  21.663  0.00  0.00    +0.085 C 
BRANCH   9  10
ATOM      2  O   UNL     1     -16.215   3.907  22.450  0.00  0.00    -0.359 OA
ATOM      4  N   UNL     1     -15.453   4.659  21.564  0.00  0.00    -0.083 NA
ATOM     10  C   UNL     1     -14.432   5.119  22.291  0.00  0.00    +0.086 A 
ATOM     12  C   UNL     1     -14.495   4.694  23.630  0.00  0.00    +0.071 A 
ATOM     13  C   UNL     1     -15.635   3.936  23.676  0.00  0.00    +0.138 A 
BRANCH  13  15
ATOM     15  C   UNL     1     -16.333   3.164  24.771  0.00  0.00    +0.080 C 
BRANCH  15  16
ATOM     16  C   UNL     1     -16.215   3.814  26.163  0.00  0.00    -0.010 C 
ATOM     17  C   UNL     1     -17.308   4.857  26.404  0.00  0.00    +0.007 C 
ATOM     18  C   UNL     1     -16.284   2.735  27.246  0.00  0.00    +0.007 C 
ENDBRANCH  15  16
ENDBRANCH  13  15
ENDBRANCH   9  10
ENDBRANCH   6   9
TORSDOF 7
ENDMDL
MODEL 5
REMARK VINA RESULT:      -5.1     25.908     27.472
REMARK  Name = 56775685
REMARK  9 active torsions:
REMARK  status: ('A' for Active; 'I' for Inactive)
REMARK    1  A    between atoms: N_3  and  C_6
REMARK    2  A    between atoms: N_3  and  C_11
REMARK    3  A    between atoms: C_6  and  C_9
REMARK    4  A    between atoms: C_9  and  C_10
REMARK    5  A    between atoms: C_11  and  C_14
REMARK    6  A    between atoms: C_13  and  C_15
REMARK    7  A    between atoms: C_15  and  C_16
REMARK    8  A    between atoms: C_16  and  C_17
REMARK    9  A    between atoms: C_16  and  C_18
REMARK                            x       y       z     vdW  Elec       q    Type
REMARK                         _______ _______ _______ _____ _____    ______ ____
ROOT
ATOM      1  O   UNL     1      -7.168  -9.715  41.816  0.00  0.00    -0.376 OA
ATOM      6  C   UNL     1      -6.288  -8.277  40.507  0.00  0.00    +0.072 C 
ATOM      7  C   UNL     1      -6.266  -9.791  40.690  0.00  0.00    +0.184 C 
ATOM      8  C   UNL     1      -7.309  -8.288  41.639  0.00  0.00    +0.184 C 
ENDROOT
BRANCH   6   3
ATOM      3  N   UNL     1      -5.037  -7.726  41.008  0.00  0.00    -0.302 NA
ATOM     23  H   UNL     1      -4.384  -8.409  41.388  0.00  0.00    +0.123 HD
BRANCH   3  11
ATOM     11  C   UNL     1      -4.385  -6.948  39.958  0.00  0.00    +0.118 C 
BRANCH  11  14
ATOM      5  N   UNL     1      -2.903  -4.417  42.353  0.00  0.00    -0.263 NA
ATOM     14  C   UNL     1      -3.468  -5.897  40.526  0.00  0.00    -0.015 A 
ATOM     19  C   UNL     1      -2.375  -5.433  39.802  0.00  0.00    +0.008 A 
ATOM     20  C   UNL     1      -3.686  -5.362  41.786  0.00  0.00    +0.115 A 
ATOM     21  C   UNL     1      -1.546  -4.461  40.352  0.00  0.00    +0.020 A 
ATOM     22  C   UNL     1      -1.850  -3.991  41.619  0.00  0.00    +0.111 A 
ENDBRANCH  11  14
ENDBRANCH   3  11
ENDBRANCH   6   3
BRANCH   6   9
ATOM      9  C   UNL     1      -6.693  -7.699  39.145  0.00  0.00    +0.085 C 
BRANCH   9  10
ATOM      2  O   UNL     1      -9.935  -6.203  39.181  0.00  0.00    -0.359 OA
ATOM      4  N   UNL     1      -9.078  -7.272  38.951  0.00  0.00    -0.083 NA
ATOM     10  C   UNL     1      -7.864  -6.816  39.269  0.00  0.00    +0.086 A 
ATOM     12  C   UNL     1      -7.891  -5.479  39.701  0.00  0.00    +0.071 A 
ATOM     13  C   UNL     1      -9.217  -5.141  39.628  0.00  0.00    +0.138 A 
BRANCH  13  15
ATOM     15  C   UNL     1      -9.993  -3.882  39.932  0.00  0.00    +0.080 C 
BRANCH  15  16
ATOM     16  C   UNL     1      -9.189  -2.586  39.711  0.00  0.00    -0.010 C 
ATOM     17  C   UNL     1      -9.922  -1.605  38.792  0.00  0.00    +0.007 C 
ATOM     18  C   UNL     1      -8.905  -1.916  41.058  0.00  0.00    +0.007 C 
ENDBRANCH  15  16
ENDBRANCH  13  15
ENDBRANCH   9  10
ENDBRANCH   6   9
TORSDOF 7
ENDMDL
MODEL 6
REMARK VINA RESULT:      -5.1     22.455     25.649
REMARK  Name = 56775685
REMARK  9 active torsions:
REMARK  status: ('A' for Active; 'I' for Inactive)
REMARK    1  A    between atoms: N_3  and  C_6
REMARK    2  A    between atoms: N_3  and  C_11
REMARK    3  A    between atoms: C_6  and  C_9
REMARK    4  A    between atoms: C_9  and  C_10
REMARK    5  A    between atoms: C_11  and  C_14
REMARK    6  A    between atoms: C_13  and  C_15
REMARK    7  A    between atoms: C_15  and  C_16
REMARK    8  A    between atoms: C_16  and  C_17
REMARK    9  A    between atoms: C_16  and  C_18
REMARK                            x       y       z     vdW  Elec       q    Type
REMARK                         _______ _______ _______ _____ _____    ______ ____
ROOT
ATOM      1  O   UNL     1      11.491   8.387   3.174  0.00  0.00    -0.376 OA
ATOM      6  C   UNL     1      11.002   6.316   3.340  0.00  0.00    +0.072 C 
ATOM      7  C   UNL     1      10.776   7.446   2.342  0.00  0.00    +0.184 C 
ATOM      8  C   UNL     1      11.823   7.341   4.115  0.00  0.00    +0.184 C 
ENDROOT
BRANCH   6   3
ATOM      3  N   UNL     1       9.760   6.070   4.059  0.00  0.00    -0.302 NA
ATOM     23  H   UNL     1       8.926   6.013   3.476  0.00  0.00    +0.123 HD
BRANCH   3  11
ATOM     11  C   UNL     1       9.886   4.855   4.861  0.00  0.00    +0.118 C 
BRANCH  11  14
ATOM      5  N   UNL     1       9.088   6.690   8.075  0.00  0.00    -0.263 NA
ATOM     14  C   UNL     1       9.684   5.129   6.328  0.00  0.00    -0.015 A 
ATOM     19  C   UNL     1       9.894   4.134   7.277  0.00  0.00    +0.008 A 
ATOM     20  C   UNL     1       9.285   6.378   6.775  0.00  0.00    +0.115 A 
ATOM     21  C   UNL     1       9.701   4.416   8.625  0.00  0.00    +0.020 A 
ATOM     22  C   UNL     1       9.300   5.697   8.969  0.00  0.00    +0.111 A 
ENDBRANCH  11  14
ENDBRANCH   3  11
ENDBRANCH   6   3
BRANCH   6   9
ATOM      9  C   UNL     1      11.683   5.027   2.863  0.00  0.00    +0.085 C 
BRANCH   9  10
ATOM      2  O   UNL     1      10.094   4.010  -0.169  0.00  0.00    -0.359 OA
ATOM      4  N   UNL     1      10.117   4.173   1.210  0.00  0.00    -0.083 NA
ATOM     10  C   UNL     1      11.311   4.711   1.474  0.00  0.00    +0.086 A 
ATOM     12  C   UNL     1      12.077   4.909   0.312  0.00  0.00    +0.071 A 
ATOM     13  C   UNL     1      11.266   4.451  -0.693  0.00  0.00    +0.138 A 
BRANCH  13  15
ATOM     15  C   UNL     1      11.415   4.349  -2.192  0.00  0.00    +0.080 C 
BRANCH  15  16
ATOM     16  C   UNL     1      11.281   2.912  -2.735  0.00  0.00    -0.010 C 
ATOM     17  C   UNL     1      10.026   2.738  -3.593  0.00  0.00    +0.007 C 
ATOM     18  C   UNL     1      12.521   2.551  -3.555  0.00  0.00    +0.007 C 
ENDBRANCH  15  16
ENDBRANCH  13  15
ENDBRANCH   9  10
ENDBRANCH   6   9
TORSDOF 7
ENDMDL
MODEL 7
REMARK VINA RESULT:      -5.1     21.447     23.300
REMARK  Name = 56775685
REMARK  9 active torsions:
REMARK  status: ('A' for Active; 'I' for Inactive)
REMARK    1  A    between atoms: N_3  and  C_6
REMARK    2  A    between atoms: N_3  and  C_11
REMARK    3  A    between atoms: C_6  and  C_9
REMARK    4  A    between atoms: C_9  and  C_10
REMARK    5  A    between atoms: C_11  and  C_14
REMARK    6  A    between atoms: C_13  and  C_15
REMARK    7  A    between atoms: C_15  and  C_16
REMARK    8  A    between atoms: C_16  and  C_17
REMARK    9  A    between atoms: C_16  and  C_18
REMARK                            x       y       z     vdW  Elec       q    Type
REMARK                         _______ _______ _______ _____ _____    ______ ____
ROOT
ATOM      1  O   UNL     1     -18.882  -0.571  25.313  0.00  0.00    -0.376 OA
ATOM      6  C   UNL     1     -17.951   1.123  26.218  0.00  0.00    +0.072 C 
ATOM      7  C   UNL     1     -17.763   0.274  24.966  0.00  0.00    +0.184 C 
ATOM      8  C   UNL     1     -19.176   0.249  26.466  0.00  0.00    +0.184 C 
ENDROOT
BRANCH   6   3
ATOM      3  N   UNL     1     -16.920   0.771  27.183  0.00  0.00    -0.302 NA
ATOM     23  H   UNL     1     -15.962   0.917  26.867  0.00  0.00    +0.123 HD
BRANCH   3  11
ATOM     11  C   UNL     1     -17.144   1.494  28.432  0.00  0.00    +0.118 C 
BRANCH  11  14
ATOM      5  N   UNL     1     -13.827   0.840  30.136  0.00  0.00    -0.263 NA
ATOM     14  C   UNL     1     -15.859   1.735  29.179  0.00  0.00    -0.015 A 
ATOM     19  C   UNL     1     -15.504   3.012  29.601  0.00  0.00    +0.008 A 
ATOM     20  C   UNL     1     -14.994   0.692  29.469  0.00  0.00    +0.115 A 
ATOM     21  C   UNL     1     -14.312   3.203  30.290  0.00  0.00    +0.020 A 
ATOM     22  C   UNL     1     -13.516   2.095  30.530  0.00  0.00    +0.111 A 
ENDBRANCH  11  14
ENDBRANCH   3  11
ENDBRANCH   6   3
BRANCH   6   9
ATOM      9  C   UNL     1     -18.138   2.638  26.068  0.00  0.00    +0.085 C 
BRANCH   9  10
ATOM      2  O   UNL     1     -15.118   3.856  24.601  0.00  0.00    -0.359 OA
ATOM      4  N   UNL     1     -15.827   3.256  25.635  0.00  0.00    -0.083 NA
ATOM     10  C   UNL     1     -17.093   3.221  25.211  0.00  0.00    +0.086 A 
ATOM     12  C   UNL     1     -17.243   3.779  23.929  0.00  0.00    +0.071 A 
ATOM     13  C   UNL     1     -15.972   4.163  23.592  0.00  0.00    +0.138 A 
BRANCH  13  15
ATOM     15  C   UNL     1     -15.368   4.825  22.377  0.00  0.00    +0.080 C 
BRANCH  15  16
ATOM     16  C   UNL     1     -14.369   5.950  22.712  0.00  0.00    -0.010 C 
ATOM     17  C   UNL     1     -13.298   6.107  21.630  0.00  0.00    +0.007 C 
ATOM     18  C   UNL     1     -15.119   7.272  22.892  0.00  0.00    +0.007 C 
ENDBRANCH  15  16
ENDBRANCH  13  15
ENDBRANCH   9  10
ENDBRANCH   6   9
TORSDOF 7
ENDMDL
MODEL 8
REMARK VINA RESULT:      -5.0     23.751     27.418
REMARK  Name = 56775685
REMARK  9 active torsions:
REMARK  status: ('A' for Active; 'I' for Inactive)
REMARK    1  A    between atoms: N_3  and  C_6
REMARK    2  A    between atoms: N_3  and  C_11
REMARK    3  A    between atoms: C_6  and  C_9
REMARK    4  A    between atoms: C_9  and  C_10
REMARK    5  A    between atoms: C_11  and  C_14
REMARK    6  A    between atoms: C_13  and  C_15
REMARK    7  A    between atoms: C_15  and  C_16
REMARK    8  A    between atoms: C_16  and  C_17
REMARK    9  A    between atoms: C_16  and  C_18
REMARK                            x       y       z     vdW  Elec       q    Type
REMARK                         _______ _______ _______ _____ _____    ______ ____
ROOT
ATOM      1  O   UNL     1     -18.034   7.026  32.392  0.00  0.00    -0.376 OA
ATOM      6  C   UNL     1     -16.383   5.772  32.903  0.00  0.00    +0.072 C 
ATOM      7  C   UNL     1     -17.250   6.823  33.588  0.00  0.00    +0.184 C 
ATOM      8  C   UNL     1     -17.314   5.973  31.712  0.00  0.00    +0.184 C 
ENDROOT
BRANCH   6   3
ATOM      3  N   UNL     1     -15.089   6.362  32.591  0.00  0.00    -0.302 NA
ATOM     23  H   UNL     1     -15.124   7.203  32.016  0.00  0.00    +0.123 HD
BRANCH   3  11
ATOM     11  C   UNL     1     -14.361   6.638  33.827  0.00  0.00    +0.118 C 
BRANCH  11  14
ATOM      5  N   UNL     1     -11.802   9.334  34.543  0.00  0.00    -0.263 NA
ATOM     14  C   UNL     1     -13.259   7.642  33.617  0.00  0.00    -0.015 A 
ATOM     19  C   UNL     1     -12.685   7.823  32.363  0.00  0.00    +0.008 A 
ATOM     20  C   UNL     1     -12.786   8.415  34.665  0.00  0.00    +0.115 A 
ATOM     21  C   UNL     1     -11.670   8.759  32.199  0.00  0.00    +0.020 A 
ATOM     22  C   UNL     1     -11.268   9.481  33.310  0.00  0.00    +0.111 A 
ENDBRANCH  11  14
ENDBRANCH   3  11
ENDBRANCH   6   3
BRANCH   6   9
ATOM      9  C   UNL     1     -16.269   4.377  33.531  0.00  0.00    +0.085 C 
BRANCH   9  10
ATOM      2  O   UNL     1     -13.512   2.451  32.331  0.00  0.00    -0.359 OA
ATOM      4  N   UNL     1     -14.124   3.263  33.278  0.00  0.00    -0.083 NA
ATOM     10  C   UNL     1     -15.332   3.529  32.777  0.00  0.00    +0.086 A 
ATOM     12  C   UNL     1     -15.538   2.920  31.527  0.00  0.00    +0.071 A 
ATOM     13  C   UNL     1     -14.364   2.254  31.293  0.00  0.00    +0.138 A 
BRANCH  13  15
ATOM     15  C   UNL     1     -13.860   1.388  30.163  0.00  0.00    +0.080 C 
BRANCH  15  16
ATOM     16  C   UNL     1     -13.864  -0.119  30.485  0.00  0.00    -0.010 C 
ATOM     17  C   UNL     1     -15.244  -0.608  30.931  0.00  0.00    +0.007 C 
ATOM     18  C   UNL     1     -13.407  -0.912  29.258  0.00  0.00    +0.007 C 
ENDBRANCH  15  16
ENDBRANCH  13  15
ENDBRANCH   9  10
ENDBRANCH   6   9
TORSDOF 7
ENDMDL
MODEL 9
REMARK VINA RESULT:      -5.0     21.195     22.397
REMARK  Name = 56775685
REMARK  9 active torsions:
REMARK  status: ('A' for Active; 'I' for Inactive)
REMARK    1  A    between atoms: N_3  and  C_6
REMARK    2  A    between atoms: N_3  and  C_11
REMARK    3  A    between atoms: C_6  and  C_9
REMARK    4  A    between atoms: C_9  and  C_10
REMARK    5  A    between atoms: C_11  and  C_14
REMARK    6  A    between atoms: C_13  and  C_15
REMARK    7  A    between atoms: C_15  and  C_16
REMARK    8  A    between atoms: C_16  and  C_17
REMARK    9  A    between atoms: C_16  and  C_18
REMARK                            x       y       z     vdW  Elec       q    Type
REMARK                         _______ _______ _______ _____ _____    ______ ____
ROOT
ATOM      1  O   UNL     1     -11.553  11.291  14.145  0.00  0.00    -0.376 OA
ATOM      6  C   UNL     1     -11.612   9.776  15.648  0.00  0.00    +0.072 C 
ATOM      7  C   UNL     1     -11.780   9.864  14.135  0.00  0.00    +0.184 C 
ATOM      8  C   UNL     1     -11.288  11.264  15.565  0.00  0.00    +0.184 C 
ENDROOT
BRANCH   6   3
ATOM      3  N   UNL     1     -12.924   9.615  16.257  0.00  0.00    -0.302 NA
ATOM     23  H   UNL     1     -13.537  10.425  16.187  0.00  0.00    +0.123 HD
BRANCH   3  11
ATOM     11  C   UNL     1     -13.589   8.442  15.695  0.00  0.00    +0.118 C 
BRANCH  11  14
ATOM      5  N   UNL     1     -16.998   7.077  16.617  0.00  0.00    -0.263 NA
ATOM     14  C   UNL     1     -14.773   8.018  16.524  0.00  0.00    -0.015 A 
ATOM     19  C   UNL     1     -14.766   8.158  17.907  0.00  0.00    +0.008 A 
ATOM     20  C   UNL     1     -15.903   7.476  15.932  0.00  0.00    +0.115 A 
ATOM     21  C   UNL     1     -15.874   7.758  18.646  0.00  0.00    +0.020 A 
ATOM     22  C   UNL     1     -16.954   7.229  17.960  0.00  0.00    +0.111 A 
ENDBRANCH  11  14
ENDBRANCH   3  11
ENDBRANCH   6   3
BRANCH   6   9
ATOM      9  C   UNL     1     -10.562   8.818  16.226  0.00  0.00    +0.085 C 
BRANCH   9  10
ATOM      2  O   UNL     1     -10.839   9.047  19.778  0.00  0.00    -0.359 OA
ATOM      4  N   UNL     1     -10.537   9.583  18.532  0.00  0.00    -0.083 NA
ATOM     10  C   UNL     1     -10.777   8.597  17.664  0.00  0.00    +0.086 A 
ATOM     12  C   UNL     1     -11.230   7.426  18.298  0.00  0.00    +0.071 A 
ATOM     13  C   UNL     1     -11.250   7.763  19.625  0.00  0.00    +0.138 A 
BRANCH  13  15
ATOM     15  C   UNL     1     -11.624   7.020  20.886  0.00  0.00    +0.080 C 
BRANCH  15  16
ATOM     16  C   UNL     1     -13.142   6.820  21.064  0.00  0.00    -0.010 C 
ATOM     17  C   UNL     1     -13.463   5.596  21.925  0.00  0.00    +0.007 C 
ATOM     18  C   UNL     1     -13.760   8.071  21.694  0.00  0.00    +0.007 C 
ENDBRANCH  15  16
ENDBRANCH  13  15
ENDBRANCH   9  10
ENDBRANCH   6   9
TORSDOF 7
ENDMDL
MODEL 10
REMARK VINA RESULT:      -5.0      1.852      2.267
REMARK  Name = 56775685
REMARK  9 active torsions:
REMARK  status: ('A' for Active; 'I' for Inactive)
REMARK    1  A    between atoms: N_3  and  C_6
REMARK    2  A    between atoms: N_3  and  C_11
REMARK    3  A    between atoms: C_6  and  C_9
REMARK    4  A    between atoms: C_9  and  C_10
REMARK    5  A    between atoms: C_11  and  C_14
REMARK    6  A    between atoms: C_13  and  C_15
REMARK    7  A    between atoms: C_15  and  C_16
REMARK    8  A    between atoms: C_16  and  C_17
REMARK    9  A    between atoms: C_16  and  C_18
REMARK                            x       y       z     vdW  Elec       q    Type
REMARK                         _______ _______ _______ _____ _____    ______ ____
ROOT
ATOM      1  O   UNL     1      -2.757 -14.403  14.420  0.00  0.00    -0.376 OA
ATOM      6  C   UNL     1      -2.960 -12.295  14.150  0.00  0.00    +0.072 C 
ATOM      7  C   UNL     1      -3.793 -13.440  14.716  0.00  0.00    +0.184 C 
ATOM      8  C   UNL     1      -1.879 -13.353  13.957  0.00  0.00    +0.184 C 
ENDROOT
BRANCH   6   3
ATOM      3  N   UNL     1      -3.493 -11.927  12.846  0.00  0.00    -0.302 NA
ATOM     23  H   UNL     1      -4.506 -11.826  12.805  0.00  0.00    +0.123 HD
BRANCH   3  11
ATOM     11  C   UNL     1      -2.854 -10.698  12.381  0.00  0.00    +0.118 C 
BRANCH  11  14
ATOM      5  N   UNL     1      -3.962  -8.795   9.301  0.00  0.00    -0.263 NA
ATOM     14  C   UNL     1      -3.730  -9.942  11.416  0.00  0.00    -0.015 A 
ATOM     19  C   UNL     1      -5.064  -9.685  11.711  0.00  0.00    +0.008 A 
ATOM     20  C   UNL     1      -3.231  -9.480  10.208  0.00  0.00    +0.115 A 
ATOM     21  C   UNL     1      -5.848  -8.984  10.801  0.00  0.00    +0.020 A 
ATOM     22  C   UNL     1      -5.255  -8.565   9.622  0.00  0.00    +0.111 A 
ENDBRANCH  11  14
ENDBRANCH   3  11
ENDBRANCH   6   3
BRANCH   6   9
ATOM      9  C   UNL     1      -2.662 -11.081  15.039  0.00  0.00    +0.085 C 
BRANCH   9  10
ATOM      2  O   UNL     1      -5.046 -10.508  17.635  0.00  0.00    -0.359 OA
ATOM      4  N   UNL     1      -3.814 -10.957  17.176  0.00  0.00    -0.083 NA
ATOM     10  C   UNL     1      -3.829 -10.725  15.861  0.00  0.00    +0.086 A 
ATOM     12  C   UNL     1      -5.034 -10.137  15.437  0.00  0.00    +0.071 A 
ATOM     13  C   UNL     1      -5.763 -10.023  16.590  0.00  0.00    +0.138 A 
BRANCH  13  15
ATOM     15  C   UNL     1      -7.139  -9.487  16.908  0.00  0.00    +0.080 C 
BRANCH  15  16
ATOM     16  C   UNL     1      -8.072 -10.521  17.570  0.00  0.00    -0.010 C 
ATOM     17  C   UNL     1      -9.454  -9.936  17.873  0.00  0.00    +0.007 C 
ATOM     18  C   UNL     1      -8.217 -11.744  16.662  0.00  0.00    +0.007 C 
ENDBRANCH  15  16
ENDBRANCH  13  15
ENDBRANCH   9  10
ENDBRANCH   6   9
TORSDOF 7
ENDMDL
