MODEL 1
REMARK VINA RESULT:      -7.4      0.000      0.000
REMARK  Name = 26744672
REMARK  9 active torsions:
REMARK  status: ('A' for Active; 'I' for Inactive)
REMARK    1  A    between atoms: O_2  and  C_11
REMARK    2  A    between atoms: O_3  and  C_12
REMARK    3  A    between atoms: N_6  and  C_14
REMARK    4  A    between atoms: N_7  and  C_15
REMARK    5  A    between atoms: N_8  and  C_24
REMARK    6  A    between atoms: C_10  and  C_15
REMARK    7  A    between atoms: C_13  and  C_18
REMARK    8  A    between atoms: C_18  and  C_23
REMARK    9  A    between atoms: C_24  and  C_25
REMARK                            x       y       z     vdW  Elec       q    Type
REMARK                         _______ _______ _______ _____ _____    ______ ____
ROOT
ATOM      1  O   UNL     1      10.646   8.258  20.293  0.00  0.00    -0.366 OA
ATOM     10  C   UNL     1      10.472   7.514  21.521  0.00  0.00    +0.167 C 
ATOM     11  C   UNL     1      11.571   6.456  21.542  0.00  0.00    +0.176 C 
ATOM     12  C   UNL     1      12.665   7.122  20.735  0.00  0.00    +0.175 C 
ATOM     13  C   UNL     1      11.861   7.827  19.655  0.00  0.00    +0.158 C 
ENDROOT
BRANCH  11   2
ATOM      2  O   UNL     1      11.085   5.301  20.860  0.00  0.00    -0.387 OA
ATOM     32  H   UNL     1      10.861   5.571  19.953  0.00  0.00    +0.210 HD
ENDBRANCH  11   2
BRANCH  12   3
ATOM      3  O   UNL     1      13.595   6.209  20.193  0.00  0.00    -0.387 OA
ATOM     33  H   UNL     1      13.092   5.458  19.835  0.00  0.00    +0.210 HD
ENDBRANCH  12   3
BRANCH  10  15
ATOM     15  C   UNL     1      10.569   8.496  22.679  0.00  0.00    +0.140 C 
BRANCH  15   7
ATOM      4  O   UNL     1      11.216  10.844  24.208  0.00  0.00    -0.253 OA
ATOM      6  N   UNL     1      10.830  12.142  22.322  0.00  0.00    -0.297 N 
ATOM      7  N   UNL     1      10.574   9.851  22.210  0.00  0.00    -0.297 N 
ATOM     22  C   UNL     1      10.903  10.941  23.021  0.00  0.00    +0.300 C 
ATOM     30  H   UNL     1      10.490  12.114  21.366  0.00  0.00    +0.151 HD
ATOM     31  H   UNL     1      10.340  10.025  21.238  0.00  0.00    +0.150 HD
BRANCH   6  14
ATOM     14  C   UNL     1      11.120  13.426  22.921  0.00  0.00    +0.074 C 
ATOM     16  C   UNL     1      11.898  14.323  21.952  0.00  0.00    +0.022 C 
ATOM     17  C   UNL     1       9.837  14.111  23.403  0.00  0.00    +0.022 C 
ATOM     19  C   UNL     1      11.032  14.828  20.798  0.00  0.00    +0.002 C 
ATOM     20  C   UNL     1       8.974  14.617  22.246  0.00  0.00    +0.002 C 
ATOM     21  C   UNL     1       9.767  15.516  21.303  0.00  0.00    +0.000 C 
ENDBRANCH   6  14
ENDBRANCH  15   7
ENDBRANCH  10  15
BRANCH  13  18
ATOM     18  C   UNL     1      12.577   9.025  19.057  0.00  0.00    +0.130 C 
BRANCH  18  23
ATOM      5  O   UNL     1      13.241  10.544  20.817  0.00  0.00    -0.276 OA
ATOM      8  N   UNL     1      14.828   9.120  19.893  0.00  0.00    -0.311 N 
ATOM     23  C   UNL     1      13.557   9.661  20.025  0.00  0.00    +0.216 C 
ATOM     34  H   UNL     1      14.981   8.380  19.213  0.00  0.00    +0.149 HD
BRANCH   8  24
ATOM     24  C   UNL     1      15.954   9.544  20.692  0.00  0.00    +0.141 C 
BRANCH  24  25
ATOM      9  N   UNL     1      17.812   6.302  20.112  0.00  0.00    -0.263 NA
ATOM     25  C   UNL     1      17.015   8.486  20.775  0.00  0.00    -0.012 A 
ATOM     26  C   UNL     1      18.152   8.672  21.554  0.00  0.00    +0.008 A 
ATOM     27  C   UNL     1      16.893   7.295  20.079  0.00  0.00    +0.115 A 
ATOM     28  C   UNL     1      19.118   7.674  21.613  0.00  0.00    +0.020 A 
ATOM     29  C   UNL     1      18.902   6.519  20.880  0.00  0.00    +0.111 A 
ENDBRANCH  24  25
ENDBRANCH   8  24
ENDBRANCH  18  23
ENDBRANCH  13  18
TORSDOF 9
ENDMDL
MODEL 2
REMARK VINA RESULT:      -7.0      2.160      6.487
REMARK  Name = 26744672
REMARK  9 active torsions:
REMARK  status: ('A' for Active; 'I' for Inactive)
REMARK    1  A    between atoms: O_2  and  C_11
REMARK    2  A    between atoms: O_3  and  C_12
REMARK    3  A    between atoms: N_6  and  C_14
REMARK    4  A    between atoms: N_7  and  C_15
REMARK    5  A    between atoms: N_8  and  C_24
REMARK    6  A    between atoms: C_10  and  C_15
REMARK    7  A    between atoms: C_13  and  C_18
REMARK    8  A    between atoms: C_18  and  C_23
REMARK    9  A    between atoms: C_24  and  C_25
REMARK                            x       y       z     vdW  Elec       q    Type
REMARK                         _______ _______ _______ _____ _____    ______ ____
ROOT
ATOM      1  O   UNL     1      11.643  11.601  21.113  0.00  0.00    -0.366 OA
ATOM     10  C   UNL     1      11.946  12.982  21.419  0.00  0.00    +0.167 C 
ATOM     11  C   UNL     1      11.206  13.309  22.711  0.00  0.00    +0.176 C 
ATOM     12  C   UNL     1      11.147  11.957  23.390  0.00  0.00    +0.175 C 
ATOM     13  C   UNL     1      10.905  11.032  22.209  0.00  0.00    +0.158 C 
ENDROOT
BRANCH  11   2
ATOM      2  O   UNL     1       9.892  13.750  22.369  0.00  0.00    -0.387 OA
ATOM     32  H   UNL     1       9.750  14.606  22.807  0.00  0.00    +0.210 HD
ENDBRANCH  11   2
BRANCH  12   3
ATOM      3  O   UNL     1      10.121  11.861  24.357  0.00  0.00    -0.387 OA
ATOM     33  H   UNL     1       9.284  12.084  23.916  0.00  0.00    +0.210 HD
ENDBRANCH  12   3
BRANCH  10  15
ATOM     15  C   UNL     1      13.457  13.110  21.549  0.00  0.00    +0.140 C 
BRANCH  15   7
ATOM      4  O   UNL     1      14.552  10.978  23.136  0.00  0.00    -0.253 OA
ATOM      6  N   UNL     1      15.220   9.908  21.186  0.00  0.00    -0.297 N 
ATOM      7  N   UNL     1      14.120  11.934  21.066  0.00  0.00    -0.297 N 
ATOM     22  C   UNL     1      14.626  10.939  21.908  0.00  0.00    +0.300 C 
ATOM     30  H   UNL     1      15.291  10.014  20.179  0.00  0.00    +0.151 HD
ATOM     31  H   UNL     1      14.215  11.813  20.062  0.00  0.00    +0.150 HD
BRANCH   6  14
ATOM     14  C   UNL     1      15.824   8.752  21.809  0.00  0.00    +0.074 C 
ATOM     16  C   UNL     1      14.770   7.688  22.134  0.00  0.00    +0.022 C 
ATOM     17  C   UNL     1      16.943   8.176  20.934  0.00  0.00    +0.022 C 
ATOM     19  C   UNL     1      14.238   6.990  20.883  0.00  0.00    +0.002 C 
ATOM     20  C   UNL     1      16.407   7.477  19.685  0.00  0.00    +0.002 C 
ATOM     21  C   UNL     1      15.369   6.415  20.035  0.00  0.00    +0.000 C 
ENDBRANCH   6  14
ENDBRANCH  15   7
ENDBRANCH  10  15
BRANCH  13  18
ATOM     18  C   UNL     1      11.371   9.608  22.454  0.00  0.00    +0.130 C 
BRANCH  18  23
ATOM      5  O   UNL     1      10.364   7.636  21.481  0.00  0.00    -0.276 OA
ATOM      8  N   UNL     1      11.478   9.138  20.100  0.00  0.00    -0.311 N 
ATOM     23  C   UNL     1      11.003   8.672  21.318  0.00  0.00    +0.216 C 
ATOM     34  H   UNL     1      11.986  10.017  20.072  0.00  0.00    +0.149 HD
BRANCH   8  24
ATOM     24  C   UNL     1      11.270   8.440  18.853  0.00  0.00    +0.141 C 
BRANCH  24  25
ATOM      9  N   UNL     1      12.713   9.206  15.442  0.00  0.00    -0.263 NA
ATOM     25  C   UNL     1      12.230   8.889  17.790  0.00  0.00    -0.012 A 
ATOM     26  C   UNL     1      13.484   9.388  18.123  0.00  0.00    +0.008 A 
ATOM     27  C   UNL     1      11.895   8.820  16.448  0.00  0.00    +0.115 A 
ATOM     28  C   UNL     1      14.354   9.796  17.116  0.00  0.00    +0.020 A 
ATOM     29  C   UNL     1      13.923   9.685  15.805  0.00  0.00    +0.111 A 
ENDBRANCH  24  25
ENDBRANCH   8  24
ENDBRANCH  18  23
ENDBRANCH  13  18
TORSDOF 9
ENDMDL
MODEL 3
REMARK VINA RESULT:      -6.8      2.955      4.207
REMARK  Name = 26744672
REMARK  9 active torsions:
REMARK  status: ('A' for Active; 'I' for Inactive)
REMARK    1  A    between atoms: O_2  and  C_11
REMARK    2  A    between atoms: O_3  and  C_12
REMARK    3  A    between atoms: N_6  and  C_14
REMARK    4  A    between atoms: N_7  and  C_15
REMARK    5  A    between atoms: N_8  and  C_24
REMARK    6  A    between atoms: C_10  and  C_15
REMARK    7  A    between atoms: C_13  and  C_18
REMARK    8  A    between atoms: C_18  and  C_23
REMARK    9  A    between atoms: C_24  and  C_25
REMARK                            x       y       z     vdW  Elec       q    Type
REMARK                         _______ _______ _______ _____ _____    ______ ____
ROOT
ATOM      1  O   UNL     1      12.400   6.949  19.068  0.00  0.00    -0.366 OA
ATOM     10  C   UNL     1      11.457   7.249  20.123  0.00  0.00    +0.167 C 
ATOM     11  C   UNL     1      12.201   7.042  21.438  0.00  0.00    +0.176 C 
ATOM     12  C   UNL     1      13.631   7.341  21.041  0.00  0.00    +0.175 C 
ATOM     13  C   UNL     1      13.697   6.729  19.651  0.00  0.00    +0.158 C 
ENDROOT
BRANCH  11   2
ATOM      2  O   UNL     1      12.067   5.670  21.810  0.00  0.00    -0.387 OA
ATOM     32  H   UNL     1      12.043   5.148  20.990  0.00  0.00    +0.210 HD
ENDBRANCH  11   2
BRANCH  12   3
ATOM      3  O   UNL     1      14.585   6.775  21.915  0.00  0.00    -0.387 OA
ATOM     33  H   UNL     1      14.917   7.488  22.485  0.00  0.00    +0.210 HD
ENDBRANCH  12   3
BRANCH  10  15
ATOM     15  C   UNL     1      10.981   8.682  19.928  0.00  0.00    +0.140 C 
BRANCH  15   7
ATOM      4  O   UNL     1      12.540  10.998  20.612  0.00  0.00    -0.253 OA
ATOM      6  N   UNL     1      11.538  11.018  22.706  0.00  0.00    -0.297 N 
ATOM      7  N   UNL     1      10.958   9.394  21.171  0.00  0.00    -0.297 N 
ATOM     22  C   UNL     1      11.751  10.517  21.425  0.00  0.00    +0.300 C 
ATOM     30  H   UNL     1      10.919  10.499  23.321  0.00  0.00    +0.151 HD
ATOM     31  H   UNL     1      10.326   9.074  21.898  0.00  0.00    +0.150 HD
BRANCH   6  14
ATOM     14  C   UNL     1      12.229  12.176  23.229  0.00  0.00    +0.074 C 
ATOM     16  C   UNL     1      11.558  13.473  22.766  0.00  0.00    +0.022 C 
ATOM     17  C   UNL     1      12.327  12.115  24.757  0.00  0.00    +0.022 C 
ATOM     19  C   UNL     1      10.213  13.714  23.450  0.00  0.00    +0.002 C 
ATOM     20  C   UNL     1      10.980  12.358  25.439  0.00  0.00    +0.002 C 
ATOM     21  C   UNL     1      10.338  13.660  24.971  0.00  0.00    +0.000 C 
ENDBRANCH   6  14
ENDBRANCH  15   7
ENDBRANCH  10  15
BRANCH  13  18
ATOM     18  C   UNL     1      14.765   7.351  18.769  0.00  0.00    +0.130 C 
BRANCH  18  23
ATOM      5  O   UNL     1      13.991   7.778  16.518  0.00  0.00    -0.276 OA
ATOM      8  N   UNL     1      13.893   9.485  18.092  0.00  0.00    -0.311 N 
ATOM     23  C   UNL     1      14.179   8.199  17.655  0.00  0.00    +0.216 C 
ATOM     34  H   UNL     1      14.075   9.730  19.061  0.00  0.00    +0.149 HD
BRANCH   8  24
ATOM     24  C   UNL     1      13.329  10.502  17.236  0.00  0.00    +0.141 C 
BRANCH  24  25
ATOM      9  N   UNL     1      14.999  11.385  13.960  0.00  0.00    -0.263 NA
ATOM     25  C   UNL     1      14.334  11.037  16.259  0.00  0.00    -0.012 A 
ATOM     26  C   UNL     1      15.498  11.660  16.697  0.00  0.00    +0.008 A 
ATOM     27  C   UNL     1      14.133  10.926  14.892  0.00  0.00    +0.115 A 
ATOM     28  C   UNL     1      16.413  12.144  15.768  0.00  0.00    +0.020 A 
ATOM     29  C   UNL     1      16.119  11.984  14.424  0.00  0.00    +0.111 A 
ENDBRANCH  24  25
ENDBRANCH   8  24
ENDBRANCH  18  23
ENDBRANCH  13  18
TORSDOF 9
ENDMDL
MODEL 4
REMARK VINA RESULT:      -6.6     16.653     18.361
REMARK  Name = 26744672
REMARK  9 active torsions:
REMARK  status: ('A' for Active; 'I' for Inactive)
REMARK    1  A    between atoms: O_2  and  C_11
REMARK    2  A    between atoms: O_3  and  C_12
REMARK    3  A    between atoms: N_6  and  C_14
REMARK    4  A    between atoms: N_7  and  C_15
REMARK    5  A    between atoms: N_8  and  C_24
REMARK    6  A    between atoms: C_10  and  C_15
REMARK    7  A    between atoms: C_13  and  C_18
REMARK    8  A    between atoms: C_18  and  C_23
REMARK    9  A    between atoms: C_24  and  C_25
REMARK                            x       y       z     vdW  Elec       q    Type
REMARK                         _______ _______ _______ _____ _____    ______ ____
ROOT
ATOM      1  O   UNL     1       9.432   5.940   5.746  0.00  0.00    -0.366 OA
ATOM     10  C   UNL     1       9.288   6.164   7.168  0.00  0.00    +0.167 C 
ATOM     11  C   UNL     1      10.695   6.126   7.754  0.00  0.00    +0.176 C 
ATOM     12  C   UNL     1      11.536   6.596   6.586  0.00  0.00    +0.175 C 
ATOM     13  C   UNL     1      10.833   5.929   5.416  0.00  0.00    +0.158 C 
ENDROOT
BRANCH  11   2
ATOM      2  O   UNL     1      11.005   4.770   8.073  0.00  0.00    -0.387 OA
ATOM     32  H   UNL     1      11.536   4.777   8.888  0.00  0.00    +0.210 HD
ENDBRANCH  11   2
BRANCH  12   3
ATOM      3  O   UNL     1      12.891   6.209   6.680  0.00  0.00    -0.387 OA
ATOM     33  H   UNL     1      13.302   6.755   7.370  0.00  0.00    +0.210 HD
ENDBRANCH  12   3
BRANCH  10  15
ATOM     15  C   UNL     1       8.599   7.507   7.360  0.00  0.00    +0.140 C 
BRANCH  15   7
ATOM      4  O   UNL     1       8.702  10.056   6.035  0.00  0.00    -0.253 OA
ATOM      6  N   UNL     1       7.178   9.271   4.469  0.00  0.00    -0.297 N 
ATOM      7  N   UNL     1       7.876   7.892   6.184  0.00  0.00    -0.297 N 
ATOM     22  C   UNL     1       7.983   9.157   5.599  0.00  0.00    +0.300 C 
ATOM     30  H   UNL     1       6.569   8.491   4.241  0.00  0.00    +0.151 HD
ATOM     31  H   UNL     1       7.266   7.207   5.748  0.00  0.00    +0.150 HD
BRANCH   6  14
ATOM     14  C   UNL     1       7.097  10.474   3.672  0.00  0.00    +0.074 C 
ATOM     16  C   UNL     1       7.870  10.317   2.358  0.00  0.00    +0.022 C 
ATOM     17  C   UNL     1       5.639  10.869   3.415  0.00  0.00    +0.022 C 
ATOM     19  C   UNL     1       7.171   9.377   1.377  0.00  0.00    +0.002 C 
ATOM     20  C   UNL     1       4.944   9.928   2.432  0.00  0.00    +0.002 C 
ATOM     21  C   UNL     1       5.725   9.797   1.128  0.00  0.00    +0.000 C 
ENDBRANCH   6  14
ENDBRANCH  15   7
ENDBRANCH  10  15
BRANCH  13  18
ATOM     18  C   UNL     1      11.051   6.643   4.094  0.00  0.00    +0.130 C 
BRANCH  18  23
ATOM      5  O   UNL     1      10.255   5.939   1.921  0.00  0.00    -0.276 OA
ATOM      8  N   UNL     1      11.747   4.581   3.075  0.00  0.00    -0.311 N 
ATOM     23  C   UNL     1      10.955   5.707   2.903  0.00  0.00    +0.216 C 
ATOM     34  H   UNL     1      12.300   4.491   3.922  0.00  0.00    +0.149 HD
BRANCH   8  24
ATOM     24  C   UNL     1      11.842   3.525   2.094  0.00  0.00    +0.141 C 
BRANCH  24  25
ATOM      9  N   UNL     1      13.846   4.121  -1.057  0.00  0.00    -0.263 NA
ATOM     25  C   UNL     1      13.014   3.713   1.176  0.00  0.00    -0.012 A 
ATOM     26  C   UNL     1      14.317   3.660   1.659  0.00  0.00    +0.008 A 
ATOM     27  C   UNL     1      12.833   3.945  -0.177  0.00  0.00    +0.115 A 
ATOM     28  C   UNL     1      15.385   3.837   0.785  0.00  0.00    +0.020 A 
ATOM     29  C   UNL     1      15.097   4.062  -0.551  0.00  0.00    +0.111 A 
ENDBRANCH  24  25
ENDBRANCH   8  24
ENDBRANCH  18  23
ENDBRANCH  13  18
TORSDOF 9
ENDMDL
MODEL 5
REMARK VINA RESULT:      -6.5     25.792     28.644
REMARK  Name = 26744672
REMARK  9 active torsions:
REMARK  status: ('A' for Active; 'I' for Inactive)
REMARK    1  A    between atoms: O_2  and  C_11
REMARK    2  A    between atoms: O_3  and  C_12
REMARK    3  A    between atoms: N_6  and  C_14
REMARK    4  A    between atoms: N_7  and  C_15
REMARK    5  A    between atoms: N_8  and  C_24
REMARK    6  A    between atoms: C_10  and  C_15
REMARK    7  A    between atoms: C_13  and  C_18
REMARK    8  A    between atoms: C_18  and  C_23
REMARK    9  A    between atoms: C_24  and  C_25
REMARK                            x       y       z     vdW  Elec       q    Type
REMARK                         _______ _______ _______ _____ _____    ______ ____
ROOT
ATOM      1  O   UNL     1     -17.266   5.496  22.479  0.00  0.00    -0.366 OA
ATOM     10  C   UNL     1     -17.128   4.677  23.663  0.00  0.00    +0.167 C 
ATOM     11  C   UNL     1     -15.831   3.893  23.494  0.00  0.00    +0.176 C 
ATOM     12  C   UNL     1     -15.011   4.823  22.625  0.00  0.00    +0.175 C 
ATOM     13  C   UNL     1     -16.071   5.378  21.688  0.00  0.00    +0.158 C 
ENDROOT
BRANCH  11   2
ATOM      2  O   UNL     1     -16.130   2.690  22.787  0.00  0.00    -0.387 OA
ATOM     32  H   UNL     1     -17.057   2.465  22.975  0.00  0.00    +0.210 HD
ENDBRANCH  11   2
BRANCH  12   3
ATOM      3  O   UNL     1     -13.975   4.167  21.925  0.00  0.00    -0.387 OA
ATOM     33  H   UNL     1     -14.205   4.185  20.981  0.00  0.00    +0.210 HD
ENDBRANCH  12   3
BRANCH  10  15
ATOM     15  C   UNL     1     -17.111   5.603  24.871  0.00  0.00    +0.140 C 
BRANCH  15   7
ATOM      4  O   UNL     1     -18.226   4.793  27.393  0.00  0.00    -0.253 OA
ATOM      6  N   UNL     1     -16.119   4.089  28.066  0.00  0.00    -0.297 N 
ATOM      7  N   UNL     1     -16.406   5.009  25.969  0.00  0.00    -0.297 N 
ATOM     22  C   UNL     1     -17.026   4.642  27.167  0.00  0.00    +0.300 C 
ATOM     30  H   UNL     1     -15.138   4.080  27.805  0.00  0.00    +0.151 HD
ATOM     31  H   UNL     1     -15.412   4.836  25.866  0.00  0.00    +0.150 HD
BRANCH   6  14
ATOM     14  C   UNL     1     -16.492   3.623  29.383  0.00  0.00    +0.074 C 
ATOM     16  C   UNL     1     -16.854   2.135  29.359  0.00  0.00    +0.022 C 
ATOM     17  C   UNL     1     -15.386   3.909  30.403  0.00  0.00    +0.022 C 
ATOM     19  C   UNL     1     -15.632   1.238  29.166  0.00  0.00    +0.002 C 
ATOM     20  C   UNL     1     -14.165   3.009  30.209  0.00  0.00    +0.002 C 
ATOM     21  C   UNL     1     -14.549   1.533  30.200  0.00  0.00    +0.000 C 
ENDBRANCH   6  14
ENDBRANCH  15   7
ENDBRANCH  10  15
BRANCH  13  18
ATOM     18  C   UNL     1     -15.709   6.732  21.103  0.00  0.00    +0.130 C 
BRANCH  18  23
ATOM      5  O   UNL     1     -14.240   7.878  22.646  0.00  0.00    -0.276 OA
ATOM      8  N   UNL     1     -13.340   6.901  20.738  0.00  0.00    -0.311 N 
ATOM     23  C   UNL     1     -14.370   7.243  21.603  0.00  0.00    +0.216 C 
ATOM     34  H   UNL     1     -13.553   6.360  19.905  0.00  0.00    +0.149 HD
BRANCH   8  24
ATOM     24  C   UNL     1     -11.961   7.264  20.971  0.00  0.00    +0.141 C 
BRANCH  24  25
ATOM      9  N   UNL     1     -10.225   9.869  18.851  0.00  0.00    -0.263 NA
ATOM     25  C   UNL     1     -11.349   7.941  19.780  0.00  0.00    -0.012 A 
ATOM     26  C   UNL     1     -11.324   7.318  18.537  0.00  0.00    +0.008 A 
ATOM     27  C   UNL     1     -10.791   9.205  19.884  0.00  0.00    +0.115 A 
ATOM     28  C   UNL     1     -10.750   7.970  17.450  0.00  0.00    +0.020 A 
ATOM     29  C   UNL     1     -10.220   9.233  17.659  0.00  0.00    +0.111 A 
ENDBRANCH  24  25
ENDBRANCH   8  24
ENDBRANCH  18  23
ENDBRANCH  13  18
TORSDOF 9
ENDMDL
MODEL 6
REMARK VINA RESULT:      -6.5     28.648     30.580
REMARK  Name = 26744672
REMARK  9 active torsions:
REMARK  status: ('A' for Active; 'I' for Inactive)
REMARK    1  A    between atoms: O_2  and  C_11
REMARK    2  A    between atoms: O_3  and  C_12
REMARK    3  A    between atoms: N_6  and  C_14
REMARK    4  A    between atoms: N_7  and  C_15
REMARK    5  A    between atoms: N_8  and  C_24
REMARK    6  A    between atoms: C_10  and  C_15
REMARK    7  A    between atoms: C_13  and  C_18
REMARK    8  A    between atoms: C_18  and  C_23
REMARK    9  A    between atoms: C_24  and  C_25
REMARK                            x       y       z     vdW  Elec       q    Type
REMARK                         _______ _______ _______ _____ _____    ______ ____
ROOT
ATOM      1  O   UNL     1     -13.574   2.630  31.738  0.00  0.00    -0.366 OA
ATOM     10  C   UNL     1     -13.799   2.501  30.316  0.00  0.00    +0.167 C 
ATOM     11  C   UNL     1     -14.212   1.052  30.075  0.00  0.00    +0.176 C 
ATOM     12  C   UNL     1     -14.868   0.690  31.391  0.00  0.00    +0.175 C 
ATOM     13  C   UNL     1     -13.974   1.409  32.387  0.00  0.00    +0.158 C 
ENDROOT
BRANCH  11   2
ATOM      2  O   UNL     1     -13.027   0.281  29.883  0.00  0.00    -0.387 OA
ATOM     32  H   UNL     1     -12.284   0.904  29.807  0.00  0.00    +0.210 HD
ENDBRANCH  11   2
BRANCH  12   3
ATOM      3  O   UNL     1     -14.913  -0.702  31.628  0.00  0.00    -0.387 OA
ATOM     33  H   UNL     1     -14.294  -1.123  31.009  0.00  0.00    +0.210 HD
ENDBRANCH  12   3
BRANCH  10  15
ATOM     15  C   UNL     1     -14.877   3.500  29.922  0.00  0.00    +0.140 C 
BRANCH  15   7
ATOM      4  O   UNL     1     -17.160   2.942  28.265  0.00  0.00    -0.253 OA
ATOM      6  N   UNL     1     -15.924   3.570  26.403  0.00  0.00    -0.297 N 
ATOM      7  N   UNL     1     -14.959   3.641  28.498  0.00  0.00    -0.297 N 
ATOM     22  C   UNL     1     -16.111   3.348  27.764  0.00  0.00    +0.300 C 
ATOM     30  H   UNL     1     -14.996   3.834  26.089  0.00  0.00    +0.151 HD
ATOM     31  H   UNL     1     -14.142   3.983  28.001  0.00  0.00    +0.150 HD
BRANCH   6  14
ATOM     14  C   UNL     1     -16.956   3.346  25.414  0.00  0.00    +0.074 C 
ATOM     16  C   UNL     1     -17.859   4.575  25.273  0.00  0.00    +0.022 C 
ATOM     17  C   UNL     1     -16.349   2.945  24.066  0.00  0.00    +0.022 C 
ATOM     19  C   UNL     1     -17.158   5.740  24.575  0.00  0.00    +0.002 C 
ATOM     20  C   UNL     1     -15.651   4.112  23.368  0.00  0.00    +0.002 C 
ATOM     21  C   UNL     1     -16.573   5.319  23.229  0.00  0.00    +0.000 C 
ENDBRANCH   6  14
ENDBRANCH  15   7
ENDBRANCH  10  15
BRANCH  13  18
ATOM     18  C   UNL     1     -14.668   1.730  33.698  0.00  0.00    +0.130 C 
BRANCH  18  23
ATOM      5  O   UNL     1     -16.419   3.234  32.975  0.00  0.00    -0.276 OA
ATOM      8  N   UNL     1     -14.813   4.002  34.468  0.00  0.00    -0.311 N 
ATOM     23  C   UNL     1     -15.413   3.052  33.654  0.00  0.00    +0.216 C 
ATOM     34  H   UNL     1     -13.987   3.745  35.001  0.00  0.00    +0.149 HD
BRANCH   8  24
ATOM     24  C   UNL     1     -15.315   5.348  34.612  0.00  0.00    +0.141 C 
BRANCH  24  25
ATOM      9  N   UNL     1     -13.306   7.518  32.254  0.00  0.00    -0.263 NA
ATOM     25  C   UNL     1     -14.333   6.371  34.119  0.00  0.00    -0.012 A 
ATOM     26  C   UNL     1     -13.556   7.106  35.008  0.00  0.00    +0.008 A 
ATOM     27  C   UNL     1     -14.172   6.612  32.764  0.00  0.00    +0.115 A 
ATOM     28  C   UNL     1     -12.654   8.046  34.521  0.00  0.00    +0.020 A 
ATOM     29  C   UNL     1     -12.568   8.212  33.149  0.00  0.00    +0.111 A 
ENDBRANCH  24  25
ENDBRANCH   8  24
ENDBRANCH  18  23
ENDBRANCH  13  18
TORSDOF 9
ENDMDL
MODEL 7
REMARK VINA RESULT:      -6.4     16.605     18.449
REMARK  Name = 26744672
REMARK  9 active torsions:
REMARK  status: ('A' for Active; 'I' for Inactive)
REMARK    1  A    between atoms: O_2  and  C_11
REMARK    2  A    between atoms: O_3  and  C_12
REMARK    3  A    between atoms: N_6  and  C_14
REMARK    4  A    between atoms: N_7  and  C_15
REMARK    5  A    between atoms: N_8  and  C_24
REMARK    6  A    between atoms: C_10  and  C_15
REMARK    7  A    between atoms: C_13  and  C_18
REMARK    8  A    between atoms: C_18  and  C_23
REMARK    9  A    between atoms: C_24  and  C_25
REMARK                            x       y       z     vdW  Elec       q    Type
REMARK                         _______ _______ _______ _____ _____    ______ ____
ROOT
ATOM      1  O   UNL     1       9.659   6.069   5.704  0.00  0.00    -0.366 OA
ATOM     10  C   UNL     1       9.306   6.118   7.106  0.00  0.00    +0.167 C 
ATOM     11  C   UNL     1      10.609   5.961   7.883  0.00  0.00    +0.176 C 
ATOM     12  C   UNL     1      11.622   6.544   6.920  0.00  0.00    +0.175 C 
ATOM     13  C   UNL     1      11.093   6.052   5.584  0.00  0.00    +0.158 C 
ENDROOT
BRANCH  11   2
ATOM      2  O   UNL     1      10.848   4.566   8.067  0.00  0.00    -0.387 OA
ATOM     32  H   UNL     1      11.645   4.337   7.559  0.00  0.00    +0.210 HD
ENDBRANCH  11   2
BRANCH  12   3
ATOM      3  O   UNL     1      12.942   6.103   7.162  0.00  0.00    -0.387 OA
ATOM     33  H   UNL     1      12.894   5.381   7.810  0.00  0.00    +0.210 HD
ENDBRANCH  12   3
BRANCH  10  15
ATOM     15  C   UNL     1       8.615   7.449   7.366  0.00  0.00    +0.140 C 
BRANCH  15   7
ATOM      4  O   UNL     1       8.980   9.810   5.766  0.00  0.00    -0.253 OA
ATOM      6  N   UNL     1       7.162   9.176   4.469  0.00  0.00    -0.297 N 
ATOM      7  N   UNL     1       7.826   7.852   6.238  0.00  0.00    -0.297 N 
ATOM     22  C   UNL     1       8.071   9.020   5.511  0.00  0.00    +0.300 C 
ATOM     30  H   UNL     1       6.406   8.503   4.394  0.00  0.00    +0.151 HD
ATOM     31  H   UNL     1       7.060   7.253   5.948  0.00  0.00    +0.150 HD
BRANCH   6  14
ATOM     14  C   UNL     1       7.186  10.299   3.558  0.00  0.00    +0.074 C 
ATOM     16  C   UNL     1       6.520   9.941   2.225  0.00  0.00    +0.022 C 
ATOM     17  C   UNL     1       6.536  11.535   4.189  0.00  0.00    +0.022 C 
ATOM     19  C   UNL     1       5.003   9.810   2.345  0.00  0.00    +0.002 C 
ATOM     20  C   UNL     1       5.017  11.401   4.305  0.00  0.00    +0.002 C 
ATOM     21  C   UNL     1       4.377  11.056   2.965  0.00  0.00    +0.000 C 
ENDBRANCH   6  14
ENDBRANCH  15   7
ENDBRANCH  10  15
BRANCH  13  18
ATOM     18  C   UNL     1      11.517   6.918   4.411  0.00  0.00    +0.130 C 
BRANCH  18  23
ATOM      5  O   UNL     1      13.158   6.544   2.673  0.00  0.00    -0.276 OA
ATOM      8  N   UNL     1      11.610   4.876   3.147  0.00  0.00    -0.311 N 
ATOM     23  C   UNL     1      12.202   6.120   3.316  0.00  0.00    +0.216 C 
ATOM     34  H   UNL     1      10.829   4.615   3.742  0.00  0.00    +0.149 HD
BRANCH   8  24
ATOM     24  C   UNL     1      12.063   3.913   2.170  0.00  0.00    +0.141 C 
BRANCH  24  25
ATOM      9  N   UNL     1       9.635   4.928  -0.546  0.00  0.00    -0.263 NA
ATOM     25  C   UNL     1      11.496   4.186   0.807  0.00  0.00    -0.012 A 
ATOM     26  C   UNL     1      12.253   3.969  -0.339  0.00  0.00    +0.008 A 
ATOM     27  C   UNL     1      10.205   4.663   0.651  0.00  0.00    +0.115 A 
ATOM     28  C   UNL     1      11.701   4.230  -1.589  0.00  0.00    +0.020 A 
ATOM     29  C   UNL     1      10.401   4.704  -1.637  0.00  0.00    +0.111 A 
ENDBRANCH  24  25
ENDBRANCH   8  24
ENDBRANCH  18  23
ENDBRANCH  13  18
TORSDOF 9
ENDMDL
MODEL 8
REMARK VINA RESULT:      -6.4     27.655     29.476
REMARK  Name = 26744672
REMARK  9 active torsions:
REMARK  status: ('A' for Active; 'I' for Inactive)
REMARK    1  A    between atoms: O_2  and  C_11
REMARK    2  A    between atoms: O_3  and  C_12
REMARK    3  A    between atoms: N_6  and  C_14
REMARK    4  A    between atoms: N_7  and  C_15
REMARK    5  A    between atoms: N_8  and  C_24
REMARK    6  A    between atoms: C_10  and  C_15
REMARK    7  A    between atoms: C_13  and  C_18
REMARK    8  A    between atoms: C_18  and  C_23
REMARK    9  A    between atoms: C_24  and  C_25
REMARK                            x       y       z     vdW  Elec       q    Type
REMARK                         _______ _______ _______ _____ _____    ______ ____
ROOT
ATOM      1  O   UNL     1      -5.167 -10.069  18.153  0.00  0.00    -0.366 OA
ATOM     10  C   UNL     1      -4.958 -10.354  16.751  0.00  0.00    +0.167 C 
ATOM     11  C   UNL     1      -4.457 -11.793  16.675  0.00  0.00    +0.176 C 
ATOM     12  C   UNL     1      -5.091 -12.412  17.902  0.00  0.00    +0.175 C 
ATOM     13  C   UNL     1      -4.979 -11.279  18.908  0.00  0.00    +0.158 C 
ENDROOT
BRANCH  11   2
ATOM      2  O   UNL     1      -3.036 -11.774  16.807  0.00  0.00    -0.387 OA
ATOM     32  H   UNL     1      -2.818 -12.183  17.662  0.00  0.00    +0.210 HD
ENDBRANCH  11   2
BRANCH  12   3
ATOM      3  O   UNL     1      -4.430 -13.580  18.344  0.00  0.00    -0.387 OA
ATOM     33  H   UNL     1      -5.112 -14.204  18.645  0.00  0.00    +0.210 HD
ENDBRANCH  12   3
BRANCH  10  15
ATOM     15  C   UNL     1      -6.283 -10.146  16.031  0.00  0.00    +0.140 C 
BRANCH  15   7
ATOM      4  O   UNL     1      -6.283 -11.726  13.629  0.00  0.00    -0.253 OA
ATOM      6  N   UNL     1      -5.867  -9.802  12.398  0.00  0.00    -0.297 N 
ATOM      7  N   UNL     1      -6.076  -9.674  14.693  0.00  0.00    -0.297 N 
ATOM     22  C   UNL     1      -6.093 -10.511  13.574  0.00  0.00    +0.300 C 
ATOM     30  H   UNL     1      -5.647  -8.814  12.475  0.00  0.00    +0.151 HD
ATOM     31  H   UNL     1      -5.923  -8.680  14.551  0.00  0.00    +0.150 HD
BRANCH   6  14
ATOM     14  C   UNL     1      -5.831 -10.423  11.093  0.00  0.00    +0.074 C 
ATOM     16  C   UNL     1      -6.377  -9.478  10.018  0.00  0.00    +0.022 C 
ATOM     17  C   UNL     1      -4.416 -10.899  10.747  0.00  0.00    +0.022 C 
ATOM     19  C   UNL     1      -5.426  -8.320   9.718  0.00  0.00    +0.002 C 
ATOM     20  C   UNL     1      -3.467  -9.739  10.445  0.00  0.00    +0.002 C 
ATOM     21  C   UNL     1      -4.027  -8.819   9.365  0.00  0.00    +0.000 C 
ENDBRANCH   6  14
ENDBRANCH  15   7
ENDBRANCH  10  15
BRANCH  13  18
ATOM     18  C   UNL     1      -6.013 -11.355  20.018  0.00  0.00    +0.130 C 
BRANCH  18  23
ATOM      5  O   UNL     1      -7.784 -12.897  19.437  0.00  0.00    -0.276 OA
ATOM      8  N   UNL     1      -8.123 -10.617  19.137  0.00  0.00    -0.311 N 
ATOM     23  C   UNL     1      -7.390 -11.736  19.506  0.00  0.00    +0.216 C 
ATOM     34  H   UNL     1      -7.708  -9.696  19.246  0.00  0.00    +0.149 HD
BRANCH   8  24
ATOM     24  C   UNL     1      -9.467 -10.692  18.614  0.00  0.00    +0.141 C 
BRANCH  24  25
ATOM      9  N   UNL     1     -10.051  -9.594  15.042  0.00  0.00    -0.263 NA
ATOM     25  C   UNL     1      -9.657  -9.804  17.419  0.00  0.00    -0.012 A 
ATOM     26  C   UNL     1      -9.619  -8.420  17.543  0.00  0.00    +0.008 A 
ATOM     27  C   UNL     1      -9.874 -10.337  16.158  0.00  0.00    +0.115 A 
ATOM     28  C   UNL     1      -9.796  -7.622  16.417  0.00  0.00    +0.020 A 
ATOM     29  C   UNL     1     -10.007  -8.252  15.202  0.00  0.00    +0.111 A 
ENDBRANCH  24  25
ENDBRANCH   8  24
ENDBRANCH  18  23
ENDBRANCH  13  18
TORSDOF 9
ENDMDL
MODEL 9
REMARK VINA RESULT:      -6.2     26.400     28.492
REMARK  Name = 26744672
REMARK  9 active torsions:
REMARK  status: ('A' for Active; 'I' for Inactive)
REMARK    1  A    between atoms: O_2  and  C_11
REMARK    2  A    between atoms: O_3  and  C_12
REMARK    3  A    between atoms: N_6  and  C_14
REMARK    4  A    between atoms: N_7  and  C_15
REMARK    5  A    between atoms: N_8  and  C_24
REMARK    6  A    between atoms: C_10  and  C_15
REMARK    7  A    between atoms: C_13  and  C_18
REMARK    8  A    between atoms: C_18  and  C_23
REMARK    9  A    between atoms: C_24  and  C_25
REMARK                            x       y       z     vdW  Elec       q    Type
REMARK                         _______ _______ _______ _____ _____    ______ ____
ROOT
ATOM      1  O   UNL     1      -5.184 -10.738  15.944  0.00  0.00    -0.366 OA
ATOM     10  C   UNL     1      -6.506 -10.972  16.481  0.00  0.00    +0.167 C 
ATOM     11  C   UNL     1      -6.425 -12.272  17.274  0.00  0.00    +0.176 C 
ATOM     12  C   UNL     1      -4.976 -12.281  17.715  0.00  0.00    +0.175 C 
ATOM     13  C   UNL     1      -4.280 -11.717  16.488  0.00  0.00    +0.158 C 
ENDROOT
BRANCH  11   2
ATOM      2  O   UNL     1      -6.677 -13.354  16.378  0.00  0.00    -0.387 OA
ATOM     32  H   UNL     1      -5.834 -13.576  15.947  0.00  0.00    +0.210 HD
ENDBRANCH  11   2
BRANCH  12   3
ATOM      3  O   UNL     1      -4.501 -13.569  18.048  0.00  0.00    -0.387 OA
ATOM     33  H   UNL     1      -4.913 -13.822  18.891  0.00  0.00    +0.210 HD
ENDBRANCH  12   3
BRANCH  10  15
ATOM     15  C   UNL     1      -6.880  -9.773  17.339  0.00  0.00    +0.140 C 
BRANCH  15   7
ATOM      4  O   UNL     1      -9.633  -9.407  18.082  0.00  0.00    -0.253 OA
ATOM      6  N   UNL     1      -9.892  -7.953  16.291  0.00  0.00    -0.297 N 
ATOM      7  N   UNL     1      -7.844  -8.942  16.678  0.00  0.00    -0.297 N 
ATOM     22  C   UNL     1      -9.169  -8.819  17.106  0.00  0.00    +0.300 C 
ATOM     30  H   UNL     1      -9.430  -7.579  15.468  0.00  0.00    +0.151 HD
ATOM     31  H   UNL     1      -7.545  -8.409  15.868  0.00  0.00    +0.150 HD
BRANCH   6  14
ATOM     14  C   UNL     1     -11.289  -7.644  16.507  0.00  0.00    +0.074 C 
ATOM     16  C   UNL     1     -11.563  -6.152  16.288  0.00  0.00    +0.022 C 
ATOM     17  C   UNL     1     -12.188  -8.510  15.618  0.00  0.00    +0.022 C 
ATOM     19  C   UNL     1     -11.492  -5.753  14.815  0.00  0.00    +0.002 C 
ATOM     20  C   UNL     1     -12.117  -8.107  14.145  0.00  0.00    +0.002 C 
ATOM     21  C   UNL     1     -12.404  -6.621  13.952  0.00  0.00    +0.000 C 
ENDBRANCH   6  14
ENDBRANCH  15   7
ENDBRANCH  10  15
BRANCH  13  18
ATOM     18  C   UNL     1      -2.946 -11.063  16.800  0.00  0.00    +0.130 C 
BRANCH  18  23
ATOM      5  O   UNL     1      -1.124 -10.075  15.553  0.00  0.00    -0.276 OA
ATOM      8  N   UNL     1      -2.678 -11.392  14.435  0.00  0.00    -0.311 N 
ATOM     23  C   UNL     1      -2.133 -10.773  15.551  0.00  0.00    +0.216 C 
ATOM     34  H   UNL     1      -3.512 -11.961  14.543  0.00  0.00    +0.149 HD
BRANCH   8  24
ATOM     24  C   UNL     1      -2.105 -11.282  13.113  0.00  0.00    +0.141 C 
BRANCH  24  25
ATOM      9  N   UNL     1      -5.146  -9.551  11.678  0.00  0.00    -0.263 NA
ATOM     25  C   UNL     1      -2.971 -10.474  12.191  0.00  0.00    -0.012 A 
ATOM     26  C   UNL     1      -2.450  -9.910  11.031  0.00  0.00    +0.008 A 
ATOM     27  C   UNL     1      -4.312 -10.267  12.467  0.00  0.00    +0.115 A 
ATOM     28  C   UNL     1      -3.276  -9.167  10.194  0.00  0.00    +0.020 A 
ATOM     29  C   UNL     1      -4.604  -9.019  10.560  0.00  0.00    +0.111 A 
ENDBRANCH  24  25
ENDBRANCH   8  24
ENDBRANCH  18  23
ENDBRANCH  13  18
TORSDOF 9
ENDMDL
MODEL 10
REMARK VINA RESULT:      -6.2     27.496     30.116
REMARK  Name = 26744672
REMARK  9 active torsions:
REMARK  status: ('A' for Active; 'I' for Inactive)
REMARK    1  A    between atoms: O_2  and  C_11
REMARK    2  A    between atoms: O_3  and  C_12
REMARK    3  A    between atoms: N_6  and  C_14
REMARK    4  A    between atoms: N_7  and  C_15
REMARK    5  A    between atoms: N_8  and  C_24
REMARK    6  A    between atoms: C_10  and  C_15
REMARK    7  A    between atoms: C_13  and  C_18
REMARK    8  A    between atoms: C_18  and  C_23
REMARK    9  A    between atoms: C_24  and  C_25
REMARK                            x       y       z     vdW  Elec       q    Type
REMARK                         _______ _______ _______ _____ _____    ______ ____
ROOT
ATOM      1  O   UNL     1      -6.037 -10.453  18.805  0.00  0.00    -0.366 OA
ATOM     10  C   UNL     1      -5.254 -10.280  17.602  0.00  0.00    +0.167 C 
ATOM     11  C   UNL     1      -4.694 -11.655  17.252  0.00  0.00    +0.176 C 
ATOM     12  C   UNL     1      -5.747 -12.579  17.829  0.00  0.00    +0.175 C 
ATOM     13  C   UNL     1      -6.118 -11.856  19.113  0.00  0.00    +0.158 C 
ENDROOT
BRANCH  11   2
ATOM      2  O   UNL     1      -3.458 -11.819  17.946  0.00  0.00    -0.387 OA
ATOM     32  H   UNL     1      -3.586 -12.522  18.606  0.00  0.00    +0.210 HD
ENDBRANCH  11   2
BRANCH  12   3
ATOM      3  O   UNL     1      -5.270 -13.886  18.075  0.00  0.00    -0.387 OA
ATOM     33  H   UNL     1      -4.303 -13.832  18.156  0.00  0.00    +0.210 HD
ENDBRANCH  12   3
BRANCH  10  15
ATOM     15  C   UNL     1      -6.171  -9.719  16.525  0.00  0.00    +0.140 C 
BRANCH  15   7
ATOM      4  O   UNL     1      -6.745 -11.130  14.087  0.00  0.00    -0.253 OA
ATOM      6  N   UNL     1      -5.002  -9.997  13.055  0.00  0.00    -0.297 N 
ATOM      7  N   UNL     1      -5.482  -9.587  15.275  0.00  0.00    -0.297 N 
ATOM     22  C   UNL     1      -5.826 -10.313  14.131  0.00  0.00    +0.300 C 
ATOM     30  H   UNL     1      -4.227  -9.362  13.222  0.00  0.00    +0.151 HD
ATOM     31  H   UNL     1      -4.716  -8.924  15.216  0.00  0.00    +0.150 HD
BRANCH   6  14
ATOM     14  C   UNL     1      -5.136 -10.602  11.749  0.00  0.00    +0.074 C 
ATOM     16  C   UNL     1      -5.784  -9.631  10.756  0.00  0.00    +0.022 C 
ATOM     17  C   UNL     1      -3.784 -11.106  11.233  0.00  0.00    +0.022 C 
ATOM     19  C   UNL     1      -4.847  -8.492  10.356  0.00  0.00    +0.002 C 
ATOM     20  C   UNL     1      -2.850  -9.964  10.831  0.00  0.00    +0.002 C 
ATOM     21  C   UNL     1      -3.512  -9.019   9.834  0.00  0.00    +0.000 C 
ENDBRANCH   6  14
ENDBRANCH  15   7
ENDBRANCH  10  15
BRANCH  13  18
ATOM     18  C   UNL     1      -7.512 -12.191  19.612  0.00  0.00    +0.130 C 
BRANCH  18  23
ATOM      5  O   UNL     1      -9.113 -12.460  17.819  0.00  0.00    -0.276 OA
ATOM      8  N   UNL     1      -8.920 -10.393  18.864  0.00  0.00    -0.311 N 
ATOM     23  C   UNL     1      -8.599 -11.728  18.659  0.00  0.00    +0.216 C 
ATOM     34  H   UNL     1      -8.442  -9.877  19.597  0.00  0.00    +0.149 HD
BRANCH   8  24
ATOM     24  C   UNL     1      -9.922  -9.695  18.093  0.00  0.00    +0.141 C 
BRANCH  24  25
ATOM      9  N   UNL     1     -13.673  -9.564  18.556  0.00  0.00    -0.263 NA
ATOM     25  C   UNL     1     -11.270  -9.737  18.753  0.00  0.00    -0.012 A 
ATOM     26  C   UNL     1     -11.392  -9.974  20.118  0.00  0.00    +0.008 A 
ATOM     27  C   UNL     1     -12.430  -9.540  18.022  0.00  0.00    +0.115 A 
ATOM     28  C   UNL     1     -12.653 -10.005  20.702  0.00  0.00    +0.020 A 
ATOM     29  C   UNL     1     -13.752  -9.797  19.884  0.00  0.00    +0.111 A 
ENDBRANCH  24  25
ENDBRANCH   8  24
ENDBRANCH  18  23
ENDBRANCH  13  18
TORSDOF 9
ENDMDL
