MODEL 1
REMARK VINA RESULT:      -7.3      0.000      0.000
REMARK  Name = 51136901
REMARK  7 active torsions:
REMARK  status: ('A' for Active; 'I' for Inactive)
REMARK    1  A    between atoms: O_3  and  C_30
REMARK    2  A    between atoms: O_3  and  C_31
REMARK    3  A    between atoms: N_4  and  C_9
REMARK    4  A    between atoms: N_8  and  C_23
REMARK    5  A    between atoms: C_13  and  C_17
REMARK    6  A    between atoms: C_18  and  C_19
REMARK    7  A    between atoms: C_24  and  C_25
REMARK                            x       y       z     vdW  Elec       q    Type
REMARK                         _______ _______ _______ _____ _____    ______ ____
ROOT
ATOM      7  N   UNL     1     -15.334   6.539  22.998  0.00  0.00    -0.239 NA
ATOM     19  C   UNL     1     -13.705   7.064  21.291  0.00  0.00    +0.041 A 
ATOM     20  C   UNL     1     -12.987   5.917  21.613  0.00  0.00    +0.016 A 
ATOM     21  C   UNL     1     -14.860   7.327  22.007  0.00  0.00    +0.124 A 
ATOM     22  C   UNL     1     -13.442   5.081  22.627  0.00  0.00    +0.044 A 
ATOM     23  C   UNL     1     -14.609   5.433  23.283  0.00  0.00    +0.125 A 
ENDROOT
BRANCH  19  18
ATOM      1  O   UNL     1     -13.187   9.521  18.810  0.00  0.00    -0.336 OA
ATOM      5  N   UNL     1     -12.035   7.801  19.664  0.00  0.00    -0.190 NA
ATOM      6  N   UNL     1     -14.007   8.953  19.792  0.00  0.00    -0.056 NA
ATOM     17  C   UNL     1     -12.046   8.782  18.799  0.00  0.00    +0.245 A 
ATOM     18  C   UNL     1     -13.260   7.945  20.251  0.00  0.00    +0.204 A 
BRANCH  17  13
ATOM      4  N   UNL     1     -11.553   9.877  16.624  0.00  0.00    -0.288 NA
ATOM     13  C   UNL     1     -10.981   9.201  17.808  0.00  0.00    +0.146 C 
ATOM     14  C   UNL     1     -10.540  10.827  16.159  0.00  0.00    +0.085 C 
ATOM     15  C   UNL     1      -9.983  10.216  18.396  0.00  0.00    +0.030 C 
ATOM     16  C   UNL     1     -10.040  11.417  17.463  0.00  0.00    +0.017 C 
BRANCH   4   9
ATOM      9  C   UNL     1     -11.881   8.916  15.561  0.00  0.00    +0.057 C 
ATOM     10  C   UNL     1     -11.722   9.594  14.185  0.00  0.00    +0.019 C 
ATOM     11  C   UNL     1     -10.629   8.085  15.212  0.00  0.00    +0.019 C 
ATOM     12  C   UNL     1     -10.983   8.319  13.728  0.00  0.00    +0.003 C 
ENDBRANCH   4   9
ENDBRANCH  17  13
ENDBRANCH  19  18
BRANCH  23   8
ATOM      2  O   UNL     1     -16.264   2.938  23.138  0.00  0.00    -0.270 OA
ATOM      8  N   UNL     1     -15.058   4.586  24.302  0.00  0.00    -0.266 N 
ATOM     24  C   UNL     1     -15.833   3.428  24.177  0.00  0.00    +0.249 C 
ATOM     32  H   UNL     1     -14.795   4.907  25.229  0.00  0.00    +0.157 HD
BRANCH  24  25
ATOM     25  C   UNL     1     -16.128   2.721  25.451  0.00  0.00    +0.037 A 
ATOM     26  C   UNL     1     -16.641   1.424  25.426  0.00  0.00    +0.016 A 
ATOM     27  C   UNL     1     -15.893   3.355  26.671  0.00  0.00    +0.016 A 
ATOM     28  C   UNL     1     -16.918   0.762  26.622  0.00  0.00    +0.046 A 
ATOM     29  C   UNL     1     -16.172   2.694  27.866  0.00  0.00    +0.046 A 
ATOM     30  C   UNL     1     -16.684   1.396  27.841  0.00  0.00    +0.120 A 
BRANCH  30   3
ATOM      3  O   UNL     1     -16.955   0.749  29.009  0.00  0.00    -0.495 OA
ATOM     31  C   UNL     1     -15.851   0.466  29.866  0.00  0.00    +0.277 C 
ENDBRANCH  30   3
ENDBRANCH  24  25
ENDBRANCH  23   8
TORSDOF 6
ENDMDL
MODEL 2
REMARK VINA RESULT:      -7.2     30.399     33.611
REMARK  Name = 51136901
REMARK  7 active torsions:
REMARK  status: ('A' for Active; 'I' for Inactive)
REMARK    1  A    between atoms: O_3  and  C_30
REMARK    2  A    between atoms: O_3  and  C_31
REMARK    3  A    between atoms: N_4  and  C_9
REMARK    4  A    between atoms: N_8  and  C_23
REMARK    5  A    between atoms: C_13  and  C_17
REMARK    6  A    between atoms: C_18  and  C_19
REMARK    7  A    between atoms: C_24  and  C_25
REMARK                            x       y       z     vdW  Elec       q    Type
REMARK                         _______ _______ _______ _____ _____    ______ ____
ROOT
ATOM      7  N   UNL     1      19.805   4.458  19.891  0.00  0.00    -0.239 NA
ATOM     19  C   UNL     1      18.361   6.297  20.505  0.00  0.00    +0.041 A 
ATOM     20  C   UNL     1      19.220   6.633  21.546  0.00  0.00    +0.016 A 
ATOM     21  C   UNL     1      18.696   5.210  19.715  0.00  0.00    +0.124 A 
ATOM     22  C   UNL     1      20.372   5.883  21.760  0.00  0.00    +0.044 A 
ATOM     23  C   UNL     1      20.617   4.815  20.913  0.00  0.00    +0.125 A 
ENDROOT
BRANCH  19  18
ATOM      1  O   UNL     1      15.774   8.663  20.100  0.00  0.00    -0.336 OA
ATOM      5  N   UNL     1      16.024   6.457  19.807  0.00  0.00    -0.190 NA
ATOM      6  N   UNL     1      17.094   8.370  20.460  0.00  0.00    -0.056 NA
ATOM     17  C   UNL     1      15.214   7.481  19.729  0.00  0.00    +0.245 A 
ATOM     18  C   UNL     1      17.167   7.051  20.261  0.00  0.00    +0.204 A 
BRANCH  17  13
ATOM      4  N   UNL     1      13.006   8.595  19.975  0.00  0.00    -0.288 NA
ATOM     13  C   UNL     1      13.766   7.530  19.287  0.00  0.00    +0.146 C 
ATOM     14  C   UNL     1      11.968   9.034  19.041  0.00  0.00    +0.085 C 
ATOM     15  C   UNL     1      13.609   7.842  17.787  0.00  0.00    +0.030 C 
ATOM     16  C   UNL     1      12.724   9.079  17.729  0.00  0.00    +0.017 C 
BRANCH   4   9
ATOM      9  C   UNL     1      12.401   8.104  21.222  0.00  0.00    +0.057 C 
ATOM     10  C   UNL     1      10.943   8.597  21.317  0.00  0.00    +0.019 C 
ATOM     11  C   UNL     1      11.829   6.689  20.997  0.00  0.00    +0.019 C 
ATOM     12  C   UNL     1      10.568   7.164  21.749  0.00  0.00    +0.003 C 
ENDBRANCH   4   9
ENDBRANCH  17  13
ENDBRANCH  19  18
BRANCH  23   8
ATOM      2  O   UNL     1      23.477   5.438  20.270  0.00  0.00    -0.270 OA
ATOM      8  N   UNL     1      21.777   4.066  21.137  0.00  0.00    -0.266 N 
ATOM     24  C   UNL     1      23.095   4.408  20.814  0.00  0.00    +0.249 C 
ATOM     32  H   UNL     1      21.589   3.160  21.555  0.00  0.00    +0.157 HD
BRANCH  24  25
ATOM     25  C   UNL     1      24.123   3.409  21.206  0.00  0.00    +0.037 A 
ATOM     26  C   UNL     1      23.825   2.048  21.165  0.00  0.00    +0.016 A 
ATOM     27  C   UNL     1      25.387   3.834  21.617  0.00  0.00    +0.016 A 
ATOM     28  C   UNL     1      24.791   1.111  21.533  0.00  0.00    +0.046 A 
ATOM     29  C   UNL     1      26.352   2.898  21.986  0.00  0.00    +0.046 A 
ATOM     30  C   UNL     1      26.054   1.536  21.944  0.00  0.00    +0.120 A 
BRANCH  30   3
ATOM      3  O   UNL     1      26.997   0.622  22.304  0.00  0.00    -0.495 OA
ATOM     31  C   UNL     1      26.540  -0.691  22.624  0.00  0.00    +0.277 C 
ENDBRANCH  30   3
ENDBRANCH  24  25
ENDBRANCH  23   8
TORSDOF 6
ENDMDL
MODEL 3
REMARK VINA RESULT:      -7.2     31.021     34.117
REMARK  Name = 51136901
REMARK  7 active torsions:
REMARK  status: ('A' for Active; 'I' for Inactive)
REMARK    1  A    between atoms: O_3  and  C_30
REMARK    2  A    between atoms: O_3  and  C_31
REMARK    3  A    between atoms: N_4  and  C_9
REMARK    4  A    between atoms: N_8  and  C_23
REMARK    5  A    between atoms: C_13  and  C_17
REMARK    6  A    between atoms: C_18  and  C_19
REMARK    7  A    between atoms: C_24  and  C_25
REMARK                            x       y       z     vdW  Elec       q    Type
REMARK                         _______ _______ _______ _____ _____    ______ ____
ROOT
ATOM      7  N   UNL     1      20.865   5.757  22.538  0.00  0.00    -0.239 NA
ATOM     19  C   UNL     1      18.994   6.548  21.228  0.00  0.00    +0.041 A 
ATOM     20  C   UNL     1      19.280   5.611  20.241  0.00  0.00    +0.016 A 
ATOM     21  C   UNL     1      19.810   6.580  22.347  0.00  0.00    +0.124 A 
ATOM     22  C   UNL     1      20.359   4.747  20.401  0.00  0.00    +0.044 A 
ATOM     23  C   UNL     1      21.112   4.859  21.557  0.00  0.00    +0.125 A 
ENDROOT
BRANCH  19  18
ATOM      1  O   UNL     1      16.716   9.236  21.009  0.00  0.00    -0.336 OA
ATOM      5  N   UNL     1      16.629   7.006  20.815  0.00  0.00    -0.190 NA
ATOM      6  N   UNL     1      18.022   8.775  21.220  0.00  0.00    -0.056 NA
ATOM     17  C   UNL     1      15.960   8.130  20.778  0.00  0.00    +0.245 A 
ATOM     18  C   UNL     1      17.890   7.452  21.090  0.00  0.00    +0.204 A 
BRANCH  17  13
ATOM      4  N   UNL     1      13.971   7.510  19.425  0.00  0.00    -0.288 NA
ATOM     13  C   UNL     1      14.487   8.364  20.516  0.00  0.00    +0.146 C 
ATOM     14  C   UNL     1      12.561   7.256  19.729  0.00  0.00    +0.085 C 
ATOM     15  C   UNL     1      13.603   8.027  21.731  0.00  0.00    +0.030 C 
ATOM     16  C   UNL     1      12.602   6.999  21.222  0.00  0.00    +0.017 C 
BRANCH   4   9
ATOM      9  C   UNL     1      14.103   8.168  18.117  0.00  0.00    +0.057 C 
ATOM     10  C   UNL     1      12.721   8.251  17.438  0.00  0.00    +0.019 C 
ATOM     11  C   UNL     1      14.022   9.698  18.298  0.00  0.00    +0.019 C 
ATOM     12  C   UNL     1      13.067   9.713  17.086  0.00  0.00    +0.003 C 
ENDBRANCH   4   9
ENDBRANCH  17  13
ENDBRANCH  19  18
BRANCH  23   8
ATOM      2  O   UNL     1      23.791   4.845  20.212  0.00  0.00    -0.270 OA
ATOM      8  N   UNL     1      22.195   3.986  21.709  0.00  0.00    -0.266 N 
ATOM     24  C   UNL     1      23.429   4.027  21.051  0.00  0.00    +0.249 C 
ATOM     32  H   UNL     1      22.006   3.229  22.359  0.00  0.00    +0.157 HD
BRANCH  24  25
ATOM     25  C   UNL     1      24.395   2.969  21.449  0.00  0.00    +0.037 A 
ATOM     26  C   UNL     1      25.652   3.322  21.940  0.00  0.00    +0.016 A 
ATOM     27  C   UNL     1      24.045   1.624  21.330  0.00  0.00    +0.016 A 
ATOM     28  C   UNL     1      26.558   2.328  22.313  0.00  0.00    +0.046 A 
ATOM     29  C   UNL     1      24.951   0.631  21.701  0.00  0.00    +0.046 A 
ATOM     30  C   UNL     1      26.208   0.984  22.193  0.00  0.00    +0.120 A 
BRANCH  30   3
ATOM      3  O   UNL     1      27.093   0.015  22.557  0.00  0.00    -0.495 OA
ATOM     31  C   UNL     1      26.662  -1.339  22.428  0.00  0.00    +0.277 C 
ENDBRANCH  30   3
ENDBRANCH  24  25
ENDBRANCH  23   8
TORSDOF 6
ENDMDL
MODEL 4
REMARK VINA RESULT:      -7.0     29.491     32.826
REMARK  Name = 51136901
REMARK  7 active torsions:
REMARK  status: ('A' for Active; 'I' for Inactive)
REMARK    1  A    between atoms: O_3  and  C_30
REMARK    2  A    between atoms: O_3  and  C_31
REMARK    3  A    between atoms: N_4  and  C_9
REMARK    4  A    between atoms: N_8  and  C_23
REMARK    5  A    between atoms: C_13  and  C_17
REMARK    6  A    between atoms: C_18  and  C_19
REMARK    7  A    between atoms: C_24  and  C_25
REMARK                            x       y       z     vdW  Elec       q    Type
REMARK                         _______ _______ _______ _____ _____    ______ ____
ROOT
ATOM      7  N   UNL     1      19.607   7.195  21.845  0.00  0.00    -0.239 NA
ATOM     19  C   UNL     1      17.449   7.785  20.929  0.00  0.00    +0.041 A 
ATOM     20  C   UNL     1      17.518   6.708  20.053  0.00  0.00    +0.016 A 
ATOM     21  C   UNL     1      18.510   7.984  21.796  0.00  0.00    +0.124 A 
ATOM     22  C   UNL     1      18.631   5.873  20.072  0.00  0.00    +0.044 A 
ATOM     23  C   UNL     1      19.638   6.157  20.978  0.00  0.00    +0.125 A 
ENDROOT
BRANCH  19  18
ATOM      1  O   UNL     1      15.061  10.368  21.221  0.00  0.00    -0.336 OA
ATOM      5  N   UNL     1      15.109   8.276  20.421  0.00  0.00    -0.190 NA
ATOM      6  N   UNL     1      16.365   9.902  21.428  0.00  0.00    -0.056 NA
ATOM     17  C   UNL     1      14.387   9.349  20.624  0.00  0.00    +0.245 A 
ATOM     18  C   UNL     1      16.315   8.663  20.931  0.00  0.00    +0.204 A 
BRANCH  17  13
ATOM      4  N   UNL     1      12.496   8.864  19.088  0.00  0.00    -0.288 NA
ATOM     13  C   UNL     1      12.933   9.606  20.290  0.00  0.00    +0.146 C 
ATOM     14  C   UNL     1      11.071   8.580  19.271  0.00  0.00    +0.085 C 
ATOM     15  C   UNL     1      11.973   9.148  21.404  0.00  0.00    +0.030 C 
ATOM     16  C   UNL     1      11.016   8.175  20.730  0.00  0.00    +0.017 C 
BRANCH   4   9
ATOM      9  C   UNL     1      12.709   9.650  17.864  0.00  0.00    +0.057 C 
ATOM     10  C   UNL     1      13.880   9.048  17.061  0.00  0.00    +0.019 C 
ATOM     11  C   UNL     1      11.777   9.132  16.748  0.00  0.00    +0.019 C 
ATOM     12  C   UNL     1      12.997   9.200  15.805  0.00  0.00    +0.003 C 
ENDBRANCH   4   9
ENDBRANCH  17  13
ENDBRANCH  19  18
BRANCH  23   8
ATOM      2  O   UNL     1      22.469   6.676  20.139  0.00  0.00    -0.270 OA
ATOM      8  N   UNL     1      20.754   5.312  20.989  0.00  0.00    -0.266 N 
ATOM     24  C   UNL     1      22.059   5.609  20.583  0.00  0.00    +0.249 C 
ATOM     32  H   UNL     1      20.536   4.372  21.306  0.00  0.00    +0.157 HD
BRANCH  24  25
ATOM     25  C   UNL     1      23.040   4.503  20.742  0.00  0.00    +0.037 A 
ATOM     26  C   UNL     1      24.383   4.713  20.433  0.00  0.00    +0.016 A 
ATOM     27  C   UNL     1      22.616   3.255  21.199  0.00  0.00    +0.016 A 
ATOM     28  C   UNL     1      25.303   3.674  20.582  0.00  0.00    +0.046 A 
ATOM     29  C   UNL     1      23.535   2.217  21.346  0.00  0.00    +0.046 A 
ATOM     30  C   UNL     1      24.879   2.427  21.038  0.00  0.00    +0.120 A 
BRANCH  30   3
ATOM      3  O   UNL     1      25.777   1.413  21.182  0.00  0.00    -0.495 OA
ATOM     31  C   UNL     1      25.484   0.422  22.165  0.00  0.00    +0.277 C 
ENDBRANCH  30   3
ENDBRANCH  24  25
ENDBRANCH  23   8
TORSDOF 6
ENDMDL
MODEL 5
REMARK VINA RESULT:      -6.9      2.210     11.798
REMARK  Name = 51136901
REMARK  7 active torsions:
REMARK  status: ('A' for Active; 'I' for Inactive)
REMARK    1  A    between atoms: O_3  and  C_30
REMARK    2  A    between atoms: O_3  and  C_31
REMARK    3  A    between atoms: N_4  and  C_9
REMARK    4  A    between atoms: N_8  and  C_23
REMARK    5  A    between atoms: C_13  and  C_17
REMARK    6  A    between atoms: C_18  and  C_19
REMARK    7  A    between atoms: C_24  and  C_25
REMARK                            x       y       z     vdW  Elec       q    Type
REMARK                         _______ _______ _______ _____ _____    ______ ____
ROOT
ATOM      7  N   UNL     1     -14.917   6.761  21.300  0.00  0.00    -0.239 NA
ATOM     19  C   UNL     1     -14.961   4.855  22.786  0.00  0.00    +0.041 A 
ATOM     20  C   UNL     1     -13.574   4.767  22.726  0.00  0.00    +0.016 A 
ATOM     21  C   UNL     1     -15.578   5.861  22.061  0.00  0.00    +0.124 A 
ATOM     22  C   UNL     1     -12.859   5.676  21.953  0.00  0.00    +0.044 A 
ATOM     23  C   UNL     1     -13.570   6.645  21.266  0.00  0.00    +0.125 A 
ENDROOT
BRANCH  19  18
ATOM      1  O   UNL     1     -16.837   2.215  24.189  0.00  0.00    -0.336 OA
ATOM      5  N   UNL     1     -16.063   4.204  24.869  0.00  0.00    -0.190 NA
ATOM      6  N   UNL     1     -16.153   2.761  23.096  0.00  0.00    -0.056 NA
ATOM     17  C   UNL     1     -16.736   3.129  25.190  0.00  0.00    +0.245 A 
ATOM     18  C   UNL     1     -15.726   3.932  23.573  0.00  0.00    +0.204 A 
BRANCH  17  13
ATOM      4  N   UNL     1     -16.840   3.525  27.641  0.00  0.00    -0.288 NA
ATOM     13  C   UNL     1     -17.403   2.770  26.502  0.00  0.00    +0.146 C 
ATOM     14  C   UNL     1     -17.926   3.684  28.610  0.00  0.00    +0.085 C 
ATOM     15  C   UNL     1     -18.907   3.098  26.517  0.00  0.00    +0.030 C 
ATOM     16  C   UNL     1     -19.101   4.019  27.713  0.00  0.00    +0.017 C 
BRANCH   4   9
ATOM      9  C   UNL     1     -15.708   2.814  28.252  0.00  0.00    +0.057 C 
ATOM     10  C   UNL     1     -15.752   2.991  29.783  0.00  0.00    +0.019 C 
ATOM     11  C   UNL     1     -16.091   1.338  28.487  0.00  0.00    +0.019 C 
ATOM     12  C   UNL     1     -15.462   1.479  29.889  0.00  0.00    +0.003 C 
ENDBRANCH   4   9
ENDBRANCH  17  13
ENDBRANCH  19  18
BRANCH  23   8
ATOM      2  O   UNL     1     -12.698   9.447  21.876  0.00  0.00    -0.270 OA
ATOM      8  N   UNL     1     -12.841   7.553  20.491  0.00  0.00    -0.266 N 
ATOM     24  C   UNL     1     -12.460   8.856  20.828  0.00  0.00    +0.249 C 
ATOM     32  H   UNL     1     -12.611   7.193  19.569  0.00  0.00    +0.157 HD
BRANCH  24  25
ATOM     25  C   UNL     1     -11.661   9.570  19.797  0.00  0.00    +0.037 A 
ATOM     26  C   UNL     1     -11.748  10.957  19.684  0.00  0.00    +0.016 A 
ATOM     27  C   UNL     1     -10.824   8.852  18.943  0.00  0.00    +0.016 A 
ATOM     28  C   UNL     1     -10.998  11.626  18.717  0.00  0.00    +0.046 A 
ATOM     29  C   UNL     1     -10.075   9.520  17.975  0.00  0.00    +0.046 A 
ATOM     30  C   UNL     1     -10.162  10.908  17.863  0.00  0.00    +0.120 A 
BRANCH  30   3
ATOM      3  O   UNL     1      -9.430  11.561  16.918  0.00  0.00    -0.495 OA
ATOM     31  C   UNL     1      -9.514  12.985  16.900  0.00  0.00    +0.277 C 
ENDBRANCH  30   3
ENDBRANCH  24  25
ENDBRANCH  23   8
TORSDOF 6
ENDMDL
MODEL 6
REMARK VINA RESULT:      -6.6     20.983     24.238
REMARK  Name = 51136901
REMARK  7 active torsions:
REMARK  status: ('A' for Active; 'I' for Inactive)
REMARK    1  A    between atoms: O_3  and  C_30
REMARK    2  A    between atoms: O_3  and  C_31
REMARK    3  A    between atoms: N_4  and  C_9
REMARK    4  A    between atoms: N_8  and  C_23
REMARK    5  A    between atoms: C_13  and  C_17
REMARK    6  A    between atoms: C_18  and  C_19
REMARK    7  A    between atoms: C_24  and  C_25
REMARK                            x       y       z     vdW  Elec       q    Type
REMARK                         _______ _______ _______ _____ _____    ______ ____
ROOT
ATOM      7  N   UNL     1      -5.072 -12.136  10.617  0.00  0.00    -0.239 NA
ATOM     19  C   UNL     1      -3.941 -10.987  12.418  0.00  0.00    +0.041 A 
ATOM     20  C   UNL     1      -3.178 -10.278  11.496  0.00  0.00    +0.016 A 
ATOM     21  C   UNL     1      -4.865 -11.896  11.931  0.00  0.00    +0.124 A 
ATOM     22  C   UNL     1      -3.361 -10.498  10.134  0.00  0.00    +0.044 A 
ATOM     23  C   UNL     1      -4.312 -11.428   9.750  0.00  0.00    +0.125 A 
ENDROOT
BRANCH  19  18
ATOM      1  O   UNL     1      -2.896 -10.438  15.744  0.00  0.00    -0.336 OA
ATOM      5  N   UNL     1      -4.838 -10.780  14.682  0.00  0.00    -0.190 NA
ATOM      6  N   UNL     1      -2.578 -10.584  14.389  0.00  0.00    -0.056 NA
ATOM     17  C   UNL     1      -4.247 -10.567  15.829  0.00  0.00    +0.245 A 
ATOM     18  C   UNL     1      -3.773 -10.782  13.827  0.00  0.00    +0.204 A 
BRANCH  17  13
ATOM      4  N   UNL     1      -6.301 -10.728  17.218  0.00  0.00    -0.288 NA
ATOM     13  C   UNL     1      -4.850 -10.445  17.213  0.00  0.00    +0.146 C 
ATOM     14  C   UNL     1      -6.609 -11.292  18.534  0.00  0.00    +0.085 C 
ATOM     15  C   UNL     1      -4.251 -11.448  18.217  0.00  0.00    +0.030 C 
ATOM     16  C   UNL     1      -5.440 -12.230  18.755  0.00  0.00    +0.017 C 
BRANCH   4   9
ATOM      9  C   UNL     1      -7.087  -9.508  16.986  0.00  0.00    +0.057 C 
ATOM     10  C   UNL     1      -8.012  -9.713  15.768  0.00  0.00    +0.019 C 
ATOM     11  C   UNL     1      -8.358  -9.538  17.860  0.00  0.00    +0.019 C 
ATOM     12  C   UNL     1      -9.135  -9.073  16.610  0.00  0.00    +0.003 C 
ENDBRANCH   4   9
ENDBRANCH  17  13
ENDBRANCH  19  18
BRANCH  23   8
ATOM      2  O   UNL     1      -5.488  -9.645   7.648  0.00  0.00    -0.270 OA
ATOM      8  N   UNL     1      -4.488 -11.643   8.379  0.00  0.00    -0.266 N 
ATOM     24  C   UNL     1      -5.047 -10.770   7.439  0.00  0.00    +0.249 C 
ATOM     32  H   UNL     1      -4.192 -12.567   8.081  0.00  0.00    +0.157 HD
BRANCH  24  25
ATOM     25  C   UNL     1      -5.072 -11.275   6.041  0.00  0.00    +0.037 A 
ATOM     26  C   UNL     1      -3.972 -11.959   5.526  0.00  0.00    +0.016 A 
ATOM     27  C   UNL     1      -6.198 -11.064   5.244  0.00  0.00    +0.016 A 
ATOM     28  C   UNL     1      -3.997 -12.433   4.214  0.00  0.00    +0.046 A 
ATOM     29  C   UNL     1      -6.222 -11.537   3.932  0.00  0.00    +0.046 A 
ATOM     30  C   UNL     1      -5.121 -12.221   3.417  0.00  0.00    +0.120 A 
BRANCH  30   3
ATOM      3  O   UNL     1      -5.145 -12.683   2.137  0.00  0.00    -0.495 OA
ATOM     31  C   UNL     1      -3.908 -13.126   1.583  0.00  0.00    +0.277 C 
ENDBRANCH  30   3
ENDBRANCH  24  25
ENDBRANCH  23   8
TORSDOF 6
ENDMDL
MODEL 7
REMARK VINA RESULT:      -6.6     10.172     15.226
REMARK  Name = 51136901
REMARK  7 active torsions:
REMARK  status: ('A' for Active; 'I' for Inactive)
REMARK    1  A    between atoms: O_3  and  C_30
REMARK    2  A    between atoms: O_3  and  C_31
REMARK    3  A    between atoms: N_4  and  C_9
REMARK    4  A    between atoms: N_8  and  C_23
REMARK    5  A    between atoms: C_13  and  C_17
REMARK    6  A    between atoms: C_18  and  C_19
REMARK    7  A    between atoms: C_24  and  C_25
REMARK                            x       y       z     vdW  Elec       q    Type
REMARK                         _______ _______ _______ _____ _____    ______ ____
ROOT
ATOM      7  N   UNL     1     -14.275   5.171  34.218  0.00  0.00    -0.239 NA
ATOM     19  C   UNL     1     -13.269   7.294  34.787  0.00  0.00    +0.041 A 
ATOM     20  C   UNL     1     -13.204   7.632  33.439  0.00  0.00    +0.016 A 
ATOM     21  C   UNL     1     -13.808   6.063  35.120  0.00  0.00    +0.124 A 
ATOM     22  C   UNL     1     -13.675   6.741  32.481  0.00  0.00    +0.044 A 
ATOM     23  C   UNL     1     -14.196   5.535  32.918  0.00  0.00    +0.125 A 
ENDROOT
BRANCH  19  18
ATOM      1  O   UNL     1     -12.432   9.955  36.950  0.00  0.00    -0.336 OA
ATOM      5  N   UNL     1     -11.976   7.767  36.807  0.00  0.00    -0.190 NA
ATOM      6  N   UNL     1     -13.108   9.490  35.815  0.00  0.00    -0.056 NA
ATOM     17  C   UNL     1     -11.791   8.877  37.474  0.00  0.00    +0.245 A 
ATOM     18  C   UNL     1     -12.791   8.192  35.797  0.00  0.00    +0.204 A 
BRANCH  17  13
ATOM      4  N   UNL     1      -9.701   9.810  38.441  0.00  0.00    -0.288 NA
ATOM     13  C   UNL     1     -10.977   9.120  38.727  0.00  0.00    +0.146 C 
ATOM     14  C   UNL     1      -9.386  10.609  39.627  0.00  0.00    +0.085 C 
ATOM     15  C   UNL     1     -11.697  10.030  39.740  0.00  0.00    +0.030 C 
ATOM     16  C   UNL     1     -10.740  11.188  39.985  0.00  0.00    +0.017 C 
BRANCH   4   9
ATOM      9  C   UNL     1      -8.621   8.851  38.167  0.00  0.00    +0.057 C 
ATOM     10  C   UNL     1      -8.222   8.935  36.679  0.00  0.00    +0.019 C 
ATOM     11  C   UNL     1      -7.259   9.500  38.491  0.00  0.00    +0.019 C 
ATOM     12  C   UNL     1      -6.753   8.922  37.152  0.00  0.00    +0.003 C 
ENDBRANCH   4   9
ENDBRANCH  17  13
ENDBRANCH  19  18
BRANCH  23   8
ATOM      2  O   UNL     1     -12.835   3.212  31.600  0.00  0.00    -0.270 OA
ATOM      8  N   UNL     1     -14.666   4.644  31.946  0.00  0.00    -0.266 N 
ATOM     24  C   UNL     1     -13.983   3.572  31.363  0.00  0.00    +0.249 C 
ATOM     32  H   UNL     1     -15.607   4.861  31.632  0.00  0.00    +0.157 HD
BRANCH  24  25
ATOM     25  C   UNL     1     -14.764   2.786  30.372  0.00  0.00    +0.037 A 
ATOM     26  C   UNL     1     -15.217   3.393  29.202  0.00  0.00    +0.016 A 
ATOM     27  C   UNL     1     -15.043   1.440  30.613  0.00  0.00    +0.016 A 
ATOM     28  C   UNL     1     -15.950   2.655  28.272  0.00  0.00    +0.046 A 
ATOM     29  C   UNL     1     -15.777   0.702  29.685  0.00  0.00    +0.046 A 
ATOM     30  C   UNL     1     -16.230   1.310  28.514  0.00  0.00    +0.120 A 
BRANCH  30   3
ATOM      3  O   UNL     1     -16.946   0.590  27.607  0.00  0.00    -0.495 OA
ATOM     31  C   UNL     1     -16.781   0.929  26.232  0.00  0.00    +0.277 C 
ENDBRANCH  30   3
ENDBRANCH  24  25
ENDBRANCH  23   8
TORSDOF 6
ENDMDL
MODEL 8
REMARK VINA RESULT:      -6.6      1.081      2.195
REMARK  Name = 51136901
REMARK  7 active torsions:
REMARK  status: ('A' for Active; 'I' for Inactive)
REMARK    1  A    between atoms: O_3  and  C_30
REMARK    2  A    between atoms: O_3  and  C_31
REMARK    3  A    between atoms: N_4  and  C_9
REMARK    4  A    between atoms: N_8  and  C_23
REMARK    5  A    between atoms: C_13  and  C_17
REMARK    6  A    between atoms: C_18  and  C_19
REMARK    7  A    between atoms: C_24  and  C_25
REMARK                            x       y       z     vdW  Elec       q    Type
REMARK                         _______ _______ _______ _____ _____    ______ ____
ROOT
ATOM      7  N   UNL     1     -16.290   6.069  22.532  0.00  0.00    -0.239 NA
ATOM     19  C   UNL     1     -14.684   6.962  20.960  0.00  0.00    +0.041 A 
ATOM     20  C   UNL     1     -13.685   6.176  21.524  0.00  0.00    +0.016 A 
ATOM     21  C   UNL     1     -15.958   6.873  21.497  0.00  0.00    +0.124 A 
ATOM     22  C   UNL     1     -13.987   5.337  22.592  0.00  0.00    +0.044 A 
ATOM     23  C   UNL     1     -15.292   5.320  23.054  0.00  0.00    +0.125 A 
ENDROOT
BRANCH  19  18
ATOM      1  O   UNL     1     -14.629   9.239  18.264  0.00  0.00    -0.336 OA
ATOM      5  N   UNL     1     -13.137   7.985  19.368  0.00  0.00    -0.190 NA
ATOM      6  N   UNL     1     -15.350   8.555  19.251  0.00  0.00    -0.056 NA
ATOM     17  C   UNL     1     -13.335   8.845  18.403  0.00  0.00    +0.245 A 
ATOM     18  C   UNL     1     -14.403   7.837  19.860  0.00  0.00    +0.204 A 
BRANCH  17  13
ATOM      4  N   UNL     1     -10.997   9.602  18.040  0.00  0.00    -0.288 NA
ATOM     13  C   UNL     1     -12.338   9.453  17.438  0.00  0.00    +0.146 C 
ATOM     14  C   UNL     1     -10.034   9.473  16.945  0.00  0.00    +0.085 C 
ATOM     15  C   UNL     1     -12.113   8.585  16.186  0.00  0.00    +0.030 C 
ATOM     16  C   UNL     1     -10.614   8.320  16.150  0.00  0.00    +0.017 C 
BRANCH   4   9
ATOM      9  C   UNL     1     -10.847  10.905  18.703  0.00  0.00    +0.057 C 
ATOM     10  C   UNL     1      -9.906  11.803  17.873  0.00  0.00    +0.019 C 
ATOM     11  C   UNL     1     -11.996  11.840  18.272  0.00  0.00    +0.019 C 
ATOM     12  C   UNL     1     -10.928  12.939  18.086  0.00  0.00    +0.003 C 
ENDBRANCH   4   9
ENDBRANCH  17  13
ENDBRANCH  19  18
BRANCH  23   8
ATOM      2  O   UNL     1     -16.489   2.572  23.083  0.00  0.00    -0.270 OA
ATOM      8  N   UNL     1     -15.585   4.473  24.129  0.00  0.00    -0.266 N 
ATOM     24  C   UNL     1     -16.147   3.193  24.084  0.00  0.00    +0.249 C 
ATOM     32  H   UNL     1     -15.381   4.892  25.031  0.00  0.00    +0.157 HD
BRANCH  24  25
ATOM     25  C   UNL     1     -16.314   2.527  25.402  0.00  0.00    +0.037 A 
ATOM     26  C   UNL     1     -16.807   1.224  25.468  0.00  0.00    +0.016 A 
ATOM     27  C   UNL     1     -15.977   3.205  26.574  0.00  0.00    +0.016 A 
ATOM     28  C   UNL     1     -16.964   0.600  26.705  0.00  0.00    +0.046 A 
ATOM     29  C   UNL     1     -16.135   2.581  27.811  0.00  0.00    +0.046 A 
ATOM     30  C   UNL     1     -16.628   1.278  27.876  0.00  0.00    +0.120 A 
BRANCH  30   3
ATOM      3  O   UNL     1     -16.781   0.668  29.084  0.00  0.00    -0.495 OA
ATOM     31  C   UNL     1     -15.775   0.909  30.066  0.00  0.00    +0.277 C 
ENDBRANCH  30   3
ENDBRANCH  24  25
ENDBRANCH  23   8
TORSDOF 6
ENDMDL
MODEL 9
REMARK VINA RESULT:      -6.6      1.542      2.249
REMARK  Name = 51136901
REMARK  7 active torsions:
REMARK  status: ('A' for Active; 'I' for Inactive)
REMARK    1  A    between atoms: O_3  and  C_30
REMARK    2  A    between atoms: O_3  and  C_31
REMARK    3  A    between atoms: N_4  and  C_9
REMARK    4  A    between atoms: N_8  and  C_23
REMARK    5  A    between atoms: C_13  and  C_17
REMARK    6  A    between atoms: C_18  and  C_19
REMARK    7  A    between atoms: C_24  and  C_25
REMARK                            x       y       z     vdW  Elec       q    Type
REMARK                         _______ _______ _______ _____ _____    ______ ____
ROOT
ATOM      7  N   UNL     1     -14.304   7.355  21.272  0.00  0.00    -0.239 NA
ATOM     19  C   UNL     1     -12.202   7.778  20.157  0.00  0.00    +0.041 A 
ATOM     20  C   UNL     1     -11.650   6.649  20.753  0.00  0.00    +0.016 A 
ATOM     21  C   UNL     1     -13.521   8.084  20.447  0.00  0.00    +0.124 A 
ATOM     22  C   UNL     1     -12.425   5.873  21.610  0.00  0.00    +0.044 A 
ATOM     23  C   UNL     1     -13.733   6.264  21.834  0.00  0.00    +0.125 A 
ENDROOT
BRANCH  19  18
ATOM      1  O   UNL     1      -9.964   9.955  18.511  0.00  0.00    -0.336 OA
ATOM      5  N   UNL     1     -11.697   8.659  17.934  0.00  0.00    -0.190 NA
ATOM      6  N   UNL     1     -10.404   9.345  19.692  0.00  0.00    -0.056 NA
ATOM     17  C   UNL     1     -10.779   9.497  17.524  0.00  0.00    +0.245 A 
ATOM     18  C   UNL     1     -11.428   8.597  19.271  0.00  0.00    +0.204 A 
BRANCH  17  13
ATOM      4  N   UNL     1     -11.689   9.909  15.249  0.00  0.00    -0.288 NA
ATOM     13  C   UNL     1     -10.505  10.015  16.128  0.00  0.00    +0.146 C 
ATOM     14  C   UNL     1     -11.593  11.011  14.289  0.00  0.00    +0.085 C 
ATOM     15  C   UNL     1     -10.133  11.509  16.107  0.00  0.00    +0.030 C 
ATOM     16  C   UNL     1     -11.142  12.158  15.170  0.00  0.00    +0.017 C 
BRANCH   4   9
ATOM      9  C   UNL     1     -11.725   8.618  14.547  0.00  0.00    +0.057 C 
ATOM     10  C   UNL     1     -11.511   8.845  13.037  0.00  0.00    +0.019 C 
ATOM     11  C   UNL     1     -10.322   7.977  14.572  0.00  0.00    +0.019 C 
ATOM     12  C   UNL     1     -10.525   7.659  13.076  0.00  0.00    +0.003 C 
ENDBRANCH   4   9
ENDBRANCH  17  13
ENDBRANCH  19  18
BRANCH  23   8
ATOM      2  O   UNL     1     -16.212   4.665  21.302  0.00  0.00    -0.270 OA
ATOM      8  N   UNL     1     -14.504   5.478  22.697  0.00  0.00    -0.266 N 
ATOM     24  C   UNL     1     -15.659   4.749  22.393  0.00  0.00    +0.249 C 
ATOM     32  H   UNL     1     -14.167   5.493  23.655  0.00  0.00    +0.157 HD
BRANCH  24  25
ATOM     25  C   UNL     1     -16.242   3.983  23.525  0.00  0.00    +0.037 A 
ATOM     26  C   UNL     1     -17.502   3.400  23.397  0.00  0.00    +0.016 A 
ATOM     27  C   UNL     1     -15.528   3.847  24.717  0.00  0.00    +0.016 A 
ATOM     28  C   UNL     1     -18.049   2.682  24.461  0.00  0.00    +0.046 A 
ATOM     29  C   UNL     1     -16.075   3.130  25.780  0.00  0.00    +0.046 A 
ATOM     30  C   UNL     1     -17.336   2.547  25.652  0.00  0.00    +0.120 A 
BRANCH  30   3
ATOM      3  O   UNL     1     -17.870   1.846  26.690  0.00  0.00    -0.495 OA
ATOM     31  C   UNL     1     -16.984   1.016  27.437  0.00  0.00    +0.277 C 
ENDBRANCH  30   3
ENDBRANCH  24  25
ENDBRANCH  23   8
TORSDOF 6
ENDMDL
MODEL 10
REMARK VINA RESULT:      -6.4     15.283     18.272
REMARK  Name = 51136901
REMARK  7 active torsions:
REMARK  status: ('A' for Active; 'I' for Inactive)
REMARK    1  A    between atoms: O_3  and  C_30
REMARK    2  A    between atoms: O_3  and  C_31
REMARK    3  A    between atoms: N_4  and  C_9
REMARK    4  A    between atoms: N_8  and  C_23
REMARK    5  A    between atoms: C_13  and  C_17
REMARK    6  A    between atoms: C_18  and  C_19
REMARK    7  A    between atoms: C_24  and  C_25
REMARK                            x       y       z     vdW  Elec       q    Type
REMARK                         _______ _______ _______ _____ _____    ______ ____
ROOT
ATOM      7  N   UNL     1     -12.149  -7.332  13.188  0.00  0.00    -0.239 NA
ATOM     19  C   UNL     1     -11.272  -7.666  15.415  0.00  0.00    +0.041 A 
ATOM     20  C   UNL     1     -11.750  -6.418  15.799  0.00  0.00    +0.016 A 
ATOM     21  C   UNL     1     -11.495  -8.072  14.111  0.00  0.00    +0.124 A 
ATOM     22  C   UNL     1     -12.429  -5.626  14.878  0.00  0.00    +0.044 A 
ATOM     23  C   UNL     1     -12.600  -6.124  13.597  0.00  0.00    +0.125 A 
ENDROOT
BRANCH  19  18
ATOM      1  O   UNL     1     -10.017  -9.569  18.110  0.00  0.00    -0.336 OA
ATOM      5  N   UNL     1      -9.411  -9.141  15.997  0.00  0.00    -0.190 NA
ATOM      6  N   UNL     1     -10.994  -8.711  17.592  0.00  0.00    -0.056 NA
ATOM     17  C   UNL     1      -9.123  -9.771  17.107  0.00  0.00    +0.245 A 
ATOM     18  C   UNL     1     -10.568  -8.503  16.343  0.00  0.00    +0.204 A 
BRANCH  17  13
ATOM      4  N   UNL     1      -6.710  -9.923  17.680  0.00  0.00    -0.288 NA
ATOM     13  C   UNL     1      -7.952 -10.680  17.419  0.00  0.00    +0.146 C 
ATOM     14  C   UNL     1      -5.927 -10.722  18.625  0.00  0.00    +0.085 C 
ATOM     15  C   UNL     1      -8.173 -11.523  18.689  0.00  0.00    +0.030 C 
ATOM     16  C   UNL     1      -6.993 -11.196  19.593  0.00  0.00    +0.017 C 
BRANCH   4   9
ATOM      9  C   UNL     1      -5.948  -9.697  16.444  0.00  0.00    +0.057 C 
ATOM     10  C   UNL     1      -4.479 -10.116  16.660  0.00  0.00    +0.019 C 
ATOM     11  C   UNL     1      -6.084 -10.926  15.521  0.00  0.00    +0.019 C 
ATOM     12  C   UNL     1      -4.561 -10.826  15.292  0.00  0.00    +0.003 C 
ENDBRANCH   4   9
ENDBRANCH  17  13
ENDBRANCH  19  18
BRANCH  23   8
ATOM      2  O   UNL     1     -12.058  -3.315  12.705  0.00  0.00    -0.270 OA
ATOM      8  N   UNL     1     -13.283  -5.320  12.678  0.00  0.00    -0.266 N 
ATOM     24  C   UNL     1     -12.984  -4.008  12.298  0.00  0.00    +0.249 C 
ATOM     32  H   UNL     1     -14.106  -5.772  12.291  0.00  0.00    +0.157 HD
BRANCH  24  25
ATOM     25  C   UNL     1     -13.886  -3.424  11.270  0.00  0.00    +0.037 A 
ATOM     26  C   UNL     1     -13.541  -3.492   9.920  0.00  0.00    +0.016 A 
ATOM     27  C   UNL     1     -15.076  -2.807  11.656  0.00  0.00    +0.016 A 
ATOM     28  C   UNL     1     -14.388  -2.943   8.957  0.00  0.00    +0.046 A 
ATOM     29  C   UNL     1     -15.922  -2.257  10.693  0.00  0.00    +0.046 A 
ATOM     30  C   UNL     1     -15.577  -2.326   9.343  0.00  0.00    +0.120 A 
BRANCH  30   3
ATOM      3  O   UNL     1     -16.403  -1.791   8.402  0.00  0.00    -0.495 OA
ATOM     31  C   UNL     1     -16.439  -0.368   8.304  0.00  0.00    +0.277 C 
ENDBRANCH  30   3
ENDBRANCH  24  25
ENDBRANCH  23   8
TORSDOF 6
ENDMDL
