MODEL 1
REMARK VINA RESULT:      -7.2      0.000      0.000
REMARK  Name = 25390234
REMARK  9 active torsions:
REMARK  status: ('A' for Active; 'I' for Inactive)
REMARK    1  A    between atoms: S_1  and  N_9
REMARK    2  A    between atoms: S_1  and  C_23
REMARK    3  A    between atoms: O_3  and  C_11
REMARK    4  A    between atoms: O_4  and  C_12
REMARK    5  A    between atoms: N_9  and  C_20
REMARK    6  A    between atoms: C_10  and  C_14
REMARK    7  A    between atoms: C_13  and  C_20
REMARK    8  A    between atoms: C_14  and  C_21
REMARK    9  A    between atoms: C_15  and  C_22
REMARK                            x       y       z     vdW  Elec       q    Type
REMARK                         _______ _______ _______ _____ _____    ______ ____
ROOT
ATOM      2  O   UNL     1      11.361   9.157  20.379  0.00  0.00    -0.366 OA
ATOM     10  C   UNL     1      11.865   7.826  20.170  0.00  0.00    +0.158 C 
ATOM     11  C   UNL     1      12.046   7.233  21.557  0.00  0.00    +0.175 C 
ATOM     12  C   UNL     1      10.878   7.844  22.303  0.00  0.00    +0.175 C 
ATOM     13  C   UNL     1      10.833   9.253  21.722  0.00  0.00    +0.165 C 
ENDROOT
BRANCH  11   3
ATOM      3  O   UNL     1      12.020   5.822  21.537  0.00  0.00    -0.387 OA
ATOM     24  H   UNL     1      11.138   5.541  21.835  0.00  0.00    +0.210 HD
ENDBRANCH  11   3
BRANCH  12   4
ATOM      4  O   UNL     1       9.665   7.181  21.952  0.00  0.00    -0.387 OA
ATOM     25  H   UNL     1       8.944   7.828  22.040  0.00  0.00    +0.210 HD
ENDBRANCH  12   4
BRANCH  10  14
ATOM     14  C   UNL     1      13.153   7.887  19.369  0.00  0.00    +0.130 C 
BRANCH  14  21
ATOM      5  O   UNL     1      14.102   9.900  20.181  0.00  0.00    -0.276 OA
ATOM      8  N   UNL     1      15.217   7.936  20.724  0.00  0.00    -0.301 N 
ATOM     15  C   UNL     1      17.853   6.749  20.970  0.00  0.00    -0.011 C 
ATOM     16  C   UNL     1      16.735   6.078  20.157  0.00  0.00    +0.022 C 
ATOM     17  C   UNL     1      17.642   8.270  21.007  0.00  0.00    +0.022 C 
ATOM     18  C   UNL     1      15.354   6.476  20.677  0.00  0.00    +0.108 C 
ATOM     19  C   UNL     1      16.244   8.622  21.511  0.00  0.00    +0.108 C 
ATOM     21  C   UNL     1      14.195   8.672  20.127  0.00  0.00    +0.218 C 
ATOM     22  C   UNL     1      19.224   6.404  20.394  0.00  0.00    +0.007 C 
ENDBRANCH  14  21
ENDBRANCH  10  14
BRANCH  13  20
ATOM     20  C   UNL     1      11.696  10.244  22.492  0.00  0.00    +0.139 C 
BRANCH  20   9
ATOM      9  N   UNL     1      11.258  10.363  23.853  0.00  0.00    -0.192 NA
ATOM     26  H   UNL     1      11.332   9.495  24.399  0.00  0.00    +0.148 HD
BRANCH   9   1
ATOM      1  S   UNL     1      11.540  11.819  24.737  0.00  0.00    +0.027 S 
ATOM      6  O   UNL     1      12.608  11.593  25.691  0.00  0.00    -0.158 OA
ATOM      7  O   UNL     1      10.274  12.387  25.160  0.00  0.00    -0.158 OA
ATOM     23  C   UNL     1      12.177  12.853  23.438  0.00  0.00    +0.214 C 
ENDBRANCH   9   1
ENDBRANCH  20   9
ENDBRANCH  13  20
TORSDOF 7
ENDMDL
MODEL 2
REMARK VINA RESULT:      -7.2      2.687      3.674
REMARK  Name = 25390234
REMARK  9 active torsions:
REMARK  status: ('A' for Active; 'I' for Inactive)
REMARK    1  A    between atoms: S_1  and  N_9
REMARK    2  A    between atoms: S_1  and  C_23
REMARK    3  A    between atoms: O_3  and  C_11
REMARK    4  A    between atoms: O_4  and  C_12
REMARK    5  A    between atoms: N_9  and  C_20
REMARK    6  A    between atoms: C_10  and  C_14
REMARK    7  A    between atoms: C_13  and  C_20
REMARK    8  A    between atoms: C_14  and  C_21
REMARK    9  A    between atoms: C_15  and  C_22
REMARK                            x       y       z     vdW  Elec       q    Type
REMARK                         _______ _______ _______ _____ _____    ______ ____
ROOT
ATOM      2  O   UNL     1      11.128   9.048  20.540  0.00  0.00    -0.366 OA
ATOM     10  C   UNL     1      11.681   7.741  20.307  0.00  0.00    +0.158 C 
ATOM     11  C   UNL     1      11.842   7.113  21.681  0.00  0.00    +0.175 C 
ATOM     12  C   UNL     1      10.635   7.663  22.410  0.00  0.00    +0.175 C 
ATOM     13  C   UNL     1      10.560   9.087  21.869  0.00  0.00    +0.165 C 
ENDROOT
BRANCH  11   3
ATOM      3  O   UNL     1      11.864   5.703  21.619  0.00  0.00    -0.387 OA
ATOM     24  H   UNL     1      12.750   5.437  21.321  0.00  0.00    +0.210 HD
ENDBRANCH  11   3
BRANCH  12   4
ATOM      4  O   UNL     1       9.455   6.973  22.006  0.00  0.00    -0.387 OA
ATOM     25  H   UNL     1       9.454   6.942  21.034  0.00  0.00    +0.210 HD
ENDBRANCH  12   4
BRANCH  10  14
ATOM     14  C   UNL     1      12.988   7.867  19.544  0.00  0.00    +0.130 C 
BRANCH  14  21
ATOM      5  O   UNL     1      12.229   7.173  17.410  0.00  0.00    -0.276 OA
ATOM      8  N   UNL     1      13.026   9.349  17.569  0.00  0.00    -0.301 N 
ATOM     15  C   UNL     1      14.628  11.345  16.204  0.00  0.00    -0.011 C 
ATOM     16  C   UNL     1      14.872  10.979  17.676  0.00  0.00    +0.022 C 
ATOM     17  C   UNL     1      14.006  10.156  15.457  0.00  0.00    +0.022 C 
ATOM     18  C   UNL     1      13.597  10.460  18.338  0.00  0.00    +0.108 C 
ATOM     19  C   UNL     1      12.748   9.657  16.164  0.00  0.00    +0.108 C 
ATOM     21  C   UNL     1      12.709   8.091  18.079  0.00  0.00    +0.218 C 
ATOM     22  C   UNL     1      15.926  11.790  15.533  0.00  0.00    +0.007 C 
ENDBRANCH  14  21
ENDBRANCH  10  14
BRANCH  13  20
ATOM     20  C   UNL     1      11.368  10.081  22.692  0.00  0.00    +0.139 C 
BRANCH  20   9
ATOM      9  N   UNL     1      10.511  10.930  23.466  0.00  0.00    -0.192 NA
ATOM     26  H   UNL     1       9.660  10.469  23.814  0.00  0.00    +0.148 HD
BRANCH   9   1
ATOM      1  S   UNL     1      11.182  12.129  24.512  0.00  0.00    +0.027 S 
ATOM      6  O   UNL     1      12.052  11.483  25.475  0.00  0.00    -0.158 OA
ATOM      7  O   UNL     1      10.138  13.038  24.948  0.00  0.00    -0.158 OA
ATOM     23  C   UNL     1      12.205  13.013  23.356  0.00  0.00    +0.214 C 
ENDBRANCH   9   1
ENDBRANCH  20   9
ENDBRANCH  13  20
TORSDOF 7
ENDMDL
MODEL 3
REMARK VINA RESULT:      -6.3     28.787     30.330
REMARK  Name = 25390234
REMARK  9 active torsions:
REMARK  status: ('A' for Active; 'I' for Inactive)
REMARK    1  A    between atoms: S_1  and  N_9
REMARK    2  A    between atoms: S_1  and  C_23
REMARK    3  A    between atoms: O_3  and  C_11
REMARK    4  A    between atoms: O_4  and  C_12
REMARK    5  A    between atoms: N_9  and  C_20
REMARK    6  A    between atoms: C_10  and  C_14
REMARK    7  A    between atoms: C_13  and  C_20
REMARK    8  A    between atoms: C_14  and  C_21
REMARK    9  A    between atoms: C_15  and  C_22
REMARK                            x       y       z     vdW  Elec       q    Type
REMARK                         _______ _______ _______ _____ _____    ______ ____
ROOT
ATOM      2  O   UNL     1     -13.160   3.611  32.594  0.00  0.00    -0.366 OA
ATOM     10  C   UNL     1     -14.132   4.371  33.333  0.00  0.00    +0.158 C 
ATOM     11  C   UNL     1     -15.465   3.687  33.082  0.00  0.00    +0.175 C 
ATOM     12  C   UNL     1     -15.052   2.232  33.016  0.00  0.00    +0.175 C 
ATOM     13  C   UNL     1     -13.718   2.314  32.281  0.00  0.00    +0.165 C 
ENDROOT
BRANCH  11   3
ATOM      3  O   UNL     1     -16.400   3.957  34.105  0.00  0.00    -0.387 OA
ATOM     24  H   UNL     1     -17.278   3.708  33.771  0.00  0.00    +0.210 HD
ENDBRANCH  11   3
BRANCH  12   4
ATOM      4  O   UNL     1     -14.805   1.727  34.327  0.00  0.00    -0.387 OA
ATOM     25  H   UNL     1     -13.847   1.578  34.406  0.00  0.00    +0.210 HD
ENDBRANCH  12   4
BRANCH  10  14
ATOM     14  C   UNL     1     -14.102   5.819  32.877  0.00  0.00    +0.130 C 
BRANCH  14  21
ATOM      5  O   UNL     1     -13.864   6.388  35.164  0.00  0.00    -0.276 OA
ATOM      8  N   UNL     1     -12.904   7.844  33.629  0.00  0.00    -0.301 N 
ATOM     15  C   UNL     1     -12.500  10.652  33.025  0.00  0.00    -0.011 C 
ATOM     16  C   UNL     1     -13.064   9.673  31.984  0.00  0.00    +0.022 C 
ATOM     17  C   UNL     1     -12.832  10.167  34.444  0.00  0.00    +0.022 C 
ATOM     18  C   UNL     1     -12.593   8.244  32.253  0.00  0.00    +0.108 C 
ATOM     19  C   UNL     1     -12.364   8.731  34.662  0.00  0.00    +0.108 C 
ATOM     21  C   UNL     1     -13.615   6.703  33.998  0.00  0.00    +0.218 C 
ATOM     22  C   UNL     1     -13.038  12.062  32.791  0.00  0.00    +0.007 C 
ENDBRANCH  14  21
ENDBRANCH  10  14
BRANCH  13  20
ATOM     20  C   UNL     1     -13.864   2.223  30.768  0.00  0.00    +0.139 C 
BRANCH  20   9
ATOM      9  N   UNL     1     -13.332   0.989  30.270  0.00  0.00    -0.192 NA
ATOM     26  H   UNL     1     -12.520   0.636  30.793  0.00  0.00    +0.148 HD
BRANCH   9   1
ATOM      1  S   UNL     1     -14.385  -0.223  29.633  0.00  0.00    +0.027 S 
ATOM      6  O   UNL     1     -13.587  -1.328  29.138  0.00  0.00    -0.158 OA
ATOM      7  O   UNL     1     -15.395   0.396  28.797  0.00  0.00    -0.158 OA
ATOM     23  C   UNL     1     -15.187  -0.755  31.129  0.00  0.00    +0.214 C 
ENDBRANCH   9   1
ENDBRANCH  20   9
ENDBRANCH  13  20
TORSDOF 7
ENDMDL
MODEL 4
REMARK VINA RESULT:      -6.3     26.428     27.987
REMARK  Name = 25390234
REMARK  9 active torsions:
REMARK  status: ('A' for Active; 'I' for Inactive)
REMARK    1  A    between atoms: S_1  and  N_9
REMARK    2  A    between atoms: S_1  and  C_23
REMARK    3  A    between atoms: O_3  and  C_11
REMARK    4  A    between atoms: O_4  and  C_12
REMARK    5  A    between atoms: N_9  and  C_20
REMARK    6  A    between atoms: C_10  and  C_14
REMARK    7  A    between atoms: C_13  and  C_20
REMARK    8  A    between atoms: C_14  and  C_21
REMARK    9  A    between atoms: C_15  and  C_22
REMARK                            x       y       z     vdW  Elec       q    Type
REMARK                         _______ _______ _______ _____ _____    ______ ____
ROOT
ATOM      2  O   UNL     1      -5.258 -12.605  15.882  0.00  0.00    -0.366 OA
ATOM     10  C   UNL     1      -4.070 -11.963  16.376  0.00  0.00    +0.158 C 
ATOM     11  C   UNL     1      -4.261 -11.844  17.878  0.00  0.00    +0.175 C 
ATOM     12  C   UNL     1      -5.012 -13.121  18.192  0.00  0.00    +0.175 C 
ATOM     13  C   UNL     1      -5.936 -13.249  16.985  0.00  0.00    +0.165 C 
ENDROOT
BRANCH  11   3
ATOM      3  O   UNL     1      -3.031 -11.735  18.562  0.00  0.00    -0.387 OA
ATOM     24  H   UNL     1      -2.331 -11.653  17.893  0.00  0.00    +0.210 HD
ENDBRANCH  11   3
BRANCH  12   4
ATOM      4  O   UNL     1      -4.119 -14.234  18.186  0.00  0.00    -0.387 OA
ATOM     25  H   UNL     1      -4.544 -14.950  18.687  0.00  0.00    +0.210 HD
ENDBRANCH  12   4
BRANCH  10  14
ATOM     14  C   UNL     1      -3.886 -10.625  15.683  0.00  0.00    +0.130 C 
BRANCH  14  21
ATOM      5  O   UNL     1      -1.584 -10.629  15.125  0.00  0.00    -0.276 OA
ATOM      8  N   UNL     1      -3.077 -10.855  13.361  0.00  0.00    -0.301 N 
ATOM     15  C   UNL     1      -3.602 -10.016  10.634  0.00  0.00    -0.011 C 
ATOM     16  C   UNL     1      -4.669  -9.909  11.734  0.00  0.00    +0.022 C 
ATOM     17  C   UNL     1      -2.196  -9.941  11.250  0.00  0.00    +0.022 C 
ATOM     18  C   UNL     1      -4.442 -10.948  12.831  0.00  0.00    +0.108 C 
ATOM     19  C   UNL     1      -2.021 -10.980  12.355  0.00  0.00    +0.108 C 
ATOM     21  C   UNL     1      -2.741 -10.704  14.705  0.00  0.00    +0.218 C 
ATOM     22  C   UNL     1      -3.794  -8.925   9.583  0.00  0.00    +0.007 C 
ENDBRANCH  14  21
ENDBRANCH  10  14
BRANCH  13  20
ATOM     20  C   UNL     1      -7.274 -12.550  17.182  0.00  0.00    +0.139 C 
BRANCH  20   9
ATOM      9  N   UNL     1      -7.632 -12.498  18.570  0.00  0.00    -0.192 NA
ATOM     26  H   UNL     1      -7.178 -13.214  19.152  0.00  0.00    +0.148 HD
BRANCH   9   1
ATOM      1  S   UNL     1      -7.904 -10.979  19.345  0.00  0.00    +0.027 S 
ATOM      6  O   UNL     1      -6.705 -10.593  20.063  0.00  0.00    -0.158 OA
ATOM      7  O   UNL     1      -9.194 -10.993  20.009  0.00  0.00    -0.158 OA
ATOM     23  C   UNL     1      -8.053  -9.925  17.921  0.00  0.00    +0.214 C 
ENDBRANCH   9   1
ENDBRANCH  20   9
ENDBRANCH  13  20
TORSDOF 7
ENDMDL
MODEL 5
REMARK VINA RESULT:      -6.2      2.908      4.469
REMARK  Name = 25390234
REMARK  9 active torsions:
REMARK  status: ('A' for Active; 'I' for Inactive)
REMARK    1  A    between atoms: S_1  and  N_9
REMARK    2  A    between atoms: S_1  and  C_23
REMARK    3  A    between atoms: O_3  and  C_11
REMARK    4  A    between atoms: O_4  and  C_12
REMARK    5  A    between atoms: N_9  and  C_20
REMARK    6  A    between atoms: C_10  and  C_14
REMARK    7  A    between atoms: C_13  and  C_20
REMARK    8  A    between atoms: C_14  and  C_21
REMARK    9  A    between atoms: C_15  and  C_22
REMARK                            x       y       z     vdW  Elec       q    Type
REMARK                         _______ _______ _______ _____ _____    ______ ____
ROOT
ATOM      2  O   UNL     1      13.030   7.927  20.699  0.00  0.00    -0.366 OA
ATOM     10  C   UNL     1      13.977   8.937  21.090  0.00  0.00    +0.158 C 
ATOM     11  C   UNL     1      13.185  10.230  21.182  0.00  0.00    +0.175 C 
ATOM     12  C   UNL     1      11.853   9.734  21.705  0.00  0.00    +0.175 C 
ATOM     13  C   UNL     1      11.693   8.412  20.962  0.00  0.00    +0.165 C 
ENDROOT
BRANCH  11   3
ATOM      3  O   UNL     1      13.804  11.172  22.031  0.00  0.00    -0.387 OA
ATOM     24  H   UNL     1      14.136  10.691  22.808  0.00  0.00    +0.210 HD
ENDBRANCH  11   3
BRANCH  12   4
ATOM      4  O   UNL     1      11.944   9.450  23.100  0.00  0.00    -0.387 OA
ATOM     25  H   UNL     1      11.075   9.123  23.388  0.00  0.00    +0.210 HD
ENDBRANCH  12   4
BRANCH  10  14
ATOM     14  C   UNL     1      15.109   8.994  20.080  0.00  0.00    +0.130 C 
BRANCH  14  21
ATOM      5  O   UNL     1      16.666  10.596  20.868  0.00  0.00    -0.276 OA
ATOM      8  N   UNL     1      17.196   8.366  21.243  0.00  0.00    -0.301 N 
ATOM     15  C   UNL     1      19.378   6.455  21.209  0.00  0.00    -0.011 C 
ATOM     16  C   UNL     1      18.053   6.184  20.481  0.00  0.00    +0.022 C 
ATOM     17  C   UNL     1      19.626   7.967  21.315  0.00  0.00    +0.022 C 
ATOM     18  C   UNL     1      16.894   6.934  21.137  0.00  0.00    +0.108 C 
ATOM     19  C   UNL     1      18.436   8.679  21.955  0.00  0.00    +0.108 C 
ATOM     21  C   UNL     1      16.390   9.399  20.765  0.00  0.00    +0.218 C 
ATOM     22  C   UNL     1      20.539   5.761  20.501  0.00  0.00    +0.007 C 
ENDBRANCH  14  21
ENDBRANCH  10  14
BRANCH  13  20
ATOM     20  C   UNL     1      10.981   8.563  19.624  0.00  0.00    +0.139 C 
BRANCH  20   9
ATOM      9  N   UNL     1      11.676   7.859  18.586  0.00  0.00    -0.192 NA
ATOM     26  H   UNL     1      11.268   6.946  18.348  0.00  0.00    +0.148 HD
BRANCH   9   1
ATOM      1  S   UNL     1      12.379   8.722  17.265  0.00  0.00    +0.027 S 
ATOM      6  O   UNL     1      13.329   7.859  16.591  0.00  0.00    -0.158 OA
ATOM      7  O   UNL     1      12.762  10.052  17.698  0.00  0.00    -0.158 OA
ATOM     23  C   UNL     1      10.956   8.896  16.213  0.00  0.00    +0.214 C 
ENDBRANCH   9   1
ENDBRANCH  20   9
ENDBRANCH  13  20
TORSDOF 7
ENDMDL
MODEL 6
REMARK VINA RESULT:      -6.1     26.733     28.077
REMARK  Name = 25390234
REMARK  9 active torsions:
REMARK  status: ('A' for Active; 'I' for Inactive)
REMARK    1  A    between atoms: S_1  and  N_9
REMARK    2  A    between atoms: S_1  and  C_23
REMARK    3  A    between atoms: O_3  and  C_11
REMARK    4  A    between atoms: O_4  and  C_12
REMARK    5  A    between atoms: N_9  and  C_20
REMARK    6  A    between atoms: C_10  and  C_14
REMARK    7  A    between atoms: C_13  and  C_20
REMARK    8  A    between atoms: C_14  and  C_21
REMARK    9  A    between atoms: C_15  and  C_22
REMARK                            x       y       z     vdW  Elec       q    Type
REMARK                         _______ _______ _______ _____ _____    ______ ____
ROOT
ATOM      2  O   UNL     1      -5.921 -12.420  16.419  0.00  0.00    -0.366 OA
ATOM     10  C   UNL     1      -4.577 -11.912  16.348  0.00  0.00    +0.158 C 
ATOM     11  C   UNL     1      -4.185 -11.590  17.780  0.00  0.00    +0.175 C 
ATOM     12  C   UNL     1      -4.887 -12.693  18.544  0.00  0.00    +0.175 C 
ATOM     13  C   UNL     1      -6.200 -12.821  17.779  0.00  0.00    +0.165 C 
ENDROOT
BRANCH  11   3
ATOM      3  O   UNL     1      -2.784 -11.589  17.959  0.00  0.00    -0.387 OA
ATOM     24  H   UNL     1      -2.416 -10.902  17.379  0.00  0.00    +0.210 HD
ENDBRANCH  11   3
BRANCH  12   4
ATOM      4  O   UNL     1      -4.173 -13.921  18.407  0.00  0.00    -0.387 OA
ATOM     25  H   UNL     1      -4.030 -14.275  19.301  0.00  0.00    +0.210 HD
ENDBRANCH  12   4
BRANCH  10  14
ATOM     14  C   UNL     1      -4.533 -10.707  15.426  0.00  0.00    +0.130 C 
BRANCH  14  21
ATOM      5  O   UNL     1      -2.185 -10.670  15.110  0.00  0.00    -0.276 OA
ATOM      8  N   UNL     1      -3.484 -10.900  13.198  0.00  0.00    -0.301 N 
ATOM     15  C   UNL     1      -3.736 -10.039  10.439  0.00  0.00    -0.011 C 
ATOM     16  C   UNL     1      -4.914  -9.960  11.423  0.00  0.00    +0.022 C 
ATOM     17  C   UNL     1      -2.404  -9.949  11.198  0.00  0.00    +0.022 C 
ATOM     18  C   UNL     1      -4.785 -11.008  12.528  0.00  0.00    +0.108 C 
ATOM     19  C   UNL     1      -2.327 -10.997  12.306  0.00  0.00    +0.108 C 
ATOM     21  C   UNL     1      -3.291 -10.758  14.571  0.00  0.00    +0.218 C 
ATOM     22  C   UNL     1      -3.836  -8.940   9.384  0.00  0.00    +0.007 C 
ENDBRANCH  14  21
ENDBRANCH  10  14
BRANCH  13  20
ATOM     20  C   UNL     1      -7.294 -11.909  18.318  0.00  0.00    +0.139 C 
BRANCH  20   9
ATOM      9  N   UNL     1      -8.208 -11.528  17.281  0.00  0.00    -0.192 NA
ATOM     26  H   UNL     1      -9.072 -12.084  17.253  0.00  0.00    +0.148 HD
BRANCH   9   1
ATOM      1  S   UNL     1      -8.382  -9.869  16.835  0.00  0.00    +0.027 S 
ATOM      6  O   UNL     1      -7.154  -9.165  17.148  0.00  0.00    -0.158 OA
ATOM      7  O   UNL     1      -9.662  -9.369  17.299  0.00  0.00    -0.158 OA
ATOM     23  C   UNL     1      -8.485 -10.031  15.067  0.00  0.00    +0.214 C 
ENDBRANCH   9   1
ENDBRANCH  20   9
ENDBRANCH  13  20
TORSDOF 7
ENDMDL
MODEL 7
REMARK VINA RESULT:      -5.9     19.136     21.478
REMARK  Name = 25390234
REMARK  9 active torsions:
REMARK  status: ('A' for Active; 'I' for Inactive)
REMARK    1  A    between atoms: S_1  and  N_9
REMARK    2  A    between atoms: S_1  and  C_23
REMARK    3  A    between atoms: O_3  and  C_11
REMARK    4  A    between atoms: O_4  and  C_12
REMARK    5  A    between atoms: N_9  and  C_20
REMARK    6  A    between atoms: C_10  and  C_14
REMARK    7  A    between atoms: C_13  and  C_20
REMARK    8  A    between atoms: C_14  and  C_21
REMARK    9  A    between atoms: C_15  and  C_22
REMARK                            x       y       z     vdW  Elec       q    Type
REMARK                         _______ _______ _______ _____ _____    ______ ____
ROOT
ATOM      2  O   UNL     1      13.480   5.364   0.043  0.00  0.00    -0.366 OA
ATOM     10  C   UNL     1      13.795   5.020   1.404  0.00  0.00    +0.158 C 
ATOM     11  C   UNL     1      14.605   3.736   1.325  0.00  0.00    +0.175 C 
ATOM     12  C   UNL     1      15.395   3.953   0.052  0.00  0.00    +0.175 C 
ATOM     13  C   UNL     1      14.374   4.650  -0.841  0.00  0.00    +0.165 C 
ENDROOT
BRANCH  11   3
ATOM      3  O   UNL     1      15.418   3.551   2.464  0.00  0.00    -0.387 OA
ATOM     24  H   UNL     1      15.268   4.308   3.055  0.00  0.00    +0.210 HD
ENDBRANCH  11   3
BRANCH  12   4
ATOM      4  O   UNL     1      16.471   4.861   0.286  0.00  0.00    -0.387 OA
ATOM     25  H   UNL     1      17.172   4.368   0.745  0.00  0.00    +0.210 HD
ENDBRANCH  12   4
BRANCH  10  14
ATOM     14  C   UNL     1      12.514   4.875   2.205  0.00  0.00    +0.130 C 
BRANCH  14  21
ATOM      5  O   UNL     1      13.260   6.885   3.212  0.00  0.00    -0.276 OA
ATOM      8  N   UNL     1      11.305   5.965   4.063  0.00  0.00    -0.301 N 
ATOM     15  C   UNL     1       9.868   5.420   6.524  0.00  0.00    -0.011 C 
ATOM     16  C   UNL     1      10.113   4.328   5.470  0.00  0.00    +0.022 C 
ATOM     17  C   UNL     1      10.969   6.488   6.447  0.00  0.00    +0.022 C 
ATOM     18  C   UNL     1      10.265   4.929   4.073  0.00  0.00    +0.108 C 
ATOM     19  C   UNL     1      11.102   7.044   5.031  0.00  0.00    +0.108 C 
ATOM     21  C   UNL     1      12.399   6.002   3.201  0.00  0.00    +0.218 C 
ATOM     22  C   UNL     1       9.793   4.815   7.924  0.00  0.00    +0.007 C 
ENDBRANCH  14  21
ENDBRANCH  10  14
BRANCH  13  20
ATOM     20  C   UNL     1      13.538   3.678  -1.662  0.00  0.00    +0.139 C 
BRANCH  20   9
ATOM      9  N   UNL     1      12.531   4.367  -2.414  0.00  0.00    -0.192 NA
ATOM     26  H   UNL     1      12.802   4.590  -3.380  0.00  0.00    +0.148 HD
BRANCH   9   1
ATOM      1  S   UNL     1      10.860   3.998  -2.181  0.00  0.00    +0.027 S 
ATOM      6  O   UNL     1      10.066   4.814  -3.079  0.00  0.00    -0.158 OA
ATOM      7  O   UNL     1      10.562   3.950  -0.763  0.00  0.00    -0.158 OA
ATOM     23  C   UNL     1      10.824   2.326  -2.787  0.00  0.00    +0.214 C 
ENDBRANCH   9   1
ENDBRANCH  20   9
ENDBRANCH  13  20
TORSDOF 7
ENDMDL
MODEL 8
REMARK VINA RESULT:      -5.8     29.287     30.827
REMARK  Name = 25390234
REMARK  9 active torsions:
REMARK  status: ('A' for Active; 'I' for Inactive)
REMARK    1  A    between atoms: S_1  and  N_9
REMARK    2  A    between atoms: S_1  and  C_23
REMARK    3  A    between atoms: O_3  and  C_11
REMARK    4  A    between atoms: O_4  and  C_12
REMARK    5  A    between atoms: N_9  and  C_20
REMARK    6  A    between atoms: C_10  and  C_14
REMARK    7  A    between atoms: C_13  and  C_20
REMARK    8  A    between atoms: C_14  and  C_21
REMARK    9  A    between atoms: C_15  and  C_22
REMARK                            x       y       z     vdW  Elec       q    Type
REMARK                         _______ _______ _______ _____ _____    ______ ____
ROOT
ATOM      2  O   UNL     1     -13.731   3.377  31.406  0.00  0.00    -0.366 OA
ATOM     10  C   UNL     1     -14.085   2.359  32.357  0.00  0.00    +0.158 C 
ATOM     11  C   UNL     1     -14.940   1.362  31.592  0.00  0.00    +0.175 C 
ATOM     12  C   UNL     1     -14.288   1.388  30.226  0.00  0.00    +0.175 C 
ATOM     13  C   UNL     1     -13.937   2.863  30.070  0.00  0.00    +0.165 C 
ENDROOT
BRANCH  11   3
ATOM      3  O   UNL     1     -14.931   0.085  32.193  0.00  0.00    -0.387 OA
ATOM     24  H   UNL     1     -15.119  -0.567  31.497  0.00  0.00    +0.210 HD
ENDBRANCH  11   3
BRANCH  12   4
ATOM      4  O   UNL     1     -13.071   0.643  30.245  0.00  0.00    -0.387 OA
ATOM     25  H   UNL     1     -13.301  -0.293  30.115  0.00  0.00    +0.210 HD
ENDBRANCH  12   4
BRANCH  10  14
ATOM     14  C   UNL     1     -14.804   2.989  33.537  0.00  0.00    +0.130 C 
BRANCH  14  21
ATOM      5  O   UNL     1     -16.795   3.717  32.479  0.00  0.00    -0.276 OA
ATOM      8  N   UNL     1     -15.383   5.376  33.284  0.00  0.00    -0.301 N 
ATOM     15  C   UNL     1     -14.257   7.977  32.662  0.00  0.00    -0.011 C 
ATOM     16  C   UNL     1     -13.375   6.795  33.093  0.00  0.00    +0.022 C 
ATOM     17  C   UNL     1     -15.538   7.465  31.987  0.00  0.00    +0.022 C 
ATOM     18  C   UNL     1     -14.155   5.808  33.961  0.00  0.00    +0.108 C 
ATOM     19  C   UNL     1     -16.272   6.466  32.878  0.00  0.00    +0.108 C 
ATOM     21  C   UNL     1     -15.756   4.054  33.051  0.00  0.00    +0.218 C 
ATOM     22  C   UNL     1     -13.490   8.916  31.735  0.00  0.00    +0.007 C 
ENDBRANCH  14  21
ENDBRANCH  10  14
BRANCH  13  20
ATOM     20  C   UNL     1     -15.052   3.676  29.426  0.00  0.00    +0.139 C 
BRANCH  20   9
ATOM      9  N   UNL     1     -15.305   3.237  28.085  0.00  0.00    -0.192 NA
ATOM     26  H   UNL     1     -15.003   2.274  27.890  0.00  0.00    +0.148 HD
BRANCH   9   1
ATOM      1  S   UNL     1     -16.728   3.749  27.251  0.00  0.00    +0.027 S 
ATOM      6  O   UNL     1     -16.979   5.143  27.557  0.00  0.00    -0.158 OA
ATOM      7  O   UNL     1     -17.772   2.754  27.409  0.00  0.00    -0.158 OA
ATOM     23  C   UNL     1     -16.155   3.652  25.570  0.00  0.00    +0.214 C 
ENDBRANCH   9   1
ENDBRANCH  20   9
ENDBRANCH  13  20
TORSDOF 7
ENDMDL
MODEL 9
REMARK VINA RESULT:      -5.5     26.250     28.842
REMARK  Name = 25390234
REMARK  9 active torsions:
REMARK  status: ('A' for Active; 'I' for Inactive)
REMARK    1  A    between atoms: S_1  and  N_9
REMARK    2  A    between atoms: S_1  and  C_23
REMARK    3  A    between atoms: O_3  and  C_11
REMARK    4  A    between atoms: O_4  and  C_12
REMARK    5  A    between atoms: N_9  and  C_20
REMARK    6  A    between atoms: C_10  and  C_14
REMARK    7  A    between atoms: C_13  and  C_20
REMARK    8  A    between atoms: C_14  and  C_21
REMARK    9  A    between atoms: C_15  and  C_22
REMARK                            x       y       z     vdW  Elec       q    Type
REMARK                         _______ _______ _______ _____ _____    ______ ____
ROOT
ATOM      2  O   UNL     1      -3.811 -10.690  14.128  0.00  0.00    -0.366 OA
ATOM     10  C   UNL     1      -3.608 -10.865  15.541  0.00  0.00    +0.158 C 
ATOM     11  C   UNL     1      -2.183 -11.370  15.691  0.00  0.00    +0.175 C 
ATOM     12  C   UNL     1      -1.477 -10.622  14.580  0.00  0.00    +0.175 C 
ATOM     13  C   UNL     1      -2.524 -10.640  13.472  0.00  0.00    +0.165 C 
ENDROOT
BRANCH  11   3
ATOM      3  O   UNL     1      -1.656 -11.096  16.972  0.00  0.00    -0.387 OA
ATOM     24  H   UNL     1      -0.958 -10.428  16.864  0.00  0.00    +0.210 HD
ENDBRANCH  11   3
BRANCH  12   4
ATOM      4  O   UNL     1      -1.255  -9.266  14.959  0.00  0.00    -0.387 OA
ATOM     25  H   UNL     1      -0.916  -8.797  14.176  0.00  0.00    +0.210 HD
ENDBRANCH  12   4
BRANCH  10  14
ATOM     14  C   UNL     1      -4.648 -11.823  16.094  0.00  0.00    +0.130 C 
BRANCH  14  21
ATOM      5  O   UNL     1      -4.585 -10.497  18.056  0.00  0.00    -0.276 OA
ATOM      8  N   UNL     1      -6.568 -11.632  17.636  0.00  0.00    -0.301 N 
ATOM     15  C   UNL     1      -8.684 -13.163  18.897  0.00  0.00    -0.011 C 
ATOM     16  C   UNL     1      -7.939 -13.680  17.656  0.00  0.00    +0.022 C 
ATOM     17  C   UNL     1      -7.783 -12.212  19.699  0.00  0.00    +0.022 C 
ATOM     18  C   UNL     1      -7.392 -12.527  16.816  0.00  0.00    +0.108 C 
ATOM     19  C   UNL     1      -7.242 -11.089  18.817  0.00  0.00    +0.108 C 
ATOM     21  C   UNL     1      -5.257 -11.253  17.350  0.00  0.00    +0.218 C 
ATOM     22  C   UNL     1      -9.160 -14.324  19.767  0.00  0.00    +0.007 C 
ENDBRANCH  14  21
ENDBRANCH  10  14
BRANCH  13  20
ATOM     20  C   UNL     1      -2.414 -11.859  12.566  0.00  0.00    +0.139 C 
BRANCH  20   9
ATOM      9  N   UNL     1      -1.363 -12.733  12.999  0.00  0.00    -0.192 NA
ATOM     26  H   UNL     1      -0.669 -12.288  13.613  0.00  0.00    +0.148 HD
BRANCH   9   1
ATOM      1  S   UNL     1      -1.692 -14.395  13.336  0.00  0.00    +0.027 S 
ATOM      6  O   UNL     1      -2.644 -14.477  14.425  0.00  0.00    -0.158 OA
ATOM      7  O   UNL     1      -0.448 -15.140  13.379  0.00  0.00    -0.158 OA
ATOM     23  C   UNL     1      -2.533 -14.855  11.838  0.00  0.00    +0.214 C 
ENDBRANCH   9   1
ENDBRANCH  20   9
ENDBRANCH  13  20
TORSDOF 7
ENDMDL
MODEL 10
REMARK VINA RESULT:      -5.5     15.207     16.768
REMARK  Name = 25390234
REMARK  9 active torsions:
REMARK  status: ('A' for Active; 'I' for Inactive)
REMARK    1  A    between atoms: S_1  and  N_9
REMARK    2  A    between atoms: S_1  and  C_23
REMARK    3  A    between atoms: O_3  and  C_11
REMARK    4  A    between atoms: O_4  and  C_12
REMARK    5  A    between atoms: N_9  and  C_20
REMARK    6  A    between atoms: C_10  and  C_14
REMARK    7  A    between atoms: C_13  and  C_20
REMARK    8  A    between atoms: C_14  and  C_21
REMARK    9  A    between atoms: C_15  and  C_22
REMARK                            x       y       z     vdW  Elec       q    Type
REMARK                         _______ _______ _______ _____ _____    ______ ____
ROOT
ATOM      2  O   UNL     1       9.131   7.033   5.958  0.00  0.00    -0.366 OA
ATOM     10  C   UNL     1      10.263   6.151   6.050  0.00  0.00    +0.158 C 
ATOM     11  C   UNL     1      10.996   6.556   7.318  0.00  0.00    +0.175 C 
ATOM     12  C   UNL     1       9.846   6.939   8.225  0.00  0.00    +0.175 C 
ATOM     13  C   UNL     1       8.894   7.629   7.254  0.00  0.00    +0.165 C 
ENDROOT
BRANCH  11   3
ATOM      3  O   UNL     1      11.787   5.505   7.831  0.00  0.00    -0.387 OA
ATOM     24  H   UNL     1      12.622   5.498   7.334  0.00  0.00    +0.210 HD
ENDBRANCH  11   3
BRANCH  12   4
ATOM      4  O   UNL     1       9.200   5.771   8.726  0.00  0.00    -0.387 OA
ATOM     25  H   UNL     1       8.314   6.036   9.028  0.00  0.00    +0.210 HD
ENDBRANCH  12   4
BRANCH  10  14
ATOM     14  C   UNL     1      11.112   6.276   4.797  0.00  0.00    +0.130 C 
BRANCH  14  21
ATOM      5  O   UNL     1      10.330   4.075   4.402  0.00  0.00    -0.276 OA
ATOM      8  N   UNL     1      11.731   4.982   2.786  0.00  0.00    -0.301 N 
ATOM     15  C   UNL     1      13.950   4.370   1.021  0.00  0.00    -0.011 C 
ATOM     16  C   UNL     1      13.970   5.591   1.954  0.00  0.00    +0.022 C 
ATOM     17  C   UNL     1      13.052   3.270   1.607  0.00  0.00    +0.022 C 
ATOM     18  C   UNL     1      12.554   6.078   2.262  0.00  0.00    +0.108 C 
ATOM     19  C   UNL     1      11.657   3.804   1.920  0.00  0.00    +0.108 C 
ATOM     21  C   UNL     1      11.016   5.010   3.983  0.00  0.00    +0.218 C 
ATOM     22  C   UNL     1      15.365   3.848   0.782  0.00  0.00    +0.007 C 
ENDBRANCH  14  21
ENDBRANCH  10  14
BRANCH  13  20
ATOM     20  C   UNL     1       9.147   9.125   7.132  0.00  0.00    +0.139 C 
BRANCH  20   9
ATOM      9  N   UNL     1       9.313   9.729   8.422  0.00  0.00    -0.192 NA
ATOM     26  H   UNL     1       9.732   9.111   9.129  0.00  0.00    +0.148 HD
BRANCH   9   1
ATOM      1  S   UNL     1       9.734  11.399   8.558  0.00  0.00    +0.027 S 
ATOM      6  O   UNL     1       9.079  12.138   7.497  0.00  0.00    -0.158 OA
ATOM      7  O   UNL     1      11.161  11.527   8.781  0.00  0.00    -0.158 OA
ATOM     23  C   UNL     1       8.919  11.801  10.087  0.00  0.00    +0.214 C 
ENDBRANCH   9   1
ENDBRANCH  20   9
ENDBRANCH  13  20
TORSDOF 7
ENDMDL
