MODEL 1
REMARK VINA RESULT:      -7.2      0.000      0.000
REMARK  Name = 51136629
REMARK  11 active torsions:
REMARK  status: ('A' for Active; 'I' for Inactive)
REMARK    1  A    between atoms: O_4  and  C_22
REMARK    2  A    between atoms: O_7  and  C_28
REMARK    3  A    between atoms: O_7  and  C_36
REMARK    4  A    between atoms: O_8  and  C_29
REMARK    5  A    between atoms: O_8  and  C_37
REMARK    6  A    between atoms: N_11  and  C_30
REMARK    7  A    between atoms: C_12  and  C_17
REMARK    8  A    between atoms: C_13  and  C_18
REMARK    9  A    between atoms: C_17  and  C_19
REMARK   10  A    between atoms: C_18  and  C_22
REMARK   11  A    between atoms: C_33  and  C_38
REMARK                            x       y       z     vdW  Elec       q    Type
REMARK                         _______ _______ _______ _____ _____    ______ ____
ROOT
ATOM      5  O   UNL     1      10.582   8.829  21.670  0.00  0.00    -0.252 OA
ATOM      9  N   UNL     1      12.728   7.974  21.771  0.00  0.00    -0.285 N 
ATOM     11  N   UNL     1      12.172   9.948  22.937  0.00  0.00    -0.269 N 
ATOM     12  C   UNL     1      15.107   8.031  21.074  0.00  0.00    +0.016 C 
ATOM     13  C   UNL     1      14.803   6.882  20.076  0.00  0.00    +0.006 C 
ATOM     14  C   UNL     1      13.321   6.861  19.661  0.00  0.00    +0.023 C 
ATOM     15  C   UNL     1      14.118   7.962  22.251  0.00  0.00    +0.113 C 
ATOM     16  C   UNL     1      12.399   6.861  20.879  0.00  0.00    +0.109 C 
ATOM     20  C   UNL     1      11.732   8.916  22.108  0.00  0.00    +0.306 C 
ATOM     39  H   UNL     1      12.933   9.762  23.579  0.00  0.00    +0.156 HD
ENDROOT
BRANCH  11  30
ATOM     30  C   UNL     1      11.683  11.277  22.987  0.00  0.00    +0.035 A 
ATOM     31  C   UNL     1      11.537  11.922  24.216  0.00  0.00    +0.035 A 
ATOM     32  C   UNL     1      11.348  11.941  21.807  0.00  0.00    +0.023 A 
ATOM     33  C   UNL     1      11.055  13.230  24.264  0.00  0.00    +0.057 A 
ATOM     34  C   UNL     1      10.867  13.249  21.855  0.00  0.00    +0.002 A 
ATOM     35  C   UNL     1      10.721  13.894  23.084  0.00  0.00    +0.012 A 
BRANCH  33  38
ATOM      1  F   UNL     1      12.078  14.042  26.251  0.00  0.00    -0.166 F 
ATOM      2  F   UNL     1      10.402  15.188  25.472  0.00  0.00    -0.166 F 
ATOM      3  F   UNL     1      10.051  13.276  26.434  0.00  0.00    -0.166 F 
ATOM     38  C   UNL     1      10.898  13.919  25.577  0.00  0.00    +0.417 C 
ENDBRANCH  33  38
ENDBRANCH  11  30
BRANCH  12  17
ATOM     17  C   UNL     1      15.094   9.428  20.443  0.00  0.00    +0.061 C 
BRANCH  17  19
ATOM     10  N   UNL     1      14.853  11.339  21.877  0.00  0.00    -0.287 NA
ATOM     19  C   UNL     1      15.655  10.436  21.415  0.00  0.00    +0.044 C 
ATOM     21  C   UNL     1      17.090  10.350  21.788  0.00  0.00    +0.003 A 
ATOM     23  C   UNL     1      17.661  11.491  22.364  0.00  0.00    -0.033 A 
ATOM     24  C   UNL     1      16.808  12.710  22.549  0.00  0.00    +0.059 C 
ATOM     25  C   UNL     1      15.381  12.281  22.869  0.00  0.00    +0.146 C 
ATOM     26  C   UNL     1      17.858   9.204  21.573  0.00  0.00    +0.059 A 
ATOM     27  C   UNL     1      19.019  11.488  22.700  0.00  0.00    +0.053 A 
ATOM     28  C   UNL     1      19.208   9.205  21.927  0.00  0.00    +0.162 A 
ATOM     29  C   UNL     1      19.787  10.344  22.486  0.00  0.00    +0.162 A 
BRANCH  28   7
ATOM      7  O   UNL     1      19.953   8.084  21.717  0.00  0.00    -0.491 OA
ATOM     36  C   UNL     1      19.861   7.051  22.696  0.00  0.00    +0.277 C 
ENDBRANCH  28   7
BRANCH  29   8
ATOM      8  O   UNL     1      21.107  10.353  22.825  0.00  0.00    -0.491 OA
ATOM     37  C   UNL     1      22.003  11.000  21.924  0.00  0.00    +0.277 C 
ENDBRANCH  29   8
ENDBRANCH  17  19
ENDBRANCH  12  17
BRANCH  13  18
ATOM     18  C   UNL     1      15.707   6.904  18.843  0.00  0.00    +0.124 C 
BRANCH  18  22
ATOM      6  O   UNL     1      17.720   6.102  19.959  0.00  0.00    -0.251 OA
ATOM     22  C   UNL     1      16.926   6.044  19.033  0.00  0.00    +0.305 C 
BRANCH  22   4
ATOM      4  O   UNL     1      17.030   5.166  18.003  0.00  0.00    -0.481 OA
ATOM     40  H   UNL     1      17.964   4.926  17.820  0.00  0.00    +0.295 HD
ENDBRANCH  22   4
ENDBRANCH  18  22
ENDBRANCH  13  18
TORSDOF 9
ENDMDL
MODEL 2
REMARK VINA RESULT:      -7.2      1.587      2.026
REMARK  Name = 51136629
REMARK  11 active torsions:
REMARK  status: ('A' for Active; 'I' for Inactive)
REMARK    1  A    between atoms: O_4  and  C_22
REMARK    2  A    between atoms: O_7  and  C_28
REMARK    3  A    between atoms: O_7  and  C_36
REMARK    4  A    between atoms: O_8  and  C_29
REMARK    5  A    between atoms: O_8  and  C_37
REMARK    6  A    between atoms: N_11  and  C_30
REMARK    7  A    between atoms: C_12  and  C_17
REMARK    8  A    between atoms: C_13  and  C_18
REMARK    9  A    between atoms: C_17  and  C_19
REMARK   10  A    between atoms: C_18  and  C_22
REMARK   11  A    between atoms: C_33  and  C_38
REMARK                            x       y       z     vdW  Elec       q    Type
REMARK                         _______ _______ _______ _____ _____    ______ ____
ROOT
ATOM      5  O   UNL     1      10.500   8.697  21.461  0.00  0.00    -0.252 OA
ATOM      9  N   UNL     1      12.637   7.841  21.680  0.00  0.00    -0.285 N 
ATOM     11  N   UNL     1      11.976   9.736  22.919  0.00  0.00    -0.269 N 
ATOM     12  C   UNL     1      15.063   7.946  21.181  0.00  0.00    +0.016 C 
ATOM     13  C   UNL     1      14.849   6.862  20.091  0.00  0.00    +0.006 C 
ATOM     14  C   UNL     1      13.404   6.865  19.558  0.00  0.00    +0.023 C 
ATOM     15  C   UNL     1      13.984   7.801  22.268  0.00  0.00    +0.113 C 
ATOM     16  C   UNL     1      12.387   6.787  20.696  0.00  0.00    +0.109 C 
ATOM     20  C   UNL     1      11.611   8.758  21.994  0.00  0.00    +0.306 C 
ATOM     39  H   UNL     1      12.684   9.511  23.607  0.00  0.00    +0.156 HD
ENDROOT
BRANCH  11  30
ATOM     30  C   UNL     1      11.475  11.058  23.014  0.00  0.00    +0.035 A 
ATOM     31  C   UNL     1      11.590  11.929  21.930  0.00  0.00    +0.035 A 
ATOM     32  C   UNL     1      10.866  11.490  24.193  0.00  0.00    +0.023 A 
ATOM     33  C   UNL     1      11.097  13.230  22.024  0.00  0.00    +0.057 A 
ATOM     34  C   UNL     1      10.373  12.791  24.288  0.00  0.00    +0.002 A 
ATOM     35  C   UNL     1      10.488  13.661  23.203  0.00  0.00    +0.012 A 
BRANCH  33  38
ATOM      1  F   UNL     1      11.887  13.604  19.813  0.00  0.00    -0.166 F 
ATOM      2  F   UNL     1      10.018  14.570  20.363  0.00  0.00    -0.166 F 
ATOM      3  F   UNL     1      11.895  15.312  21.160  0.00  0.00    -0.166 F 
ATOM     38  C   UNL     1      11.220  14.160  20.866  0.00  0.00    +0.417 C 
ENDBRANCH  33  38
ENDBRANCH  11  30
BRANCH  12  17
ATOM     17  C   UNL     1      15.091   9.380  20.640  0.00  0.00    +0.061 C 
BRANCH  17  19
ATOM     10  N   UNL     1      14.913  11.063  22.345  0.00  0.00    -0.287 NA
ATOM     19  C   UNL     1      15.707  10.303  21.663  0.00  0.00    +0.044 C 
ATOM     21  C   UNL     1      17.182  10.301  21.834  0.00  0.00    +0.003 A 
ATOM     23  C   UNL     1      17.744  11.406  22.485  0.00  0.00    -0.033 A 
ATOM     24  C   UNL     1      16.838  12.509  22.945  0.00  0.00    +0.059 C 
ATOM     25  C   UNL     1      15.504  11.915  23.381  0.00  0.00    +0.146 C 
ATOM     26  C   UNL     1      17.994   9.266  21.365  0.00  0.00    +0.059 A 
ATOM     27  C   UNL     1      19.131  11.484  22.640  0.00  0.00    +0.053 A 
ATOM     28  C   UNL     1      19.377   9.345  21.540  0.00  0.00    +0.162 A 
ATOM     29  C   UNL     1      19.944  10.451  22.173  0.00  0.00    +0.162 A 
BRANCH  28   7
ATOM      7  O   UNL     1      20.165   8.332  21.083  0.00  0.00    -0.491 OA
ATOM     36  C   UNL     1      20.387   7.234  21.966  0.00  0.00    +0.277 C 
ENDBRANCH  28   7
BRANCH  29   8
ATOM      8  O   UNL     1      21.294  10.536  22.339  0.00  0.00    -0.491 OA
ATOM     37  C   UNL     1      21.793  10.392  23.667  0.00  0.00    +0.277 C 
ENDBRANCH  29   8
ENDBRANCH  17  19
ENDBRANCH  12  17
BRANCH  13  18
ATOM     18  C   UNL     1      15.848   6.965  18.939  0.00  0.00    +0.124 C 
BRANCH  18  22
ATOM      6  O   UNL     1      17.812   6.035  20.042  0.00  0.00    -0.251 OA
ATOM     22  C   UNL     1      17.006   6.025  19.124  0.00  0.00    +0.305 C 
BRANCH  22   4
ATOM      4  O   UNL     1      17.039   5.133  18.100  0.00  0.00    -0.481 OA
ATOM     40  H   UNL     1      16.712   4.249  18.373  0.00  0.00    +0.295 HD
ENDBRANCH  22   4
ENDBRANCH  18  22
ENDBRANCH  13  18
TORSDOF 9
ENDMDL
MODEL 3
REMARK VINA RESULT:      -7.1      4.123      8.400
REMARK  Name = 51136629
REMARK  11 active torsions:
REMARK  status: ('A' for Active; 'I' for Inactive)
REMARK    1  A    between atoms: O_4  and  C_22
REMARK    2  A    between atoms: O_7  and  C_28
REMARK    3  A    between atoms: O_7  and  C_36
REMARK    4  A    between atoms: O_8  and  C_29
REMARK    5  A    between atoms: O_8  and  C_37
REMARK    6  A    between atoms: N_11  and  C_30
REMARK    7  A    between atoms: C_12  and  C_17
REMARK    8  A    between atoms: C_13  and  C_18
REMARK    9  A    between atoms: C_17  and  C_19
REMARK   10  A    between atoms: C_18  and  C_22
REMARK   11  A    between atoms: C_33  and  C_38
REMARK                            x       y       z     vdW  Elec       q    Type
REMARK                         _______ _______ _______ _____ _____    ______ ____
ROOT
ATOM      5  O   UNL     1      18.255  11.995  19.654  0.00  0.00    -0.252 OA
ATOM      9  N   UNL     1      16.475  13.044  20.692  0.00  0.00    -0.285 N 
ATOM     11  N   UNL     1      17.248  10.955  21.468  0.00  0.00    -0.269 N 
ATOM     12  C   UNL     1      14.039  13.262  21.098  0.00  0.00    +0.016 C 
ATOM     13  C   UNL     1      14.013  14.438  20.085  0.00  0.00    +0.006 C 
ATOM     14  C   UNL     1      15.164  14.343  19.068  0.00  0.00    +0.023 C 
ATOM     15  C   UNL     1      15.438  13.159  21.728  0.00  0.00    +0.113 C 
ATOM     16  C   UNL     1      16.514  14.175  19.764  0.00  0.00    +0.109 C 
ATOM     20  C   UNL     1      17.404  11.991  20.547  0.00  0.00    +0.306 C 
ATOM     39  H   UNL     1      16.864  11.171  22.379  0.00  0.00    +0.156 HD
ENDROOT
BRANCH  11  30
ATOM     30  C   UNL     1      17.555   9.585  21.279  0.00  0.00    +0.035 A 
ATOM     31  C   UNL     1      16.703   8.774  20.528  0.00  0.00    +0.035 A 
ATOM     32  C   UNL     1      18.712   9.046  21.843  0.00  0.00    +0.023 A 
ATOM     33  C   UNL     1      17.006   7.425  20.343  0.00  0.00    +0.057 A 
ATOM     34  C   UNL     1      19.015   7.697  21.658  0.00  0.00    +0.002 A 
ATOM     35  C   UNL     1      18.163   6.887  20.908  0.00  0.00    +0.012 A 
BRANCH  33  38
ATOM      1  F   UNL     1      15.040   6.091  20.270  0.00  0.00    -0.166 F 
ATOM      2  F   UNL     1      15.545   7.193  18.464  0.00  0.00    -0.166 F 
ATOM      3  F   UNL     1      16.707   5.450  19.029  0.00  0.00    -0.166 F 
ATOM     38  C   UNL     1      16.095   6.559  19.542  0.00  0.00    +0.417 C 
ENDBRANCH  33  38
ENDBRANCH  11  30
BRANCH  12  17
ATOM     17  C   UNL     1      13.619  11.913  20.501  0.00  0.00    +0.061 C 
BRANCH  17  19
ATOM     10  N   UNL     1      12.025  11.998  22.296  0.00  0.00    -0.287 NA
ATOM     19  C   UNL     1      12.563  11.274  21.369  0.00  0.00    +0.044 C 
ATOM     21  C   UNL     1      12.199   9.855  21.126  0.00  0.00    +0.003 A 
ATOM     23  C   UNL     1      11.527   9.190  22.159  0.00  0.00    -0.033 A 
ATOM     24  C   UNL     1      11.238   9.935  23.428  0.00  0.00    +0.059 C 
ATOM     25  C   UNL     1      10.957  11.397  23.100  0.00  0.00    +0.146 C 
ATOM     26  C   UNL     1      12.511   9.188  19.940  0.00  0.00    +0.059 A 
ATOM     27  C   UNL     1      11.192   7.841  22.008  0.00  0.00    +0.053 A 
ATOM     28  C   UNL     1      12.158   7.846  19.792  0.00  0.00    +0.162 A 
ATOM     29  C   UNL     1      11.504   7.174  20.824  0.00  0.00    +0.162 A 
BRANCH  28   7
ATOM      7  O   UNL     1      12.464   7.200  18.632  0.00  0.00    -0.491 OA
ATOM     36  C   UNL     1      12.647   8.005  17.470  0.00  0.00    +0.277 C 
ENDBRANCH  28   7
BRANCH  29   8
ATOM      8  O   UNL     1      11.164   5.861  20.688  0.00  0.00    -0.491 OA
ATOM     37  C   UNL     1      10.782   5.165  21.873  0.00  0.00    +0.277 C 
ENDBRANCH  29   8
ENDBRANCH  17  19
ENDBRANCH  12  17
BRANCH  13  18
ATOM     18  C   UNL     1      12.670  14.582  19.368  0.00  0.00    +0.124 C 
BRANCH  18  22
ATOM      6  O   UNL     1      10.376  15.012  20.069  0.00  0.00    -0.251 OA
ATOM     22  C   UNL     1      11.570  14.958  20.321  0.00  0.00    +0.305 C 
BRANCH  22   4
ATOM      4  O   UNL     1      12.098  15.241  21.540  0.00  0.00    -0.481 OA
ATOM     40  H   UNL     1      11.624  15.978  21.981  0.00  0.00    +0.295 HD
ENDBRANCH  22   4
ENDBRANCH  18  22
ENDBRANCH  13  18
TORSDOF 9
ENDMDL
MODEL 4
REMARK VINA RESULT:      -7.1     16.645     19.389
REMARK  Name = 51136629
REMARK  11 active torsions:
REMARK  status: ('A' for Active; 'I' for Inactive)
REMARK    1  A    between atoms: O_4  and  C_22
REMARK    2  A    between atoms: O_7  and  C_28
REMARK    3  A    between atoms: O_7  and  C_36
REMARK    4  A    between atoms: O_8  and  C_29
REMARK    5  A    between atoms: O_8  and  C_37
REMARK    6  A    between atoms: N_11  and  C_30
REMARK    7  A    between atoms: C_12  and  C_17
REMARK    8  A    between atoms: C_13  and  C_18
REMARK    9  A    between atoms: C_17  and  C_19
REMARK   10  A    between atoms: C_18  and  C_22
REMARK   11  A    between atoms: C_33  and  C_38
REMARK                            x       y       z     vdW  Elec       q    Type
REMARK                         _______ _______ _______ _____ _____    ______ ____
ROOT
ATOM      5  O   UNL     1      10.197   4.302   1.769  0.00  0.00    -0.252 OA
ATOM      9  N   UNL     1      12.492   4.558   1.657  0.00  0.00    -0.285 N 
ATOM     11  N   UNL     1      11.355   4.858   3.701  0.00  0.00    -0.269 N 
ATOM     12  C   UNL     1      14.498   6.013   1.570  0.00  0.00    +0.016 C 
ATOM     13  C   UNL     1      14.548   5.789   0.035  0.00  0.00    +0.006 C 
ATOM     14  C   UNL     1      13.163   5.439  -0.538  0.00  0.00    +0.023 C 
ATOM     15  C   UNL     1      13.818   4.808   2.242  0.00  0.00    +0.113 C 
ATOM     16  C   UNL     1      12.520   4.278   0.221  0.00  0.00    +0.109 C 
ATOM     20  C   UNL     1      11.260   4.545   2.346  0.00  0.00    +0.306 C 
ATOM     39  H   UNL     1      12.212   4.635   4.191  0.00  0.00    +0.156 HD
ENDROOT
BRANCH  11  30
ATOM     30  C   UNL     1      10.374   5.487   4.508  0.00  0.00    +0.035 A 
ATOM     31  C   UNL     1      10.411   5.341   5.895  0.00  0.00    +0.035 A 
ATOM     32  C   UNL     1       9.370   6.253   3.915  0.00  0.00    +0.023 A 
ATOM     33  C   UNL     1       9.445   5.960   6.688  0.00  0.00    +0.057 A 
ATOM     34  C   UNL     1       8.404   6.872   4.708  0.00  0.00    +0.002 A 
ATOM     35  C   UNL     1       8.442   6.726   6.095  0.00  0.00    +0.012 A 
BRANCH  33  38
ATOM      1  F   UNL     1       8.662   6.682   8.814  0.00  0.00    -0.166 F 
ATOM      2  F   UNL     1       9.104   4.563   8.600  0.00  0.00    -0.166 F 
ATOM      3  F   UNL     1      10.725   6.001   8.708  0.00  0.00    -0.166 F 
ATOM     38  C   UNL     1       9.484   5.803   8.170  0.00  0.00    +0.417 C 
ENDBRANCH  33  38
ENDBRANCH  11  30
BRANCH  12  17
ATOM     17  C   UNL     1      13.812   7.319   1.989  0.00  0.00    +0.061 C 
BRANCH  17  19
ATOM     10  N   UNL     1      15.132   7.159   3.989  0.00  0.00    -0.287 NA
ATOM     19  C   UNL     1      14.019   7.557   3.465  0.00  0.00    +0.044 C 
ATOM     21  C   UNL     1      12.942   8.223   4.240  0.00  0.00    +0.003 A 
ATOM     23  C   UNL     1      12.988   8.083   5.633  0.00  0.00    -0.033 A 
ATOM     24  C   UNL     1      14.093   7.271   6.239  0.00  0.00    +0.059 C 
ATOM     25  C   UNL     1      15.359   7.445   5.409  0.00  0.00    +0.146 C 
ATOM     26  C   UNL     1      11.913   8.948   3.634  0.00  0.00    +0.059 A 
ATOM     27  C   UNL     1      11.981   8.653   6.417  0.00  0.00    +0.053 A 
ATOM     28  C   UNL     1      10.921   9.526   4.427  0.00  0.00    +0.162 A 
ATOM     29  C   UNL     1      10.953   9.377   5.814  0.00  0.00    +0.162 A 
BRANCH  28   7
ATOM      7  O   UNL     1       9.921  10.235   3.832  0.00  0.00    -0.491 OA
ATOM     36  C   UNL     1       9.453   9.762   2.571  0.00  0.00    +0.277 C 
ENDBRANCH  28   7
BRANCH  29   8
ATOM      8  O   UNL     1       9.982   9.933   6.591  0.00  0.00    -0.491 OA
ATOM     37  C   UNL     1      10.007   9.618   7.983  0.00  0.00    +0.277 C 
ENDBRANCH  29   8
ENDBRANCH  17  19
ENDBRANCH  12  17
BRANCH  13  18
ATOM     18  C   UNL     1      15.162   6.966  -0.723  0.00  0.00    +0.124 C 
BRANCH  18  22
ATOM      6  O   UNL     1      17.435   7.834  -0.868  0.00  0.00    -0.251 OA
ATOM     22  C   UNL     1      16.664   6.896  -0.734  0.00  0.00    +0.305 C 
BRANCH  22   4
ATOM      4  O   UNL     1      17.062   5.608  -0.570  0.00  0.00    -0.481 OA
ATOM     40  H   UNL     1      17.991   5.473  -0.857  0.00  0.00    +0.295 HD
ENDBRANCH  22   4
ENDBRANCH  18  22
ENDBRANCH  13  18
TORSDOF 9
ENDMDL
MODEL 5
REMARK VINA RESULT:      -7.0      4.013      7.083
REMARK  Name = 51136629
REMARK  11 active torsions:
REMARK  status: ('A' for Active; 'I' for Inactive)
REMARK    1  A    between atoms: O_4  and  C_22
REMARK    2  A    between atoms: O_7  and  C_28
REMARK    3  A    between atoms: O_7  and  C_36
REMARK    4  A    between atoms: O_8  and  C_29
REMARK    5  A    between atoms: O_8  and  C_37
REMARK    6  A    between atoms: N_11  and  C_30
REMARK    7  A    between atoms: C_12  and  C_17
REMARK    8  A    between atoms: C_13  and  C_18
REMARK    9  A    between atoms: C_17  and  C_19
REMARK   10  A    between atoms: C_18  and  C_22
REMARK   11  A    between atoms: C_33  and  C_38
REMARK                            x       y       z     vdW  Elec       q    Type
REMARK                         _______ _______ _______ _____ _____    ______ ____
ROOT
ATOM      5  O   UNL     1      11.668  13.390  20.088  0.00  0.00    -0.252 OA
ATOM      9  N   UNL     1      13.062  13.870  21.869  0.00  0.00    -0.285 N 
ATOM     11  N   UNL     1      13.891  12.737  19.974  0.00  0.00    -0.269 N 
ATOM     12  C   UNL     1      14.288  13.154  23.902  0.00  0.00    +0.016 C 
ATOM     13  C   UNL     1      13.148  13.763  24.760  0.00  0.00    +0.006 C 
ATOM     14  C   UNL     1      11.817  13.816  23.989  0.00  0.00    +0.023 C 
ATOM     15  C   UNL     1      14.364  13.889  22.553  0.00  0.00    +0.113 C 
ATOM     16  C   UNL     1      11.983  14.499  22.632  0.00  0.00    +0.109 C 
ATOM     20  C   UNL     1      12.794  13.339  20.589  0.00  0.00    +0.306 C 
ATOM     39  H   UNL     1      14.819  13.075  20.199  0.00  0.00    +0.156 HD
ENDROOT
BRANCH  11  30
ATOM     30  C   UNL     1      13.875  11.661  19.052  0.00  0.00    +0.035 A 
ATOM     31  C   UNL     1      12.874  10.692  19.125  0.00  0.00    +0.035 A 
ATOM     32  C   UNL     1      14.862  11.572  18.069  0.00  0.00    +0.023 A 
ATOM     33  C   UNL     1      12.860   9.634  18.218  0.00  0.00    +0.057 A 
ATOM     34  C   UNL     1      14.847  10.513  17.161  0.00  0.00    +0.002 A 
ATOM     35  C   UNL     1      13.846   9.544  17.234  0.00  0.00    +0.012 A 
BRANCH  33  38
ATOM      1  F   UNL     1      12.286   7.348  18.532  0.00  0.00    -0.166 F 
ATOM      2  F   UNL     1      10.880   8.825  19.290  0.00  0.00    -0.166 F 
ATOM      3  F   UNL     1      11.050   8.488  17.153  0.00  0.00    -0.166 F 
ATOM     38  C   UNL     1      11.790   8.597  18.296  0.00  0.00    +0.417 C 
ENDBRANCH  33  38
ENDBRANCH  11  30
BRANCH  12  17
ATOM     17  C   UNL     1      14.166  11.641  23.683  0.00  0.00    +0.061 C 
BRANCH  17  19
ATOM     10  N   UNL     1      16.476  11.794  23.041  0.00  0.00    -0.287 NA
ATOM     19  C   UNL     1      15.370  11.133  22.928  0.00  0.00    +0.044 C 
ATOM     21  C   UNL     1      15.229   9.913  22.093  0.00  0.00    +0.003 A 
ATOM     23  C   UNL     1      16.218   9.693  21.126  0.00  0.00    -0.033 A 
ATOM     24  C   UNL     1      17.325  10.694  20.986  0.00  0.00    +0.059 C 
ATOM     25  C   UNL     1      17.661  11.267  22.357  0.00  0.00    +0.146 C 
ATOM     26  C   UNL     1      14.166   9.019  22.236  0.00  0.00    +0.059 A 
ATOM     27  C   UNL     1      16.121   8.583  20.281  0.00  0.00    +0.053 A 
ATOM     28  C   UNL     1      14.087   7.905  21.399  0.00  0.00    +0.162 A 
ATOM     29  C   UNL     1      15.059   7.690  20.422  0.00  0.00    +0.162 A 
BRANCH  28   7
ATOM      7  O   UNL     1      13.049   7.035  21.543  0.00  0.00    -0.491 OA
ATOM     36  C   UNL     1      11.800   7.580  21.964  0.00  0.00    +0.277 C 
ENDBRANCH  28   7
BRANCH  29   8
ATOM      8  O   UNL     1      14.981   6.608  19.596  0.00  0.00    -0.491 OA
ATOM     37  C   UNL     1      16.185   6.203  18.945  0.00  0.00    +0.277 C 
ENDBRANCH  29   8
ENDBRANCH  17  19
ENDBRANCH  12  17
BRANCH  13  18
ATOM     18  C   UNL     1      12.964  13.055  26.103  0.00  0.00    +0.124 C 
BRANCH  18  22
ATOM      6  O   UNL     1      14.338  14.722  27.231  0.00  0.00    -0.251 OA
ATOM     22  C   UNL     1      13.918  13.579  27.141  0.00  0.00    +0.305 C 
BRANCH  22   4
ATOM      4  O   UNL     1      14.262  12.578  27.992  0.00  0.00    -0.481 OA
ATOM     40  H   UNL     1      13.889  11.715  27.710  0.00  0.00    +0.295 HD
ENDBRANCH  22   4
ENDBRANCH  18  22
ENDBRANCH  13  18
TORSDOF 9
ENDMDL
MODEL 6
REMARK VINA RESULT:      -7.0      2.059      5.895
REMARK  Name = 51136629
REMARK  11 active torsions:
REMARK  status: ('A' for Active; 'I' for Inactive)
REMARK    1  A    between atoms: O_4  and  C_22
REMARK    2  A    between atoms: O_7  and  C_28
REMARK    3  A    between atoms: O_7  and  C_36
REMARK    4  A    between atoms: O_8  and  C_29
REMARK    5  A    between atoms: O_8  and  C_37
REMARK    6  A    between atoms: N_11  and  C_30
REMARK    7  A    between atoms: C_12  and  C_17
REMARK    8  A    between atoms: C_13  and  C_18
REMARK    9  A    between atoms: C_17  and  C_19
REMARK   10  A    between atoms: C_18  and  C_22
REMARK   11  A    between atoms: C_33  and  C_38
REMARK                            x       y       z     vdW  Elec       q    Type
REMARK                         _______ _______ _______ _____ _____    ______ ____
ROOT
ATOM      5  O   UNL     1      16.058  13.660  23.309  0.00  0.00    -0.252 OA
ATOM      9  N   UNL     1      17.234  12.320  21.836  0.00  0.00    -0.285 N 
ATOM     11  N   UNL     1      14.958  12.807  21.453  0.00  0.00    -0.269 N 
ATOM     12  C   UNL     1      17.794  10.077  20.939  0.00  0.00    +0.016 C 
ATOM     13  C   UNL     1      19.088  10.098  21.796  0.00  0.00    +0.006 C 
ATOM     14  C   UNL     1      18.946  11.015  23.024  0.00  0.00    +0.023 C 
ATOM     15  C   UNL     1      17.374  11.520  20.610  0.00  0.00    +0.113 C 
ATOM     16  C   UNL     1      18.461  12.409  22.629  0.00  0.00    +0.109 C 
ATOM     20  C   UNL     1      16.071  12.992  22.272  0.00  0.00    +0.306 C 
ATOM     39  H   UNL     1      15.106  12.635  20.466  0.00  0.00    +0.156 HD
ENDROOT
BRANCH  11  30
ATOM     30  C   UNL     1      13.595  12.811  21.842  0.00  0.00    +0.035 A 
ATOM     31  C   UNL     1      13.233  12.392  23.123  0.00  0.00    +0.035 A 
ATOM     32  C   UNL     1      12.615  13.236  20.944  0.00  0.00    +0.023 A 
ATOM     33  C   UNL     1      11.892  12.396  23.505  0.00  0.00    +0.057 A 
ATOM     34  C   UNL     1      11.275  13.240  21.326  0.00  0.00    +0.002 A 
ATOM     35  C   UNL     1      10.912  12.821  22.607  0.00  0.00    +0.012 A 
BRANCH  33  38
ATOM      1  F   UNL     1      12.544  11.989  25.754  0.00  0.00    -0.166 F 
ATOM      2  F   UNL     1      10.515  12.704  25.437  0.00  0.00    -0.166 F 
ATOM      3  F   UNL     1      11.038  10.664  24.915  0.00  0.00    -0.166 F 
ATOM     38  C   UNL     1      11.504  11.947  24.873  0.00  0.00    +0.417 C 
ENDBRANCH  33  38
ENDBRANCH  11  30
BRANCH  12  17
ATOM     17  C   UNL     1      16.631   9.312  21.581  0.00  0.00    +0.061 C 
BRANCH  17  19
ATOM     10  N   UNL     1      16.991   7.301  20.317  0.00  0.00    -0.287 NA
ATOM     19  C   UNL     1      16.152   8.228  20.646  0.00  0.00    +0.044 C 
ATOM     21  C   UNL     1      14.754   8.280  20.146  0.00  0.00    +0.003 A 
ATOM     23  C   UNL     1      14.461   7.514  19.012  0.00  0.00    -0.033 A 
ATOM     24  C   UNL     1      15.560   6.717  18.376  0.00  0.00    +0.059 C 
ATOM     25  C   UNL     1      16.509   6.215  19.458  0.00  0.00    +0.146 C 
ATOM     26  C   UNL     1      13.765   9.058  20.752  0.00  0.00    +0.059 A 
ATOM     27  C   UNL     1      13.173   7.551  18.468  0.00  0.00    +0.053 A 
ATOM     28  C   UNL     1      12.478   9.076  20.211  0.00  0.00    +0.162 A 
ATOM     29  C   UNL     1      12.184   8.328  19.071  0.00  0.00    +0.162 A 
BRANCH  28   7
ATOM      7  O   UNL     1      11.516   9.835  20.806  0.00  0.00    -0.491 OA
ATOM     36  C   UNL     1      10.825   9.256  21.911  0.00  0.00    +0.277 C 
ENDBRANCH  28   7
BRANCH  29   8
ATOM      8  O   UNL     1      10.931   8.348  18.535  0.00  0.00    -0.491 OA
ATOM     37  C   UNL     1      10.834   8.533  17.124  0.00  0.00    +0.277 C 
ENDBRANCH  29   8
ENDBRANCH  17  19
ENDBRANCH  12  17
BRANCH  13  18
ATOM     18  C   UNL     1      19.551   8.703  22.216  0.00  0.00    +0.124 C 
BRANCH  18  22
ATOM      6  O   UNL     1      21.524   8.537  20.795  0.00  0.00    -0.251 OA
ATOM     22  C   UNL     1      20.459   8.087  21.188  0.00  0.00    +0.305 C 
BRANCH  22   4
ATOM      4  O   UNL     1      19.917   6.926  20.737  0.00  0.00    -0.481 OA
ATOM     40  H   UNL     1      19.966   6.214  21.411  0.00  0.00    +0.295 HD
ENDBRANCH  22   4
ENDBRANCH  18  22
ENDBRANCH  13  18
TORSDOF 9
ENDMDL
MODEL 7
REMARK VINA RESULT:      -7.0     28.384     31.683
REMARK  Name = 51136629
REMARK  11 active torsions:
REMARK  status: ('A' for Active; 'I' for Inactive)
REMARK    1  A    between atoms: O_4  and  C_22
REMARK    2  A    between atoms: O_7  and  C_28
REMARK    3  A    between atoms: O_7  and  C_36
REMARK    4  A    between atoms: O_8  and  C_29
REMARK    5  A    between atoms: O_8  and  C_37
REMARK    6  A    between atoms: N_11  and  C_30
REMARK    7  A    between atoms: C_12  and  C_17
REMARK    8  A    between atoms: C_13  and  C_18
REMARK    9  A    between atoms: C_17  and  C_19
REMARK   10  A    between atoms: C_18  and  C_22
REMARK   11  A    between atoms: C_33  and  C_38
REMARK                            x       y       z     vdW  Elec       q    Type
REMARK                         _______ _______ _______ _____ _____    ______ ____
ROOT
ATOM      5  O   UNL     1      -2.048 -10.838  15.485  0.00  0.00    -0.252 OA
ATOM      9  N   UNL     1      -4.098 -11.690  16.131  0.00  0.00    -0.285 N 
ATOM     11  N   UNL     1      -3.567 -11.459  13.845  0.00  0.00    -0.269 N 
ATOM     12  C   UNL     1      -6.537 -11.409  16.479  0.00  0.00    +0.016 C 
ATOM     13  C   UNL     1      -6.260 -11.198  17.991  0.00  0.00    +0.006 C 
ATOM     14  C   UNL     1      -4.836 -10.671  18.244  0.00  0.00    +0.023 C 
ATOM     15  C   UNL     1      -5.421 -12.275  15.869  0.00  0.00    +0.113 C 
ATOM     16  C   UNL     1      -3.786 -11.541  17.554  0.00  0.00    +0.109 C 
ATOM     20  C   UNL     1      -3.145 -11.302  15.165  0.00  0.00    +0.306 C 
ATOM     39  H   UNL     1      -4.236 -12.190  13.634  0.00  0.00    +0.156 HD
ENDROOT
BRANCH  11  30
ATOM     30  C   UNL     1      -3.179 -10.688  12.721  0.00  0.00    +0.035 A 
ATOM     31  C   UNL     1      -4.141 -10.227  11.823  0.00  0.00    +0.035 A 
ATOM     32  C   UNL     1      -1.831 -10.390  12.514  0.00  0.00    +0.023 A 
ATOM     33  C   UNL     1      -3.757  -9.469  10.717  0.00  0.00    +0.057 A 
ATOM     34  C   UNL     1      -1.448  -9.631  11.408  0.00  0.00    +0.002 A 
ATOM     35  C   UNL     1      -2.410  -9.170  10.510  0.00  0.00    +0.012 A 
BRANCH  33  38
ATOM      1  F   UNL     1      -4.352  -9.003   8.463  0.00  0.00    -0.166 F 
ATOM      2  F   UNL     1      -5.942  -9.705   9.771  0.00  0.00    -0.166 F 
ATOM      3  F   UNL     1      -5.175  -7.686   9.986  0.00  0.00    -0.166 F 
ATOM     38  C   UNL     1      -4.786  -8.976   9.756  0.00  0.00    +0.417 C 
ENDBRANCH  33  38
ENDBRANCH  11  30
BRANCH  12  17
ATOM     17  C   UNL     1      -6.701 -10.108  15.685  0.00  0.00    +0.061 C 
BRANCH  17  19
ATOM     10  N   UNL     1      -7.390 -10.994  13.562  0.00  0.00    -0.287 NA
ATOM     19  C   UNL     1      -7.729 -10.297  14.597  0.00  0.00    +0.044 C 
ATOM     21  C   UNL     1      -9.066  -9.672  14.759  0.00  0.00    +0.003 A 
ATOM     23  C   UNL     1      -9.842  -9.534  13.602  0.00  0.00    -0.033 A 
ATOM     24  C   UNL     1      -9.277 -10.001  12.294  0.00  0.00    +0.059 C 
ATOM     25  C   UNL     1      -8.407 -11.229  12.533  0.00  0.00    +0.146 C 
ATOM     26  C   UNL     1      -9.545  -9.224  15.991  0.00  0.00    +0.059 A 
ATOM     27  C   UNL     1     -11.095  -8.917  13.681  0.00  0.00    +0.053 A 
ATOM     28  C   UNL     1     -10.804  -8.625  16.063  0.00  0.00    +0.162 A 
ATOM     29  C   UNL     1     -11.574  -8.468  14.911  0.00  0.00    +0.162 A 
BRANCH  28   7
ATOM      7  O   UNL     1     -11.268  -8.190  17.268  0.00  0.00    -0.491 OA
ATOM     36  C   UNL     1     -11.825  -9.172  18.140  0.00  0.00    +0.277 C 
ENDBRANCH  28   7
BRANCH  29   8
ATOM      8  O   UNL     1     -12.800  -7.876  14.975  0.00  0.00    -0.491 OA
ATOM     37  C   UNL     1     -13.005  -6.722  14.161  0.00  0.00    +0.277 C 
ENDBRANCH  29   8
ENDBRANCH  17  19
ENDBRANCH  12  17
BRANCH  13  18
ATOM     18  C   UNL     1      -7.295 -10.301  18.670  0.00  0.00    +0.124 C 
BRANCH  18  22
ATOM      6  O   UNL     1      -7.893 -12.190  20.088  0.00  0.00    -0.251 OA
ATOM     22  C   UNL     1      -8.110 -11.060  19.679  0.00  0.00    +0.305 C 
BRANCH  22   4
ATOM      4  O   UNL     1      -9.156 -10.297  20.089  0.00  0.00    -0.481 OA
ATOM     40  H   UNL     1      -9.501  -9.730  19.366  0.00  0.00    +0.295 HD
ENDBRANCH  22   4
ENDBRANCH  18  22
ENDBRANCH  13  18
TORSDOF 9
ENDMDL
MODEL 8
REMARK VINA RESULT:      -7.0     29.151     31.125
REMARK  Name = 51136629
REMARK  11 active torsions:
REMARK  status: ('A' for Active; 'I' for Inactive)
REMARK    1  A    between atoms: O_4  and  C_22
REMARK    2  A    between atoms: O_7  and  C_28
REMARK    3  A    between atoms: O_7  and  C_36
REMARK    4  A    between atoms: O_8  and  C_29
REMARK    5  A    between atoms: O_8  and  C_37
REMARK    6  A    between atoms: N_11  and  C_30
REMARK    7  A    between atoms: C_12  and  C_17
REMARK    8  A    between atoms: C_13  and  C_18
REMARK    9  A    between atoms: C_17  and  C_19
REMARK   10  A    between atoms: C_18  and  C_22
REMARK   11  A    between atoms: C_33  and  C_38
REMARK                            x       y       z     vdW  Elec       q    Type
REMARK                         _______ _______ _______ _____ _____    ______ ____
ROOT
ATOM      5  O   UNL     1      -8.215 -10.858  17.626  0.00  0.00    -0.252 OA
ATOM      9  N   UNL     1      -6.104 -10.513  16.747  0.00  0.00    -0.285 N 
ATOM     11  N   UNL     1      -7.890  -9.087  16.162  0.00  0.00    -0.269 N 
ATOM     12  C   UNL     1      -4.495 -10.688  14.869  0.00  0.00    +0.016 C 
ATOM     13  C   UNL     1      -3.898 -11.950  15.547  0.00  0.00    +0.006 C 
ATOM     14  C   UNL     1      -4.923 -12.649  16.459  0.00  0.00    +0.023 C 
ATOM     15  C   UNL     1      -5.119  -9.777  15.940  0.00  0.00    +0.113 C 
ATOM     16  C   UNL     1      -5.549 -11.670  17.451  0.00  0.00    +0.109 C 
ATOM     20  C   UNL     1      -7.469 -10.189  16.906  0.00  0.00    +0.306 C 
ATOM     39  H   UNL     1      -7.217  -8.360  15.951  0.00  0.00    +0.156 HD
ENDROOT
BRANCH  11  30
ATOM     30  C   UNL     1      -9.182  -8.852  15.631  0.00  0.00    +0.035 A 
ATOM     31  C   UNL     1      -9.862  -7.674  15.941  0.00  0.00    +0.035 A 
ATOM     32  C   UNL     1      -9.775  -9.800  14.796  0.00  0.00    +0.023 A 
ATOM     33  C   UNL     1     -11.134  -7.443  15.418  0.00  0.00    +0.057 A 
ATOM     34  C   UNL     1     -11.047  -9.569  14.273  0.00  0.00    +0.002 A 
ATOM     35  C   UNL     1     -11.727  -8.391  14.583  0.00  0.00    +0.012 A 
BRANCH  33  38
ATOM      1  F   UNL     1     -11.309  -5.522  16.807  0.00  0.00    -0.166 F 
ATOM      2  F   UNL     1     -11.888  -5.282  14.725  0.00  0.00    -0.166 F 
ATOM      3  F   UNL     1     -13.171  -6.383  16.085  0.00  0.00    -0.166 F 
ATOM     38  C   UNL     1     -11.861  -6.185  15.750  0.00  0.00    +0.417 C 
ENDBRANCH  33  38
ENDBRANCH  11  30
BRANCH  12  17
ATOM     17  C   UNL     1      -5.514 -10.994  13.765  0.00  0.00    +0.061 C 
BRANCH  17  19
ATOM     10  N   UNL     1      -3.762 -10.532  12.189  0.00  0.00    -0.287 NA
ATOM     19  C   UNL     1      -5.025 -10.442  12.448  0.00  0.00    +0.044 C 
ATOM     21  C   UNL     1      -6.008  -9.821  11.524  0.00  0.00    +0.003 A 
ATOM     23  C   UNL     1      -5.492  -8.992  10.520  0.00  0.00    -0.033 A 
ATOM     24  C   UNL     1      -4.010  -8.776  10.454  0.00  0.00    +0.059 C 
ATOM     25  C   UNL     1      -3.296 -10.052  10.884  0.00  0.00    +0.146 C 
ATOM     26  C   UNL     1      -7.384 -10.025  11.637  0.00  0.00    +0.059 A 
ATOM     27  C   UNL     1      -6.368  -8.345   9.643  0.00  0.00    +0.053 A 
ATOM     28  C   UNL     1      -8.249  -9.388  10.746  0.00  0.00    +0.162 A 
ATOM     29  C   UNL     1      -7.743  -8.548   9.754  0.00  0.00    +0.162 A 
BRANCH  28   7
ATOM      7  O   UNL     1      -9.592  -9.592  10.859  0.00  0.00    -0.491 OA
ATOM     36  C   UNL     1     -10.033 -10.940  11.004  0.00  0.00    +0.277 C 
ENDBRANCH  28   7
BRANCH  29   8
ATOM      8  O   UNL     1      -8.584  -7.917   8.888  0.00  0.00    -0.491 OA
ATOM     37  C   UNL     1      -7.994  -7.013   7.955  0.00  0.00    +0.277 C 
ENDBRANCH  29   8
ENDBRANCH  17  19
ENDBRANCH  12  17
BRANCH  13  18
ATOM     18  C   UNL     1      -3.301 -12.941  14.548  0.00  0.00    +0.124 C 
BRANCH  18  22
ATOM      6  O   UNL     1      -1.132 -11.845  14.732  0.00  0.00    -0.251 OA
ATOM     22  C   UNL     1      -1.930 -12.518  14.098  0.00  0.00    +0.305 C 
BRANCH  22   4
ATOM      4  O   UNL     1      -1.690 -12.998  12.851  0.00  0.00    -0.481 OA
ATOM     40  H   UNL     1      -2.522 -13.178  12.362  0.00  0.00    +0.295 HD
ENDBRANCH  22   4
ENDBRANCH  18  22
ENDBRANCH  13  18
TORSDOF 9
ENDMDL
MODEL 9
REMARK VINA RESULT:      -6.9     28.514     31.214
REMARK  Name = 51136629
REMARK  11 active torsions:
REMARK  status: ('A' for Active; 'I' for Inactive)
REMARK    1  A    between atoms: O_4  and  C_22
REMARK    2  A    between atoms: O_7  and  C_28
REMARK    3  A    between atoms: O_7  and  C_36
REMARK    4  A    between atoms: O_8  and  C_29
REMARK    5  A    between atoms: O_8  and  C_37
REMARK    6  A    between atoms: N_11  and  C_30
REMARK    7  A    between atoms: C_12  and  C_17
REMARK    8  A    between atoms: C_13  and  C_18
REMARK    9  A    between atoms: C_17  and  C_19
REMARK   10  A    between atoms: C_18  and  C_22
REMARK   11  A    between atoms: C_33  and  C_38
REMARK                            x       y       z     vdW  Elec       q    Type
REMARK                         _______ _______ _______ _____ _____    ______ ____
ROOT
ATOM      5  O   UNL     1      -3.935 -14.508  10.798  0.00  0.00    -0.252 OA
ATOM      9  N   UNL     1      -3.420 -12.257  10.676  0.00  0.00    -0.285 N 
ATOM     11  N   UNL     1      -2.692 -13.551  12.508  0.00  0.00    -0.269 N 
ATOM     12  C   UNL     1      -3.813  -9.914  11.382  0.00  0.00    +0.016 C 
ATOM     13  C   UNL     1      -4.627  -9.696  10.079  0.00  0.00    +0.006 C 
ATOM     14  C   UNL     1      -5.214 -11.015   9.544  0.00  0.00    +0.023 C 
ATOM     15  C   UNL     1      -2.775 -11.027  11.159  0.00  0.00    +0.113 C 
ATOM     16  C   UNL     1      -4.140 -12.093   9.412  0.00  0.00    +0.109 C 
ATOM     20  C   UNL     1      -3.378 -13.525  11.295  0.00  0.00    +0.306 C 
ATOM     39  H   UNL     1      -1.938 -12.891  12.653  0.00  0.00    +0.156 HD
ENDROOT
BRANCH  11  30
ATOM     30  C   UNL     1      -2.934 -14.404  13.614  0.00  0.00    +0.035 A 
ATOM     31  C   UNL     1      -3.926 -14.083  14.541  0.00  0.00    +0.035 A 
ATOM     32  C   UNL     1      -2.180 -15.567  13.775  0.00  0.00    +0.023 A 
ATOM     33  C   UNL     1      -4.164 -14.923  15.628  0.00  0.00    +0.057 A 
ATOM     34  C   UNL     1      -2.418 -16.407  14.862  0.00  0.00    +0.002 A 
ATOM     35  C   UNL     1      -3.410 -16.086  15.789  0.00  0.00    +0.012 A 
BRANCH  33  38
ATOM      1  F   UNL     1      -4.712 -14.214  17.831  0.00  0.00    -0.166 F 
ATOM      2  F   UNL     1      -6.021 -13.541  16.230  0.00  0.00    -0.166 F 
ATOM      3  F   UNL     1      -6.083 -15.610  16.880  0.00  0.00    -0.166 F 
ATOM     38  C   UNL     1      -5.223 -14.580  16.619  0.00  0.00    +0.417 C 
ENDBRANCH  33  38
ENDBRANCH  11  30
BRANCH  12  17
ATOM     17  C   UNL     1      -4.673 -10.221  12.613  0.00  0.00    +0.061 C 
BRANCH  17  19
ATOM     10  N   UNL     1      -2.518 -10.382  13.660  0.00  0.00    -0.287 NA
ATOM     19  C   UNL     1      -3.797 -10.330  13.837  0.00  0.00    +0.044 C 
ATOM     21  C   UNL     1      -4.440 -10.380  15.175  0.00  0.00    +0.003 A 
ATOM     23  C   UNL     1      -3.658 -10.861  16.233  0.00  0.00    -0.033 A 
ATOM     24  C   UNL     1      -2.254 -11.303  15.949  0.00  0.00    +0.059 C 
ATOM     25  C   UNL     1      -1.664 -10.426  14.851  0.00  0.00    +0.146 C 
ATOM     26  C   UNL     1      -5.761  -9.984  15.393  0.00  0.00    +0.059 A 
ATOM     27  C   UNL     1      -4.218 -10.970  17.510  0.00  0.00    +0.053 A 
ATOM     28  C   UNL     1      -6.306 -10.082  16.675  0.00  0.00    +0.162 A 
ATOM     29  C   UNL     1      -5.538 -10.576  17.729  0.00  0.00    +0.162 A 
BRANCH  28   7
ATOM      7  O   UNL     1      -7.595  -9.693  16.883  0.00  0.00    -0.491 OA
ATOM     36  C   UNL     1      -8.554 -10.074  15.898  0.00  0.00    +0.277 C 
ENDBRANCH  28   7
BRANCH  29   8
ATOM      8  O   UNL     1      -6.067 -10.681  18.980  0.00  0.00    -0.491 OA
ATOM     37  C   UNL     1      -6.725 -11.905  19.304  0.00  0.00    +0.277 C 
ENDBRANCH  29   8
ENDBRANCH  17  19
ENDBRANCH  12  17
BRANCH  13  18
ATOM     18  C   UNL     1      -5.722  -8.639  10.226  0.00  0.00    +0.124 C 
BRANCH  18  22
ATOM      6  O   UNL     1      -7.935  -9.143   9.338  0.00  0.00    -0.251 OA
ATOM     22  C   UNL     1      -6.780  -8.786   9.167  0.00  0.00    +0.305 C 
BRANCH  22   4
ATOM      4  O   UNL     1      -6.261  -8.458   7.956  0.00  0.00    -0.481 OA
ATOM     40  H   UNL     1      -6.510  -7.548   7.685  0.00  0.00    +0.295 HD
ENDBRANCH  22   4
ENDBRANCH  18  22
ENDBRANCH  13  18
TORSDOF 9
ENDMDL
MODEL 10
REMARK VINA RESULT:      -6.9     28.556     31.318
REMARK  Name = 51136629
REMARK  11 active torsions:
REMARK  status: ('A' for Active; 'I' for Inactive)
REMARK    1  A    between atoms: O_4  and  C_22
REMARK    2  A    between atoms: O_7  and  C_28
REMARK    3  A    between atoms: O_7  and  C_36
REMARK    4  A    between atoms: O_8  and  C_29
REMARK    5  A    between atoms: O_8  and  C_37
REMARK    6  A    between atoms: N_11  and  C_30
REMARK    7  A    between atoms: C_12  and  C_17
REMARK    8  A    between atoms: C_13  and  C_18
REMARK    9  A    between atoms: C_17  and  C_19
REMARK   10  A    between atoms: C_18  and  C_22
REMARK   11  A    between atoms: C_33  and  C_38
REMARK                            x       y       z     vdW  Elec       q    Type
REMARK                         _______ _______ _______ _____ _____    ______ ____
ROOT
ATOM      5  O   UNL     1      -7.305 -11.738  20.222  0.00  0.00    -0.252 OA
ATOM      9  N   UNL     1      -6.079 -10.541  18.669  0.00  0.00    -0.285 N 
ATOM     11  N   UNL     1      -8.421 -10.292  18.791  0.00  0.00    -0.269 N 
ATOM     12  C   UNL     1      -5.300 -10.195  16.341  0.00  0.00    +0.016 C 
ATOM     13  C   UNL     1      -3.959 -10.874  16.728  0.00  0.00    +0.006 C 
ATOM     14  C   UNL     1      -4.127 -11.834  17.919  0.00  0.00    +0.023 C 
ATOM     15  C   UNL     1      -5.929  -9.554  17.590  0.00  0.00    +0.113 C 
ATOM     16  C   UNL     1      -4.818 -11.149  19.097  0.00  0.00    +0.109 C 
ATOM     20  C   UNL     1      -7.283 -10.911  19.307  0.00  0.00    +0.306 C 
ATOM     39  H   UNL     1      -8.327  -9.372  18.379  0.00  0.00    +0.156 HD
ENDROOT
BRANCH  11  30
ATOM     30  C   UNL     1      -9.740 -10.810  18.755  0.00  0.00    +0.035 A 
ATOM     31  C   UNL     1     -10.737 -10.242  19.549  0.00  0.00    +0.035 A 
ATOM     32  C   UNL     1     -10.041 -11.890  17.924  0.00  0.00    +0.023 A 
ATOM     33  C   UNL     1     -12.033 -10.754  19.513  0.00  0.00    +0.057 A 
ATOM     34  C   UNL     1     -11.338 -12.401  17.888  0.00  0.00    +0.002 A 
ATOM     35  C   UNL     1     -12.335 -11.833  18.682  0.00  0.00    +0.012 A 
BRANCH  33  38
ATOM      1  F   UNL     1     -14.079  -9.547  19.627  0.00  0.00    -0.166 F 
ATOM      2  F   UNL     1     -13.741 -11.050  21.162  0.00  0.00    -0.166 F 
ATOM      3  F   UNL     1     -12.637  -9.184  21.214  0.00  0.00    -0.166 F 
ATOM     38  C   UNL     1     -13.099 -10.147  20.362  0.00  0.00    +0.417 C 
ENDBRANCH  33  38
ENDBRANCH  11  30
BRANCH  12  17
ATOM     17  C   UNL     1      -6.302 -11.132  15.656  0.00  0.00    +0.061 C 
BRANCH  17  19
ATOM     10  N   UNL     1      -8.408 -10.029  15.316  0.00  0.00    -0.287 NA
ATOM     19  C   UNL     1      -7.258 -10.330  14.808  0.00  0.00    +0.044 C 
ATOM     21  C   UNL     1      -6.841  -9.934  13.439  0.00  0.00    +0.003 A 
ATOM     23  C   UNL     1      -7.857  -9.545  12.557  0.00  0.00    -0.033 A 
ATOM     24  C   UNL     1      -9.277  -9.569  13.038  0.00  0.00    +0.059 C 
ATOM     25  C   UNL     1      -9.313  -9.198  14.516  0.00  0.00    +0.146 C 
ATOM     26  C   UNL     1      -5.509  -9.953  13.021  0.00  0.00    +0.059 A 
ATOM     27  C   UNL     1      -7.534  -9.199  11.242  0.00  0.00    +0.053 A 
ATOM     28  C   UNL     1      -5.194  -9.590  11.710  0.00  0.00    +0.162 A 
ATOM     29  C   UNL     1      -6.204  -9.218  10.822  0.00  0.00    +0.162 A 
BRANCH  28   7
ATOM      7  O   UNL     1      -3.893  -9.608  11.307  0.00  0.00    -0.491 OA
ATOM     36  C   UNL     1      -3.335 -10.877  10.973  0.00  0.00    +0.277 C 
ENDBRANCH  28   7
BRANCH  29   8
ATOM      8  O   UNL     1      -5.903  -8.870   9.539  0.00  0.00    -0.491 OA
ATOM     37  C   UNL     1      -6.181  -9.835   8.526  0.00  0.00    +0.277 C 
ENDBRANCH  29   8
ENDBRANCH  17  19
ENDBRANCH  12  17
BRANCH  13  18
ATOM     18  C   UNL     1      -3.288 -11.586  15.553  0.00  0.00    +0.124 C 
BRANCH  18  22
ATOM      6  O   UNL     1      -1.817 -10.296  14.100  0.00  0.00    -0.251 OA
ATOM     22  C   UNL     1      -2.014 -10.899  15.143  0.00  0.00    +0.305 C 
BRANCH  22   4
ATOM      4  O   UNL     1      -1.082 -11.046  16.119  0.00  0.00    -0.481 OA
ATOM     40  H   UNL     1      -1.486 -11.048  17.014  0.00  0.00    +0.295 HD
ENDBRANCH  22   4
ENDBRANCH  18  22
ENDBRANCH  13  18
TORSDOF 9
ENDMDL
