MODEL 1
REMARK VINA RESULT:      -8.0      0.000      0.000
REMARK  Name = 26763084
REMARK  8 active torsions:
REMARK  status: ('A' for Active; 'I' for Inactive)
REMARK    1  A    between atoms: O_3  and  C_23
REMARK    2  A    between atoms: O_3  and  C_28
REMARK    3  A    between atoms: N_7  and  C_11
REMARK    4  A    between atoms: C_10  and  C_15
REMARK    5  A    between atoms: C_15  and  C_17
REMARK    6  A    between atoms: C_17  and  C_20
REMARK    7  A    between atoms: C_18  and  C_23
REMARK    8  A    between atoms: C_24  and  C_25
REMARK                            x       y       z     vdW  Elec       q    Type
REMARK                         _______ _______ _______ _____ _____    ______ ____
ROOT
ATOM      1  O   UNL     1      11.188   8.400  18.214  0.00  0.00    -0.274 OA
ATOM      5  N   UNL     1      13.379   6.814  20.640  0.00  0.00    -0.285 NA
ATOM      6  N   UNL     1      13.456   8.228  18.220  0.00  0.00    -0.313 N 
ATOM      9  C   UNL     1      12.129   6.948  19.887  0.00  0.00    +0.145 C 
ATOM     10  C   UNL     1      14.557   6.677  19.789  0.00  0.00    +0.075 C 
ATOM     11  C   UNL     1      11.953   7.833  22.151  0.00  0.00    +0.089 C 
ATOM     12  C   UNL     1      11.114   7.397  20.945  0.00  0.00    +0.052 C 
ATOM     13  C   UNL     1      13.384   7.883  21.632  0.00  0.00    +0.107 C 
ATOM     14  C   UNL     1      14.705   7.872  18.856  0.00  0.00    +0.123 C 
ATOM     16  C   UNL     1      12.211   7.941  18.728  0.00  0.00    +0.230 C 
ATOM     32  H   UNL     1      13.502   8.854  17.423  0.00  0.00    +0.149 HD
ENDROOT
BRANCH  11   7
ATOM      4  O   UNL     1      12.091  10.401  20.882  0.00  0.00    -0.270 OA
ATOM      7  N   UNL     1      11.525   9.086  22.707  0.00  0.00    -0.307 N 
ATOM     24  C   UNL     1      11.631  10.285  22.015  0.00  0.00    +0.244 C 
ATOM     33  H   UNL     1      11.239   9.085  23.680  0.00  0.00    +0.149 HD
BRANCH  24  25
ATOM     25  C   UNL     1      11.169  11.497  22.738  0.00  0.00    +0.037 A 
ATOM     26  C   UNL     1      10.920  12.676  22.037  0.00  0.00    +0.013 A 
ATOM     27  C   UNL     1      10.981  11.455  24.120  0.00  0.00    +0.013 A 
ATOM     29  C   UNL     1      10.484  13.814  22.716  0.00  0.00    +0.001 A 
ATOM     30  C   UNL     1      10.545  12.592  24.800  0.00  0.00    +0.001 A 
ATOM     31  C   UNL     1      10.298  13.772  24.098  0.00  0.00    +0.000 A 
ENDBRANCH  24  25
ENDBRANCH  11   7
BRANCH  10  15
ATOM     15  C   UNL     1      15.838   6.445  20.593  0.00  0.00    +0.029 C 
BRANCH  15  17
ATOM     17  C   UNL     1      17.065   7.027  19.907  0.00  0.00    +0.097 C 
BRANCH  17  20
ATOM      2  O   UNL     1      18.575   5.196  19.713  0.00  0.00    -0.276 OA
ATOM      8  N   UNL     1      19.091   6.830  21.268  0.00  0.00    -0.296 N 
ATOM     18  C   UNL     1      20.279   6.171  21.816  0.00  0.00    +0.102 C 
ATOM     19  C   UNL     1      20.540   6.921  23.124  0.00  0.00    +0.026 C 
ATOM     20  C   UNL     1      18.308   6.257  20.279  0.00  0.00    +0.216 C 
ATOM     21  C   UNL     1      18.814   8.084  21.965  0.00  0.00    +0.108 C 
ATOM     22  C   UNL     1      20.041   8.330  22.829  0.00  0.00    +0.021 C 
BRANCH  18  23
ATOM     23  C   UNL     1      21.460   6.260  20.853  0.00  0.00    +0.181 C 
BRANCH  23   3
ATOM      3  O   UNL     1      21.664   4.986  20.271  0.00  0.00    -0.381 OA
ATOM     28  C   UNL     1      21.577   3.944  21.237  0.00  0.00    +0.194 C 
ENDBRANCH  23   3
ENDBRANCH  18  23
ENDBRANCH  17  20
ENDBRANCH  15  17
ENDBRANCH  10  15
TORSDOF 7
ENDMDL
MODEL 2
REMARK VINA RESULT:      -7.5     28.097     31.525
REMARK  Name = 26763084
REMARK  8 active torsions:
REMARK  status: ('A' for Active; 'I' for Inactive)
REMARK    1  A    between atoms: O_3  and  C_23
REMARK    2  A    between atoms: O_3  and  C_28
REMARK    3  A    between atoms: N_7  and  C_11
REMARK    4  A    between atoms: C_10  and  C_15
REMARK    5  A    between atoms: C_15  and  C_17
REMARK    6  A    between atoms: C_17  and  C_20
REMARK    7  A    between atoms: C_18  and  C_23
REMARK    8  A    between atoms: C_24  and  C_25
REMARK                            x       y       z     vdW  Elec       q    Type
REMARK                         _______ _______ _______ _____ _____    ______ ____
ROOT
ATOM      1  O   UNL     1     -17.216   1.668  22.340  0.00  0.00    -0.274 OA
ATOM      5  N   UNL     1     -17.486   4.144  24.985  0.00  0.00    -0.285 NA
ATOM      6  N   UNL     1     -16.740   1.476  24.556  0.00  0.00    -0.313 N 
ATOM      9  C   UNL     1     -17.894   3.514  23.726  0.00  0.00    +0.145 C 
ATOM     10  C   UNL     1     -17.491   3.226  26.121  0.00  0.00    +0.075 C 
ATOM     11  C   UNL     1     -16.571   5.530  23.375  0.00  0.00    +0.089 C 
ATOM     12  C   UNL     1     -17.503   4.546  22.662  0.00  0.00    +0.052 C 
ATOM     13  C   UNL     1     -16.250   4.867  24.708  0.00  0.00    +0.107 C 
ATOM     14  C   UNL     1     -16.567   2.040  25.876  0.00  0.00    +0.123 C 
ATOM     16  C   UNL     1     -17.232   2.162  23.470  0.00  0.00    +0.230 C 
ATOM     32  H   UNL     1     -16.339   0.558  24.385  0.00  0.00    +0.149 HD
ENDROOT
BRANCH  11   7
ATOM      4  O   UNL     1     -16.328   7.516  21.320  0.00  0.00    -0.270 OA
ATOM      7  N   UNL     1     -15.391   5.835  22.615  0.00  0.00    -0.307 N 
ATOM     24  C   UNL     1     -15.367   6.818  21.635  0.00  0.00    +0.244 C 
ATOM     33  H   UNL     1     -14.590   5.225  22.741  0.00  0.00    +0.149 HD
BRANCH  24  25
ATOM     25  C   UNL     1     -14.077   6.994  20.921  0.00  0.00    +0.037 A 
ATOM     26  C   UNL     1     -12.902   6.475  21.463  0.00  0.00    +0.013 A 
ATOM     27  C   UNL     1     -14.042   7.676  19.705  0.00  0.00    +0.013 A 
ATOM     29  C   UNL     1     -11.691   6.639  20.791  0.00  0.00    +0.001 A 
ATOM     30  C   UNL     1     -12.831   7.841  19.032  0.00  0.00    +0.001 A 
ATOM     31  C   UNL     1     -11.655   7.322  19.576  0.00  0.00    +0.000 A 
ENDBRANCH  24  25
ENDBRANCH  11   7
BRANCH  10  15
ATOM     15  C   UNL     1     -17.153   3.922  27.440  0.00  0.00    +0.029 C 
BRANCH  15  17
ATOM     17  C   UNL     1     -17.077   2.949  28.606  0.00  0.00    +0.097 C 
BRANCH  17  20
ATOM      2  O   UNL     1     -15.162   4.130  29.384  0.00  0.00    -0.276 OA
ATOM      8  N   UNL     1     -15.265   1.865  29.845  0.00  0.00    -0.296 N 
ATOM     18  C   UNL     1     -13.946   1.762  30.475  0.00  0.00    +0.102 C 
ATOM     19  C   UNL     1     -13.672   0.257  30.502  0.00  0.00    +0.026 C 
ATOM     20  C   UNL     1     -15.747   3.048  29.310  0.00  0.00    +0.216 C 
ATOM     21  C   UNL     1     -15.922   0.562  29.780  0.00  0.00    +0.108 C 
ATOM     22  C   UNL     1     -15.062  -0.353  30.639  0.00  0.00    +0.021 C 
BRANCH  18  23
ATOM     23  C   UNL     1     -13.948   2.375  31.874  0.00  0.00    +0.181 C 
BRANCH  23   3
ATOM      3  O   UNL     1     -13.188   3.568  31.844  0.00  0.00    -0.381 OA
ATOM     28  C   UNL     1     -13.808   4.608  32.591  0.00  0.00    +0.194 C 
ENDBRANCH  23   3
ENDBRANCH  18  23
ENDBRANCH  17  20
ENDBRANCH  15  17
ENDBRANCH  10  15
TORSDOF 7
ENDMDL
MODEL 3
REMARK VINA RESULT:      -7.2     18.043     21.450
REMARK  Name = 26763084
REMARK  8 active torsions:
REMARK  status: ('A' for Active; 'I' for Inactive)
REMARK    1  A    between atoms: O_3  and  C_23
REMARK    2  A    between atoms: O_3  and  C_28
REMARK    3  A    between atoms: N_7  and  C_11
REMARK    4  A    between atoms: C_10  and  C_15
REMARK    5  A    between atoms: C_15  and  C_17
REMARK    6  A    between atoms: C_17  and  C_20
REMARK    7  A    between atoms: C_18  and  C_23
REMARK    8  A    between atoms: C_24  and  C_25
REMARK                            x       y       z     vdW  Elec       q    Type
REMARK                         _______ _______ _______ _____ _____    ______ ____
ROOT
ATOM      1  O   UNL     1      15.148   6.862   3.355  0.00  0.00    -0.274 OA
ATOM      5  N   UNL     1      12.592   5.175   1.400  0.00  0.00    -0.285 NA
ATOM      6  N   UNL     1      15.259   4.895   2.217  0.00  0.00    -0.313 N 
ATOM      9  C   UNL     1      13.270   6.358   1.937  0.00  0.00    +0.145 C 
ATOM     10  C   UNL     1      13.472   4.305   0.625  0.00  0.00    +0.075 C 
ATOM     11  C   UNL     1      11.243   5.803   3.171  0.00  0.00    +0.089 C 
ATOM     12  C   UNL     1      12.266   6.921   2.951  0.00  0.00    +0.052 C 
ATOM     13  C   UNL     1      11.857   4.577   2.507  0.00  0.00    +0.107 C 
ATOM     14  C   UNL     1      14.649   3.823   1.464  0.00  0.00    +0.123 C 
ATOM     16  C   UNL     1      14.618   6.054   2.589  0.00  0.00    +0.230 C 
ATOM     32  H   UNL     1      16.174   4.719   2.620  0.00  0.00    +0.149 HD
ENDROOT
BRANCH  11   7
ATOM      4  O   UNL     1       8.800   6.473   4.516  0.00  0.00    -0.270 OA
ATOM      7  N   UNL     1      10.942   5.584   4.558  0.00  0.00    -0.307 N 
ATOM     24  C   UNL     1       9.726   5.943   5.124  0.00  0.00    +0.244 C 
ATOM     33  H   UNL     1      11.698   5.254   5.148  0.00  0.00    +0.149 HD
BRANCH  24  25
ATOM     25  C   UNL     1       9.580   5.674   6.577  0.00  0.00    +0.037 A 
ATOM     26  C   UNL     1       9.856   4.405   7.084  0.00  0.00    +0.013 A 
ATOM     27  C   UNL     1       9.169   6.693   7.436  0.00  0.00    +0.013 A 
ATOM     29  C   UNL     1       9.720   4.152   8.449  0.00  0.00    +0.001 A 
ATOM     30  C   UNL     1       9.033   6.442   8.802  0.00  0.00    +0.001 A 
ATOM     31  C   UNL     1       9.308   5.171   9.308  0.00  0.00    +0.000 A 
ENDBRANCH  24  25
ENDBRANCH  11   7
BRANCH  10  15
ATOM     15  C   UNL     1      12.727   3.127  -0.005  0.00  0.00    +0.029 C 
BRANCH  15  17
ATOM     17  C   UNL     1      12.629   3.246  -1.518  0.00  0.00    +0.097 C 
BRANCH  17  20
ATOM      2  O   UNL     1      10.417   4.028  -1.113  0.00  0.00    -0.276 OA
ATOM      8  N   UNL     1      10.958   3.470  -3.293  0.00  0.00    -0.296 N 
ATOM     18  C   UNL     1       9.625   3.694  -3.858  0.00  0.00    +0.102 C 
ATOM     19  C   UNL     1       9.688   3.005  -5.224  0.00  0.00    +0.026 C 
ATOM     20  C   UNL     1      11.231   3.619  -1.943  0.00  0.00    +0.216 C 
ATOM     21  C   UNL     1      11.889   2.989  -4.310  0.00  0.00    +0.108 C 
ATOM     22  C   UNL     1      11.150   3.158  -5.629  0.00  0.00    +0.021 C 
BRANCH  18  23
ATOM     23  C   UNL     1       9.312   5.184  -3.977  0.00  0.00    +0.181 C 
BRANCH  23   3
ATOM      3  O   UNL     1       8.259   5.495  -3.084  0.00  0.00    -0.381 OA
ATOM     28  C   UNL     1       8.456   6.756  -2.455  0.00  0.00    +0.194 C 
ENDBRANCH  23   3
ENDBRANCH  18  23
ENDBRANCH  17  20
ENDBRANCH  15  17
ENDBRANCH  10  15
TORSDOF 7
ENDMDL
MODEL 4
REMARK VINA RESULT:      -7.0     27.236     29.852
REMARK  Name = 26763084
REMARK  8 active torsions:
REMARK  status: ('A' for Active; 'I' for Inactive)
REMARK    1  A    between atoms: O_3  and  C_23
REMARK    2  A    between atoms: O_3  and  C_28
REMARK    3  A    between atoms: N_7  and  C_11
REMARK    4  A    between atoms: C_10  and  C_15
REMARK    5  A    between atoms: C_15  and  C_17
REMARK    6  A    between atoms: C_17  and  C_20
REMARK    7  A    between atoms: C_18  and  C_23
REMARK    8  A    between atoms: C_24  and  C_25
REMARK                            x       y       z     vdW  Elec       q    Type
REMARK                         _______ _______ _______ _____ _____    ______ ____
ROOT
ATOM      1  O   UNL     1      -3.192 -14.360  12.437  0.00  0.00    -0.274 OA
ATOM      5  N   UNL     1      -2.882 -10.828  11.647  0.00  0.00    -0.285 NA
ATOM      6  N   UNL     1      -4.190 -13.154  10.788  0.00  0.00    -0.313 N 
ATOM      9  C   UNL     1      -2.381 -12.115  12.137  0.00  0.00    +0.145 C 
ATOM     10  C   UNL     1      -3.378 -10.884  10.274  0.00  0.00    +0.075 C 
ATOM     11  C   UNL     1      -3.008 -10.607  13.946  0.00  0.00    +0.089 C 
ATOM     12  C   UNL     1      -2.233 -11.894  13.648  0.00  0.00    +0.052 C 
ATOM     13  C   UNL     1      -3.786 -10.315  12.670  0.00  0.00    +0.107 C 
ATOM     14  C   UNL     1      -4.503 -11.902  10.135  0.00  0.00    +0.123 C 
ATOM     16  C   UNL     1      -3.302 -13.294  11.829  0.00  0.00    +0.230 C 
ATOM     32  H   UNL     1      -4.771 -13.955  10.559  0.00  0.00    +0.149 HD
ENDROOT
BRANCH  11   7
ATOM      4  O   UNL     1      -2.176 -10.670  16.690  0.00  0.00    -0.270 OA
ATOM      7  N   UNL     1      -3.861 -10.720  15.096  0.00  0.00    -0.307 N 
ATOM     24  C   UNL     1      -3.366 -10.743  16.393  0.00  0.00    +0.244 C 
ATOM     33  H   UNL     1      -4.844 -10.897  14.925  0.00  0.00    +0.149 HD
BRANCH  24  25
ATOM     25  C   UNL     1      -4.376 -10.891  17.472  0.00  0.00    +0.037 A 
ATOM     26  C   UNL     1      -5.619 -10.270  17.356  0.00  0.00    +0.013 A 
ATOM     27  C   UNL     1      -4.081 -11.655  18.601  0.00  0.00    +0.013 A 
ATOM     29  C   UNL     1      -6.568 -10.411  18.369  0.00  0.00    +0.001 A 
ATOM     30  C   UNL     1      -5.029 -11.797  19.614  0.00  0.00    +0.001 A 
ATOM     31  C   UNL     1      -6.273 -11.174  19.498  0.00  0.00    +0.000 A 
ENDBRANCH  24  25
ENDBRANCH  11   7
BRANCH  10  15
ATOM     15  C   UNL     1      -3.809  -9.514   9.750  0.00  0.00    +0.029 C 
BRANCH  15  17
ATOM     17  C   UNL     1      -4.798  -9.619   8.599  0.00  0.00    +0.097 C 
BRANCH  17  20
ATOM      2  O   UNL     1      -6.273  -8.422  10.034  0.00  0.00    -0.276 OA
ATOM      8  N   UNL     1      -6.923  -8.679   7.828  0.00  0.00    -0.296 N 
ATOM     18  C   UNL     1      -8.236  -8.044   7.965  0.00  0.00    +0.102 C 
ATOM     19  C   UNL     1      -8.978  -8.462   6.694  0.00  0.00    +0.026 C 
ATOM     20  C   UNL     1      -6.062  -8.852   8.899  0.00  0.00    +0.216 C 
ATOM     21  C   UNL     1      -6.713  -9.170   6.468  0.00  0.00    +0.108 C 
ATOM     22  C   UNL     1      -7.864  -8.589   5.661  0.00  0.00    +0.021 C 
BRANCH  18  23
ATOM     23  C   UNL     1      -8.111  -6.527   8.089  0.00  0.00    +0.181 C 
BRANCH  23   3
ATOM      3  O   UNL     1      -9.343  -5.942   7.712  0.00  0.00    -0.381 OA
ATOM     28  C   UNL     1     -10.054  -5.437   8.836  0.00  0.00    +0.194 C 
ENDBRANCH  23   3
ENDBRANCH  18  23
ENDBRANCH  17  20
ENDBRANCH  15  17
ENDBRANCH  10  15
TORSDOF 7
ENDMDL
MODEL 5
REMARK VINA RESULT:      -6.8     27.538     30.717
REMARK  Name = 26763084
REMARK  8 active torsions:
REMARK  status: ('A' for Active; 'I' for Inactive)
REMARK    1  A    between atoms: O_3  and  C_23
REMARK    2  A    between atoms: O_3  and  C_28
REMARK    3  A    between atoms: N_7  and  C_11
REMARK    4  A    between atoms: C_10  and  C_15
REMARK    5  A    between atoms: C_15  and  C_17
REMARK    6  A    between atoms: C_17  and  C_20
REMARK    7  A    between atoms: C_18  and  C_23
REMARK    8  A    between atoms: C_24  and  C_25
REMARK                            x       y       z     vdW  Elec       q    Type
REMARK                         _______ _______ _______ _____ _____    ______ ____
ROOT
ATOM      1  O   UNL     1     -14.491  -8.929  14.301  0.00  0.00    -0.274 OA
ATOM      5  N   UNL     1     -11.779  -7.220  16.011  0.00  0.00    -0.285 NA
ATOM      6  N   UNL     1     -12.458  -9.722  14.943  0.00  0.00    -0.313 N 
ATOM      9  C   UNL     1     -13.191  -7.474  15.709  0.00  0.00    +0.145 C 
ATOM     10  C   UNL     1     -11.068  -8.401  16.492  0.00  0.00    +0.075 C 
ATOM     11  C   UNL     1     -12.324  -5.516  14.545  0.00  0.00    +0.089 C 
ATOM     12  C   UNL     1     -13.626  -6.224  14.935  0.00  0.00    +0.052 C 
ATOM     13  C   UNL     1     -11.224  -6.523  14.857  0.00  0.00    +0.107 C 
ATOM     14  C   UNL     1     -11.127  -9.533  15.474  0.00  0.00    +0.123 C 
ATOM     16  C   UNL     1     -13.429  -8.748  14.900  0.00  0.00    +0.230 C 
ATOM     32  H   UNL     1     -12.640 -10.584  14.438  0.00  0.00    +0.149 HD
ENDROOT
BRANCH  11   7
ATOM      4  O   UNL     1     -13.827  -3.355  13.406  0.00  0.00    -0.270 OA
ATOM      7  N   UNL     1     -12.307  -5.091  13.173  0.00  0.00    -0.307 N 
ATOM     24  C   UNL     1     -13.072  -4.029  12.710  0.00  0.00    +0.244 C 
ATOM     33  H   UNL     1     -11.794  -5.671  12.517  0.00  0.00    +0.149 HD
BRANCH  24  25
ATOM     25  C   UNL     1     -12.962  -3.732  11.260  0.00  0.00    +0.037 A 
ATOM     26  C   UNL     1     -11.720  -3.779  10.629  0.00  0.00    +0.013 A 
ATOM     27  C   UNL     1     -14.104  -3.407  10.527  0.00  0.00    +0.013 A 
ATOM     29  C   UNL     1     -11.617  -3.500   9.266  0.00  0.00    +0.001 A 
ATOM     30  C   UNL     1     -14.003  -3.129   9.164  0.00  0.00    +0.001 A 
ATOM     31  C   UNL     1     -12.759  -3.175   8.533  0.00  0.00    +0.000 A 
ENDBRANCH  24  25
ENDBRANCH  11   7
BRANCH  10  15
ATOM     15  C   UNL     1      -9.624  -8.095  16.890  0.00  0.00    +0.029 C 
BRANCH  15  17
ATOM     17  C   UNL     1      -8.996  -9.218  17.701  0.00  0.00    +0.097 C 
BRANCH  17  20
ATOM      2  O   UNL     1      -7.644  -9.623  15.784  0.00  0.00    -0.276 OA
ATOM      8  N   UNL     1      -6.897 -10.475  17.802  0.00  0.00    -0.296 N 
ATOM     18  C   UNL     1      -5.725 -11.172  17.265  0.00  0.00    +0.102 C 
ATOM     19  C   UNL     1      -5.315 -12.118  18.397  0.00  0.00    +0.026 C 
ATOM     20  C   UNL     1      -7.789  -9.787  16.996  0.00  0.00    +0.216 C 
ATOM     21  C   UNL     1      -7.029 -10.693  19.240  0.00  0.00    +0.108 C 
ATOM     22  C   UNL     1      -5.728 -11.363  19.655  0.00  0.00    +0.021 C 
BRANCH  18  23
ATOM     23  C   UNL     1      -4.613 -10.192  16.900  0.00  0.00    +0.181 C 
BRANCH  23   3
ATOM      3  O   UNL     1      -3.374 -10.874  16.962  0.00  0.00    -0.381 OA
ATOM     28  C   UNL     1      -2.657 -10.778  15.737  0.00  0.00    +0.194 C 
ENDBRANCH  23   3
ENDBRANCH  18  23
ENDBRANCH  17  20
ENDBRANCH  15  17
ENDBRANCH  10  15
TORSDOF 7
ENDMDL
MODEL 6
REMARK VINA RESULT:      -6.6     28.604     31.142
REMARK  Name = 26763084
REMARK  8 active torsions:
REMARK  status: ('A' for Active; 'I' for Inactive)
REMARK    1  A    between atoms: O_3  and  C_23
REMARK    2  A    between atoms: O_3  and  C_28
REMARK    3  A    between atoms: N_7  and  C_11
REMARK    4  A    between atoms: C_10  and  C_15
REMARK    5  A    between atoms: C_15  and  C_17
REMARK    6  A    between atoms: C_17  and  C_20
REMARK    7  A    between atoms: C_18  and  C_23
REMARK    8  A    between atoms: C_24  and  C_25
REMARK                            x       y       z     vdW  Elec       q    Type
REMARK                         _______ _______ _______ _____ _____    ______ ____
ROOT
ATOM      1  O   UNL     1     -13.995  -9.583  13.783  0.00  0.00    -0.274 OA
ATOM      5  N   UNL     1     -11.966  -7.502  15.963  0.00  0.00    -0.285 NA
ATOM      6  N   UNL     1     -11.963 -10.011  14.713  0.00  0.00    -0.313 N 
ATOM      9  C   UNL     1     -13.237  -8.002  15.430  0.00  0.00    +0.145 C 
ATOM     10  C   UNL     1     -11.113  -8.554  16.509  0.00  0.00    +0.075 C 
ATOM     11  C   UNL     1     -12.615  -5.841  14.489  0.00  0.00    +0.089 C 
ATOM     12  C   UNL     1     -13.792  -6.809  14.641  0.00  0.00    +0.052 C 
ATOM     13  C   UNL     1     -11.395  -6.636  14.938  0.00  0.00    +0.107 C 
ATOM     14  C   UNL     1     -10.791  -9.606  15.456  0.00  0.00    +0.123 C 
ATOM     16  C   UNL     1     -13.091  -9.241  14.550  0.00  0.00    +0.230 C 
ATOM     32  H   UNL     1     -11.892 -10.857  14.156  0.00  0.00    +0.149 HD
ENDROOT
BRANCH  11   7
ATOM      4  O   UNL     1     -13.933  -3.542  13.393  0.00  0.00    -0.270 OA
ATOM      7  N   UNL     1     -12.478  -5.332  13.153  0.00  0.00    -0.307 N 
ATOM     24  C   UNL     1     -13.159  -4.207  12.709  0.00  0.00    +0.244 C 
ATOM     33  H   UNL     1     -11.943  -5.893  12.498  0.00  0.00    +0.149 HD
BRANCH  24  25
ATOM     25  C   UNL     1     -12.930  -3.823  11.293  0.00  0.00    +0.037 A 
ATOM     26  C   UNL     1     -14.007  -3.468  10.483  0.00  0.00    +0.013 A 
ATOM     27  C   UNL     1     -11.635  -3.817  10.774  0.00  0.00    +0.013 A 
ATOM     29  C   UNL     1     -13.792  -3.106   9.153  0.00  0.00    +0.001 A 
ATOM     30  C   UNL     1     -11.419  -3.455   9.444  0.00  0.00    +0.001 A 
ATOM     31  C   UNL     1     -12.498  -3.101   8.633  0.00  0.00    +0.000 A 
ENDBRANCH  24  25
ENDBRANCH  11   7
BRANCH  10  15
ATOM     15  C   UNL     1      -9.835  -8.003  17.144  0.00  0.00    +0.029 C 
BRANCH  15  17
ATOM     17  C   UNL     1      -8.600  -8.792  16.738  0.00  0.00    +0.097 C 
BRANCH  17  20
ATOM      2  O   UNL     1      -8.985 -10.068  18.711  0.00  0.00    -0.276 OA
ATOM      8  N   UNL     1      -6.887 -10.221  17.747  0.00  0.00    -0.296 N 
ATOM     18  C   UNL     1      -6.293 -11.080  18.774  0.00  0.00    +0.102 C 
ATOM     19  C   UNL     1      -4.789 -10.978  18.510  0.00  0.00    +0.026 C 
ATOM     20  C   UNL     1      -8.187  -9.750  17.828  0.00  0.00    +0.216 C 
ATOM     21  C   UNL     1      -5.908  -9.871  16.720  0.00  0.00    +0.108 C 
ATOM     22  C   UNL     1      -4.709 -10.764  17.003  0.00  0.00    +0.021 C 
BRANCH  18  23
ATOM     23  C   UNL     1      -6.803 -12.516  18.663  0.00  0.00    +0.181 C 
BRANCH  23   3
ATOM      3  O   UNL     1      -7.588 -12.804  19.804  0.00  0.00    -0.381 OA
ATOM     28  C   UNL     1      -8.777 -13.508  19.463  0.00  0.00    +0.194 C 
ENDBRANCH  23   3
ENDBRANCH  18  23
ENDBRANCH  17  20
ENDBRANCH  15  17
ENDBRANCH  10  15
TORSDOF 7
ENDMDL
MODEL 7
REMARK VINA RESULT:      -6.5     14.790     17.592
REMARK  Name = 26763084
REMARK  8 active torsions:
REMARK  status: ('A' for Active; 'I' for Inactive)
REMARK    1  A    between atoms: O_3  and  C_23
REMARK    2  A    between atoms: O_3  and  C_28
REMARK    3  A    between atoms: N_7  and  C_11
REMARK    4  A    between atoms: C_10  and  C_15
REMARK    5  A    between atoms: C_15  and  C_17
REMARK    6  A    between atoms: C_17  and  C_20
REMARK    7  A    between atoms: C_18  and  C_23
REMARK    8  A    between atoms: C_24  and  C_25
REMARK                            x       y       z     vdW  Elec       q    Type
REMARK                         _______ _______ _______ _____ _____    ______ ____
ROOT
ATOM      1  O   UNL     1      11.452   5.734   8.421  0.00  0.00    -0.274 OA
ATOM      5  N   UNL     1      10.884   7.006   5.065  0.00  0.00    -0.285 NA
ATOM      6  N   UNL     1      10.179   4.874   6.743  0.00  0.00    -0.313 N 
ATOM      9  C   UNL     1      11.688   6.791   6.272  0.00  0.00    +0.145 C 
ATOM     10  C   UNL     1      10.409   5.767   4.457  0.00  0.00    +0.075 C 
ATOM     11  C   UNL     1      10.722   9.027   6.179  0.00  0.00    +0.089 C 
ATOM     12  C   UNL     1      11.786   8.190   6.895  0.00  0.00    +0.052 C 
ATOM     13  C   UNL     1       9.889   8.017   5.401  0.00  0.00    +0.107 C 
ATOM     14  C   UNL     1       9.567   4.960   5.436  0.00  0.00    +0.123 C 
ATOM     16  C   UNL     1      11.081   5.783   7.246  0.00  0.00    +0.230 C 
ATOM     32  H   UNL     1       9.811   4.178   7.385  0.00  0.00    +0.149 HD
ENDROOT
BRANCH  11   7
ATOM      4  O   UNL     1      11.353  11.644   7.167  0.00  0.00    -0.270 OA
ATOM      7  N   UNL     1       9.930   9.815   7.081  0.00  0.00    -0.307 N 
ATOM     24  C   UNL     1      10.317  11.079   7.507  0.00  0.00    +0.244 C 
ATOM     33  H   UNL     1       9.117   9.369   7.492  0.00  0.00    +0.149 HD
BRANCH  24  25
ATOM     25  C   UNL     1       9.401  11.754   8.460  0.00  0.00    +0.037 A 
ATOM     26  C   UNL     1       8.622  12.830   8.037  0.00  0.00    +0.013 A 
ATOM     27  C   UNL     1       9.316  11.309   9.779  0.00  0.00    +0.013 A 
ATOM     29  C   UNL     1       7.760  13.464   8.933  0.00  0.00    +0.001 A 
ATOM     30  C   UNL     1       8.455  11.941  10.676  0.00  0.00    +0.001 A 
ATOM     31  C   UNL     1       7.677  13.019  10.252  0.00  0.00    +0.000 A 
ENDBRANCH  24  25
ENDBRANCH  11   7
BRANCH  10  15
ATOM     15  C   UNL     1       9.653   6.007   3.150  0.00  0.00    +0.029 C 
BRANCH  15  17
ATOM     17  C   UNL     1      10.587   6.318   1.990  0.00  0.00    +0.097 C 
BRANCH  17  20
ATOM      2  O   UNL     1      10.194   4.347   0.714  0.00  0.00    -0.276 OA
ATOM      8  N   UNL     1      12.377   4.777   1.347  0.00  0.00    -0.296 N 
ATOM     18  C   UNL     1      12.955   3.544   0.805  0.00  0.00    +0.102 C 
ATOM     19  C   UNL     1      14.333   3.467   1.466  0.00  0.00    +0.026 C 
ATOM     20  C   UNL     1      11.021   5.054   1.290  0.00  0.00    +0.216 C 
ATOM     21  C   UNL     1      13.393   5.586   2.017  0.00  0.00    +0.108 C 
ATOM     22  C   UNL     1      14.717   4.929   1.656  0.00  0.00    +0.021 C 
BRANCH  18  23
ATOM     23  C   UNL     1      13.047   3.595  -0.718  0.00  0.00    +0.181 C 
BRANCH  23   3
ATOM      3  O   UNL     1      12.428   2.436  -1.245  0.00  0.00    -0.381 OA
ATOM     28  C   UNL     1      11.537   2.750  -2.309  0.00  0.00    +0.194 C 
ENDBRANCH  23   3
ENDBRANCH  18  23
ENDBRANCH  17  20
ENDBRANCH  15  17
ENDBRANCH  10  15
TORSDOF 7
ENDMDL
MODEL 8
REMARK VINA RESULT:      -6.5     27.274     29.816
REMARK  Name = 26763084
REMARK  8 active torsions:
REMARK  status: ('A' for Active; 'I' for Inactive)
REMARK    1  A    between atoms: O_3  and  C_23
REMARK    2  A    between atoms: O_3  and  C_28
REMARK    3  A    between atoms: N_7  and  C_11
REMARK    4  A    between atoms: C_10  and  C_15
REMARK    5  A    between atoms: C_15  and  C_17
REMARK    6  A    between atoms: C_17  and  C_20
REMARK    7  A    between atoms: C_18  and  C_23
REMARK    8  A    between atoms: C_24  and  C_25
REMARK                            x       y       z     vdW  Elec       q    Type
REMARK                         _______ _______ _______ _____ _____    ______ ____
ROOT
ATOM      1  O   UNL     1      -1.439 -14.050  13.670  0.00  0.00    -0.274 OA
ATOM      5  N   UNL     1      -2.623 -10.720  12.832  0.00  0.00    -0.285 NA
ATOM      6  N   UNL     1      -2.628 -13.350  11.862  0.00  0.00    -0.313 N 
ATOM      9  C   UNL     1      -1.677 -11.669  13.425  0.00  0.00    +0.145 C 
ATOM     10  C   UNL     1      -2.845 -10.937  11.405  0.00  0.00    +0.075 C 
ATOM     11  C   UNL     1      -3.155 -10.665  15.083  0.00  0.00    +0.089 C 
ATOM     12  C   UNL     1      -1.856 -11.462  14.934  0.00  0.00    +0.052 C 
ATOM     13  C   UNL     1      -3.794 -10.700  13.701  0.00  0.00    +0.107 C 
ATOM     14  C   UNL     1      -3.368 -12.342  11.136  0.00  0.00    +0.123 C 
ATOM     16  C   UNL     1      -1.925 -13.121  13.022  0.00  0.00    +0.230 C 
ATOM     32  H   UNL     1      -2.753 -14.316  11.575  0.00  0.00    +0.149 HD
ENDROOT
BRANCH  11   7
ATOM      4  O   UNL     1      -5.340  -9.296  16.338  0.00  0.00    -0.270 OA
ATOM      7  N   UNL     1      -4.021 -11.189  16.103  0.00  0.00    -0.307 N 
ATOM     24  C   UNL     1      -5.058 -10.449  16.654  0.00  0.00    +0.244 C 
ATOM     33  H   UNL     1      -3.778 -12.093  16.493  0.00  0.00    +0.149 HD
BRANCH  24  25
ATOM     25  C   UNL     1      -5.845 -11.124  17.717  0.00  0.00    +0.037 A 
ATOM     26  C   UNL     1      -6.772 -12.110  17.380  0.00  0.00    +0.013 A 
ATOM     27  C   UNL     1      -5.655 -10.774  19.053  0.00  0.00    +0.013 A 
ATOM     29  C   UNL     1      -7.511 -12.745  18.378  0.00  0.00    +0.001 A 
ATOM     30  C   UNL     1      -6.393 -11.409  20.053  0.00  0.00    +0.001 A 
ATOM     31  C   UNL     1      -7.321 -12.394  19.715  0.00  0.00    +0.000 A 
ENDBRANCH  24  25
ENDBRANCH  11   7
BRANCH  10  15
ATOM     15  C   UNL     1      -3.761  -9.881  10.786  0.00  0.00    +0.029 C 
BRANCH  15  17
ATOM     17  C   UNL     1      -5.056 -10.478  10.255  0.00  0.00    +0.097 C 
BRANCH  17  20
ATOM      2  O   UNL     1      -4.733  -9.867   7.977  0.00  0.00    -0.276 OA
ATOM      8  N   UNL     1      -6.696  -9.175   8.987  0.00  0.00    -0.296 N 
ATOM     18  C   UNL     1      -7.204  -8.400   7.852  0.00  0.00    +0.102 C 
ATOM     19  C   UNL     1      -8.318  -7.547   8.464  0.00  0.00    +0.026 C 
ATOM     20  C   UNL     1      -5.468  -9.815   8.964  0.00  0.00    +0.216 C 
ATOM     21  C   UNL     1      -7.599  -9.088  10.133  0.00  0.00    +0.108 C 
ATOM     22  C   UNL     1      -8.854  -8.421   9.592  0.00  0.00    +0.021 C 
BRANCH  18  23
ATOM     23  C   UNL     1      -7.720  -9.312   6.741  0.00  0.00    +0.181 C 
BRANCH  23   3
ATOM      3  O   UNL     1      -6.879  -9.166   5.612  0.00  0.00    -0.381 OA
ATOM     28  C   UNL     1      -6.680 -10.403   4.938  0.00  0.00    +0.194 C 
ENDBRANCH  23   3
ENDBRANCH  18  23
ENDBRANCH  17  20
ENDBRANCH  15  17
ENDBRANCH  10  15
TORSDOF 7
ENDMDL
MODEL 9
REMARK VINA RESULT:      -6.4     25.956     29.396
REMARK  Name = 26763084
REMARK  8 active torsions:
REMARK  status: ('A' for Active; 'I' for Inactive)
REMARK    1  A    between atoms: O_3  and  C_23
REMARK    2  A    between atoms: O_3  and  C_28
REMARK    3  A    between atoms: N_7  and  C_11
REMARK    4  A    between atoms: C_10  and  C_15
REMARK    5  A    between atoms: C_15  and  C_17
REMARK    6  A    between atoms: C_17  and  C_20
REMARK    7  A    between atoms: C_18  and  C_23
REMARK    8  A    between atoms: C_24  and  C_25
REMARK                            x       y       z     vdW  Elec       q    Type
REMARK                         _______ _______ _______ _____ _____    ______ ____
ROOT
ATOM      1  O   UNL     1     -10.845  11.582  18.992  0.00  0.00    -0.274 OA
ATOM      5  N   UNL     1     -11.184   7.992  19.437  0.00  0.00    -0.285 NA
ATOM      6  N   UNL     1     -12.161  10.421  20.438  0.00  0.00    -0.313 N 
ATOM      9  C   UNL     1     -10.440   9.213  19.115  0.00  0.00    +0.145 C 
ATOM     10  C   UNL     1     -11.776   8.009  20.771  0.00  0.00    +0.075 C 
ATOM     11  C   UNL     1     -11.151   8.002  17.123  0.00  0.00    +0.089 C 
ATOM     12  C   UNL     1     -10.204   9.106  17.603  0.00  0.00    +0.052 C 
ATOM     13  C   UNL     1     -12.071   7.735  18.308  0.00  0.00    +0.107 C 
ATOM     14  C   UNL     1     -12.727   9.187  20.937  0.00  0.00    +0.123 C 
ATOM     16  C   UNL     1     -11.179  10.499  19.480  0.00  0.00    +0.230 C 
ATOM     32  H   UNL     1     -12.620  11.286  20.709  0.00  0.00    +0.149 HD
ENDROOT
BRANCH  11   7
ATOM      4  O   UNL     1     -10.297   7.604  14.415  0.00  0.00    -0.270 OA
ATOM      7  N   UNL     1     -11.875   8.362  15.936  0.00  0.00    -0.307 N 
ATOM     24  C   UNL     1     -11.380   8.129  14.661  0.00  0.00    +0.244 C 
ATOM     33  H   UNL     1     -12.725   8.900  16.060  0.00  0.00    +0.149 HD
BRANCH  24  25
ATOM     25  C   UNL     1     -12.237   8.583  13.537  0.00  0.00    +0.037 A 
ATOM     26  C   UNL     1     -11.804   9.609  12.698  0.00  0.00    +0.013 A 
ATOM     27  C   UNL     1     -13.477   7.982  13.318  0.00  0.00    +0.013 A 
ATOM     29  C   UNL     1     -12.609  10.035  11.641  0.00  0.00    +0.001 A 
ATOM     30  C   UNL     1     -14.283   8.406  12.262  0.00  0.00    +0.001 A 
ATOM     31  C   UNL     1     -13.849   9.434  11.424  0.00  0.00    +0.000 A 
ENDBRANCH  24  25
ENDBRANCH  11   7
BRANCH  10  15
ATOM     15  C   UNL     1     -12.468   6.691  21.123  0.00  0.00    +0.029 C 
BRANCH  15  17
ATOM     17  C   UNL     1     -13.925   6.887  21.512  0.00  0.00    +0.097 C 
BRANCH  17  20
ATOM      2  O   UNL     1     -14.043   4.518  21.706  0.00  0.00    -0.276 OA
ATOM      8  N   UNL     1     -15.618   5.751  22.867  0.00  0.00    -0.296 N 
ATOM     18  C   UNL     1     -16.380   4.610  23.379  0.00  0.00    +0.102 C 
ATOM     19  C   UNL     1     -17.693   5.234  23.858  0.00  0.00    +0.026 C 
ATOM     20  C   UNL     1     -14.525   5.604  22.029  0.00  0.00    +0.216 C 
ATOM     21  C   UNL     1     -16.224   7.017  23.276  0.00  0.00    +0.108 C 
ATOM     22  C   UNL     1     -17.279   6.632  24.301  0.00  0.00    +0.021 C 
BRANCH  18  23
ATOM     23  C   UNL     1     -15.632   3.902  24.507  0.00  0.00    +0.181 C 
BRANCH  23   3
ATOM      3  O   UNL     1     -15.968   2.528  24.477  0.00  0.00    -0.381 OA
ATOM     28  C   UNL     1     -16.464   2.077  25.732  0.00  0.00    +0.194 C 
ENDBRANCH  23   3
ENDBRANCH  18  23
ENDBRANCH  17  20
ENDBRANCH  15  17
ENDBRANCH  10  15
TORSDOF 7
ENDMDL
MODEL 10
REMARK VINA RESULT:      -6.3     15.915     19.797
REMARK  Name = 26763084
REMARK  8 active torsions:
REMARK  status: ('A' for Active; 'I' for Inactive)
REMARK    1  A    between atoms: O_3  and  C_23
REMARK    2  A    between atoms: O_3  and  C_28
REMARK    3  A    between atoms: N_7  and  C_11
REMARK    4  A    between atoms: C_10  and  C_15
REMARK    5  A    between atoms: C_15  and  C_17
REMARK    6  A    between atoms: C_17  and  C_20
REMARK    7  A    between atoms: C_18  and  C_23
REMARK    8  A    between atoms: C_24  and  C_25
REMARK                            x       y       z     vdW  Elec       q    Type
REMARK                         _______ _______ _______ _____ _____    ______ ____
ROOT
ATOM      1  O   UNL     1      15.676   9.805   0.927  0.00  0.00    -0.274 OA
ATOM      5  N   UNL     1      15.492   7.410   3.652  0.00  0.00    -0.285 NA
ATOM      6  N   UNL     1      14.749  10.032   2.991  0.00  0.00    -0.313 N 
ATOM      9  C   UNL     1      16.125   8.026   2.483  0.00  0.00    +0.145 C 
ATOM     10  C   UNL     1      15.229   8.355   4.734  0.00  0.00    +0.075 C 
ATOM     11  C   UNL     1      14.980   5.945   1.936  0.00  0.00    +0.089 C 
ATOM     12  C   UNL     1      16.001   6.951   1.396  0.00  0.00    +0.052 C 
ATOM     13  C   UNL     1      14.367   6.627   3.153  0.00  0.00    +0.107 C 
ATOM     14  C   UNL     1      14.330   9.493   4.266  0.00  0.00    +0.123 C 
ATOM     16  C   UNL     1      15.479   9.341   2.052  0.00  0.00    +0.230 C 
ATOM     32  H   UNL     1      14.357  10.926   2.713  0.00  0.00    +0.149 HD
ENDROOT
BRANCH  11   7
ATOM      4  O   UNL     1      14.067   3.287   1.366  0.00  0.00    -0.270 OA
ATOM      7  N   UNL     1      13.993   5.570   0.962  0.00  0.00    -0.307 N 
ATOM     24  C   UNL     1      13.613   4.252   0.755  0.00  0.00    +0.244 C 
ATOM     33  H   UNL     1      13.657   6.299   0.342  0.00  0.00    +0.149 HD
BRANCH  24  25
ATOM     25  C   UNL     1      12.600   4.026  -0.307  0.00  0.00    +0.037 A 
ATOM     26  C   UNL     1      12.713   2.927  -1.158  0.00  0.00    +0.013 A 
ATOM     27  C   UNL     1      11.533   4.913  -0.453  0.00  0.00    +0.013 A 
ATOM     29  C   UNL     1      11.761   2.714  -2.155  0.00  0.00    +0.001 A 
ATOM     30  C   UNL     1      10.580   4.701  -1.449  0.00  0.00    +0.001 A 
ATOM     31  C   UNL     1      10.695   3.602  -2.301  0.00  0.00    +0.000 A 
ENDBRANCH  24  25
ENDBRANCH  11   7
BRANCH  10  15
ATOM     15  C   UNL     1      14.654   7.677   5.979  0.00  0.00    +0.029 C 
BRANCH  15  17
ATOM     17  C   UNL     1      13.189   8.020   6.201  0.00  0.00    +0.097 C 
BRANCH  17  20
ATOM      2  O   UNL     1      12.975   6.160   7.671  0.00  0.00    -0.276 OA
ATOM      8  N   UNL     1      11.165   6.647   6.314  0.00  0.00    -0.296 N 
ATOM     18  C   UNL     1      10.341   5.505   6.717  0.00  0.00    +0.102 C 
ATOM     19  C   UNL     1       9.256   5.440   5.640  0.00  0.00    +0.026 C 
ATOM     20  C   UNL     1      12.445   6.854   6.802  0.00  0.00    +0.216 C 
ATOM     21  C   UNL     1      10.498   7.443   5.286  0.00  0.00    +0.108 C 
ATOM     22  C   UNL     1       9.079   6.897   5.229  0.00  0.00    +0.021 C 
BRANCH  18  23
ATOM     23  C   UNL     1       9.758   5.704   8.114  0.00  0.00    +0.181 C 
BRANCH  23   3
ATOM      3  O   UNL     1       9.970   4.523   8.864  0.00  0.00    -0.381 OA
ATOM     28  C   UNL     1       9.300   4.565  10.118  0.00  0.00    +0.194 C 
ENDBRANCH  23   3
ENDBRANCH  18  23
ENDBRANCH  17  20
ENDBRANCH  15  17
ENDBRANCH  10  15
TORSDOF 7
ENDMDL
