MODEL 1
REMARK VINA RESULT:      -6.0      0.000      0.000
REMARK  Name = 11943354
REMARK  8 active torsions:
REMARK  status: ('A' for Active; 'I' for Inactive)
REMARK    1  A    between atoms: O_2  and  C_20
REMARK    2  A    between atoms: N_4  and  C_13
REMARK    3  A    between atoms: N_4  and  C_15
REMARK    4  A    between atoms: C_6  and  C_12
REMARK    5  A    between atoms: C_7  and  C_13
REMARK    6  A    between atoms: C_12  and  C_14
REMARK    7  A    between atoms: C_15  and  C_16
REMARK    8  A    between atoms: C_18  and  C_20
REMARK                            x       y       z     vdW  Elec       q    Type
REMARK                         _______ _______ _______ _____ _____    ______ ____
ROOT
ATOM      4  N   UNL     1      10.363   8.788  21.726  0.00  0.00    -0.308 NA
ATOM     21  H   UNL     1       9.577   8.185  21.972  0.00  0.00    +0.122 HD
ENDROOT
BRANCH   4  13
ATOM     13  C   UNL     1      11.312   8.061  20.940  0.00  0.00    +0.100 C 
BRANCH  13   7
ATOM      3  N   UNL     1      11.609   7.769  18.467  0.00  0.00    -0.298 NA
ATOM      5  C   UNL     1      13.593   9.446  18.316  0.00  0.00    -0.004 C 
ATOM      6  C   UNL     1      14.098   7.987  18.259  0.00  0.00    +0.006 C 
ATOM      7  C   UNL     1      11.540   8.743  19.589  0.00  0.00    +0.071 C 
ATOM      8  C   UNL     1      12.786   9.656  19.610  0.00  0.00    +0.024 C 
ATOM      9  C   UNL     1      12.900   7.040  18.497  0.00  0.00    +0.088 C 
ATOM     10  C   UNL     1      12.618   9.628  17.137  0.00  0.00    +0.019 C 
ATOM     11  C   UNL     1      11.539   8.531  17.197  0.00  0.00    +0.085 C 
BRANCH   6  12
ATOM     12  C   UNL     1      15.240   7.706  19.234  0.00  0.00    +0.002 C 
ATOM     14  C   UNL     1      14.868   6.617  20.222  0.00  0.00    +0.004 C 
ENDBRANCH   6  12
ENDBRANCH  13   7
ENDBRANCH   4  13
BRANCH   4  15
ATOM     15  C   UNL     1      10.964   9.326  22.950  0.00  0.00    +0.156 C 
BRANCH  15  16
ATOM      1  O   UNL     1      10.613  11.399  24.113  0.00  0.00    -0.461 OA
ATOM     16  C   UNL     1      10.953  10.830  22.944  0.00  0.00    +0.119 A 
ATOM     17  C   UNL     1      11.223  11.735  21.976  0.00  0.00    +0.046 A 
ATOM     18  C   UNL     1      10.665  12.737  23.889  0.00  0.00    +0.131 A 
ATOM     19  C   UNL     1      11.036  12.997  22.589  0.00  0.00    +0.047 A 
BRANCH  18  20
ATOM     20  C   UNL     1      10.331  13.602  25.030  0.00  0.00    +0.230 C 
BRANCH  20   2
ATOM      2  O   UNL     1      10.327  12.798  26.211  0.00  0.00    -0.387 OA
ATOM     22  H   UNL     1       9.416  12.488  26.353  0.00  0.00    +0.210 HD
ENDBRANCH  20   2
ENDBRANCH  18  20
ENDBRANCH  15  16
ENDBRANCH   4  15
TORSDOF 7
ENDMDL
MODEL 2
REMARK VINA RESULT:      -5.6      4.005      6.801
REMARK  Name = 11943354
REMARK  8 active torsions:
REMARK  status: ('A' for Active; 'I' for Inactive)
REMARK    1  A    between atoms: O_2  and  C_20
REMARK    2  A    between atoms: N_4  and  C_13
REMARK    3  A    between atoms: N_4  and  C_15
REMARK    4  A    between atoms: C_6  and  C_12
REMARK    5  A    between atoms: C_7  and  C_13
REMARK    6  A    between atoms: C_12  and  C_14
REMARK    7  A    between atoms: C_15  and  C_16
REMARK    8  A    between atoms: C_18  and  C_20
REMARK                            x       y       z     vdW  Elec       q    Type
REMARK                         _______ _______ _______ _____ _____    ______ ____
ROOT
ATOM      4  N   UNL     1      15.374   8.214  20.892  0.00  0.00    -0.308 NA
ATOM     21  H   UNL     1      16.052   8.634  21.528  0.00  0.00    +0.122 HD
ENDROOT
BRANCH   4  13
ATOM     13  C   UNL     1      14.590   7.239  21.585  0.00  0.00    +0.100 C 
BRANCH  13   7
ATOM      3  N   UNL     1      12.111   6.977  21.306  0.00  0.00    -0.298 NA
ATOM      5  C   UNL     1      11.705   9.504  20.842  0.00  0.00    -0.004 C 
ATOM      6  C   UNL     1      11.650   8.687  19.531  0.00  0.00    +0.006 C 
ATOM      7  C   UNL     1      13.200   7.788  21.914  0.00  0.00    +0.071 C 
ATOM      8  C   UNL     1      13.065   9.278  21.528  0.00  0.00    +0.024 C 
ATOM      9  C   UNL     1      12.039   7.225  19.846  0.00  0.00    +0.088 C 
ATOM     10  C   UNL     1      10.623   8.928  21.775  0.00  0.00    +0.019 C 
ATOM     11  C   UNL     1      10.828   7.408  21.912  0.00  0.00    +0.085 C 
BRANCH   6  12
ATOM     12  C   UNL     1      12.516   9.273  18.419  0.00  0.00    +0.002 C 
ATOM     14  C   UNL     1      13.125   8.183  17.559  0.00  0.00    +0.004 C 
ENDBRANCH   6  12
ENDBRANCH  13   7
ENDBRANCH   4  13
BRANCH   4  15
ATOM     15  C   UNL     1      16.078   7.635  19.744  0.00  0.00    +0.156 C 
BRANCH  15  16
ATOM      1  O   UNL     1      17.961   7.582  21.237  0.00  0.00    -0.461 OA
ATOM     16  C   UNL     1      17.380   7.010  20.168  0.00  0.00    +0.119 A 
ATOM     17  C   UNL     1      18.090   5.970  19.676  0.00  0.00    +0.046 A 
ATOM     18  C   UNL     1      19.102   6.876  21.445  0.00  0.00    +0.131 A 
ATOM     19  C   UNL     1      19.229   5.874  20.511  0.00  0.00    +0.047 A 
BRANCH  18  20
ATOM     20  C   UNL     1      19.937   7.307  22.576  0.00  0.00    +0.230 C 
BRANCH  20   2
ATOM      2  O   UNL     1      19.676   6.436  23.678  0.00  0.00    -0.387 OA
ATOM     22  H   UNL     1      19.974   5.544  23.425  0.00  0.00    +0.210 HD
ENDBRANCH  20   2
ENDBRANCH  18  20
ENDBRANCH  15  16
ENDBRANCH   4  15
TORSDOF 7
ENDMDL
MODEL 3
REMARK VINA RESULT:      -5.6     15.261     18.113
REMARK  Name = 11943354
REMARK  8 active torsions:
REMARK  status: ('A' for Active; 'I' for Inactive)
REMARK    1  A    between atoms: O_2  and  C_20
REMARK    2  A    between atoms: N_4  and  C_13
REMARK    3  A    between atoms: N_4  and  C_15
REMARK    4  A    between atoms: C_6  and  C_12
REMARK    5  A    between atoms: C_7  and  C_13
REMARK    6  A    between atoms: C_12  and  C_14
REMARK    7  A    between atoms: C_15  and  C_16
REMARK    8  A    between atoms: C_18  and  C_20
REMARK                            x       y       z     vdW  Elec       q    Type
REMARK                         _______ _______ _______ _____ _____    ______ ____
ROOT
ATOM      4  N   UNL     1      10.396   5.642   4.043  0.00  0.00    -0.308 NA
ATOM     21  H   UNL     1       9.609   6.292   4.018  0.00  0.00    +0.122 HD
ENDROOT
BRANCH   4  13
ATOM     13  C   UNL     1      10.578   5.044   2.756  0.00  0.00    +0.100 C 
BRANCH  13   7
ATOM      3  N   UNL     1      12.762   5.715   1.722  0.00  0.00    -0.298 NA
ATOM      5  C   UNL     1      13.258   3.344   0.772  0.00  0.00    -0.004 C 
ATOM      6  C   UNL     1      12.766   4.293  -0.343  0.00  0.00    +0.006 C 
ATOM      7  C   UNL     1      12.047   4.685   2.523  0.00  0.00    +0.071 C 
ATOM      8  C   UNL     1      12.203   3.284   1.893  0.00  0.00    +0.024 C 
ATOM      9  C   UNL     1      12.351   5.636   0.299  0.00  0.00    +0.088 C 
ATOM     10  C   UNL     1      14.526   3.980   1.375  0.00  0.00    +0.019 C 
ATOM     11  C   UNL     1      14.215   5.427   1.800  0.00  0.00    +0.085 C 
BRANCH   6  12
ATOM     12  C   UNL     1      11.638   3.700  -1.185  0.00  0.00    +0.002 C 
ATOM     14  C   UNL     1      12.091   2.452  -1.916  0.00  0.00    +0.004 C 
ENDBRANCH   6  12
ENDBRANCH  13   7
ENDBRANCH   4  13
BRANCH   4  15
ATOM     15  C   UNL     1      10.164   4.639   5.085  0.00  0.00    +0.156 C 
BRANCH  15  16
ATOM      1  O   UNL     1       9.724   4.450   7.440  0.00  0.00    -0.461 OA
ATOM     16  C   UNL     1       9.805   5.290   6.394  0.00  0.00    +0.119 A 
ATOM     17  C   UNL     1       9.546   6.574   6.727  0.00  0.00    +0.046 A 
ATOM     18  C   UNL     1       9.395   5.231   8.501  0.00  0.00    +0.131 A 
ATOM     19  C   UNL     1       9.274   6.546   8.116  0.00  0.00    +0.047 A 
BRANCH  18  20
ATOM     20  C   UNL     1       9.242   4.545   9.792  0.00  0.00    +0.230 C 
BRANCH  20   2
ATOM      2  O   UNL     1      10.426   4.769  10.559  0.00  0.00    -0.387 OA
ATOM     22  H   UNL     1      10.230   5.470  11.205  0.00  0.00    +0.210 HD
ENDBRANCH  20   2
ENDBRANCH  18  20
ENDBRANCH  15  16
ENDBRANCH   4  15
TORSDOF 7
ENDMDL
MODEL 4
REMARK VINA RESULT:      -5.4     15.100     18.797
REMARK  Name = 11943354
REMARK  8 active torsions:
REMARK  status: ('A' for Active; 'I' for Inactive)
REMARK    1  A    between atoms: O_2  and  C_20
REMARK    2  A    between atoms: N_4  and  C_13
REMARK    3  A    between atoms: N_4  and  C_15
REMARK    4  A    between atoms: C_6  and  C_12
REMARK    5  A    between atoms: C_7  and  C_13
REMARK    6  A    between atoms: C_12  and  C_14
REMARK    7  A    between atoms: C_15  and  C_16
REMARK    8  A    between atoms: C_18  and  C_20
REMARK                            x       y       z     vdW  Elec       q    Type
REMARK                         _______ _______ _______ _____ _____    ______ ____
ROOT
ATOM      4  N   UNL     1      11.939   5.507   3.630  0.00  0.00    -0.308 NA
ATOM     21  H   UNL     1      12.087   4.733   4.279  0.00  0.00    +0.122 HD
ENDROOT
BRANCH   4  13
ATOM     13  C   UNL     1      11.300   6.595   4.304  0.00  0.00    +0.100 C 
BRANCH  13   7
ATOM      3  N   UNL     1       9.794   5.415   5.926  0.00  0.00    -0.298 NA
ATOM      5  C   UNL     1       9.766   7.385   7.626  0.00  0.00    -0.004 C 
ATOM      6  C   UNL     1       8.452   7.338   6.813  0.00  0.00    +0.006 C 
ATOM      7  C   UNL     1      11.020   6.243   5.767  0.00  0.00    +0.071 C 
ATOM      8  C   UNL     1      10.959   7.503   6.659  0.00  0.00    +0.024 C 
ATOM      9  C   UNL     1       8.582   6.246   5.728  0.00  0.00    +0.088 C 
ATOM     10  C   UNL     1       9.896   6.029   8.346  0.00  0.00    +0.019 C 
ATOM     11  C   UNL     1       9.774   4.892   7.314  0.00  0.00    +0.085 C 
BRANCH   6  12
ATOM     12  C   UNL     1       8.067   8.687   6.211  0.00  0.00    +0.002 C 
ATOM     14  C   UNL     1       7.947   8.605   4.702  0.00  0.00    +0.004 C 
ENDBRANCH   6  12
ENDBRANCH  13   7
ENDBRANCH   4  13
BRANCH   4  15
ATOM     15  C   UNL     1      11.154   5.036   2.485  0.00  0.00    +0.156 C 
BRANCH  15  16
ATOM      1  O   UNL     1      13.348   4.388   1.749  0.00  0.00    -0.461 OA
ATOM     16  C   UNL     1      12.044   4.443   1.426  0.00  0.00    +0.119 A 
ATOM     17  C   UNL     1      11.783   3.947   0.196  0.00  0.00    +0.046 A 
ATOM     18  C   UNL     1      13.959   3.828   0.673  0.00  0.00    +0.131 A 
ATOM     19  C   UNL     1      13.040   3.538  -0.310  0.00  0.00    +0.047 A 
BRANCH  18  20
ATOM     20  C   UNL     1      15.415   3.653   0.770  0.00  0.00    +0.230 C 
BRANCH  20   2
ATOM      2  O   UNL     1      15.710   3.087   2.048  0.00  0.00    -0.387 OA
ATOM     22  H   UNL     1      16.296   3.708   2.517  0.00  0.00    +0.210 HD
ENDBRANCH  20   2
ENDBRANCH  18  20
ENDBRANCH  15  16
ENDBRANCH   4  15
TORSDOF 7
ENDMDL
MODEL 5
REMARK VINA RESULT:      -5.4     25.979     27.914
REMARK  Name = 11943354
REMARK  8 active torsions:
REMARK  status: ('A' for Active; 'I' for Inactive)
REMARK    1  A    between atoms: O_2  and  C_20
REMARK    2  A    between atoms: N_4  and  C_13
REMARK    3  A    between atoms: N_4  and  C_15
REMARK    4  A    between atoms: C_6  and  C_12
REMARK    5  A    between atoms: C_7  and  C_13
REMARK    6  A    between atoms: C_12  and  C_14
REMARK    7  A    between atoms: C_15  and  C_16
REMARK    8  A    between atoms: C_18  and  C_20
REMARK                            x       y       z     vdW  Elec       q    Type
REMARK                         _______ _______ _______ _____ _____    ______ ____
ROOT
ATOM      4  N   UNL     1      -3.969 -13.800  16.012  0.00  0.00    -0.308 NA
ATOM     21  H   UNL     1      -3.432 -14.611  16.324  0.00  0.00    +0.122 HD
ENDROOT
BRANCH   4  13
ATOM     13  C   UNL     1      -5.314 -13.890  16.491  0.00  0.00    +0.100 C 
BRANCH  13   7
ATOM      3  N   UNL     1      -6.866 -12.628  18.002  0.00  0.00    -0.298 NA
ATOM      5  C   UNL     1      -5.159 -10.723  18.479  0.00  0.00    -0.004 C 
ATOM      6  C   UNL     1      -6.231 -10.262  17.466  0.00  0.00    +0.006 C 
ATOM      7  C   UNL     1      -5.478 -13.126  17.806  0.00  0.00    +0.071 C 
ATOM      8  C   UNL     1      -4.452 -11.979  17.936  0.00  0.00    +0.024 C 
ATOM      9  C   UNL     1      -7.127 -11.471  17.113  0.00  0.00    +0.088 C 
ATOM     10  C   UNL     1      -5.904 -11.138  19.762  0.00  0.00    +0.019 C 
ATOM     11  C   UNL     1      -6.992 -12.168  19.407  0.00  0.00    +0.085 C 
BRANCH   6  12
ATOM     12  C   UNL     1      -5.641  -9.615  16.215  0.00  0.00    +0.002 C 
ATOM     14  C   UNL     1      -6.082 -10.337  14.957  0.00  0.00    +0.004 C 
ENDBRANCH   6  12
ENDBRANCH  13   7
ENDBRANCH   4  13
BRANCH   4  15
ATOM     15  C   UNL     1      -3.912 -13.713  14.550  0.00  0.00    +0.156 C 
BRANCH  15  16
ATOM      1  O   UNL     1      -2.538 -11.809  15.059  0.00  0.00    -0.461 OA
ATOM     16  C   UNL     1      -3.257 -12.433  14.109  0.00  0.00    +0.119 A 
ATOM     17  C   UNL     1      -3.250 -11.778  12.927  0.00  0.00    +0.046 A 
ATOM     18  C   UNL     1      -2.043 -10.695  14.459  0.00  0.00    +0.131 A 
ATOM     19  C   UNL     1      -2.451 -10.630  13.146  0.00  0.00    +0.047 A 
BRANCH  18  20
ATOM     20  C   UNL     1      -1.206  -9.823  15.295  0.00  0.00    +0.230 C 
BRANCH  20   2
ATOM      2  O   UNL     1      -0.673 -10.608  16.362  0.00  0.00    -0.387 OA
ATOM     22  H   UNL     1      -1.414 -10.861  16.940  0.00  0.00    +0.210 HD
ENDBRANCH  20   2
ENDBRANCH  18  20
ENDBRANCH  15  16
ENDBRANCH   4  15
TORSDOF 7
ENDMDL
MODEL 6
REMARK VINA RESULT:      -5.3      4.013      6.762
REMARK  Name = 11943354
REMARK  8 active torsions:
REMARK  status: ('A' for Active; 'I' for Inactive)
REMARK    1  A    between atoms: O_2  and  C_20
REMARK    2  A    between atoms: N_4  and  C_13
REMARK    3  A    between atoms: N_4  and  C_15
REMARK    4  A    between atoms: C_6  and  C_12
REMARK    5  A    between atoms: C_7  and  C_13
REMARK    6  A    between atoms: C_12  and  C_14
REMARK    7  A    between atoms: C_15  and  C_16
REMARK    8  A    between atoms: C_18  and  C_20
REMARK                            x       y       z     vdW  Elec       q    Type
REMARK                         _______ _______ _______ _____ _____    ______ ____
ROOT
ATOM      4  N   UNL     1      15.724   7.045  19.428  0.00  0.00    -0.308 NA
ATOM     21  H   UNL     1      16.113   7.787  20.012  0.00  0.00    +0.122 HD
ENDROOT
BRANCH   4  13
ATOM     13  C   UNL     1      14.600   6.446  20.081  0.00  0.00    +0.100 C 
BRANCH  13   7
ATOM      3  N   UNL     1      12.279   7.316  19.698  0.00  0.00    -0.298 NA
ATOM      5  C   UNL     1      13.027   9.805  19.580  0.00  0.00    -0.004 C 
ATOM      6  C   UNL     1      12.742   9.247  18.167  0.00  0.00    +0.006 C 
ATOM      7  C   UNL     1      13.553   7.501  20.444  0.00  0.00    +0.071 C 
ATOM      8  C   UNL     1      14.098   8.936  20.265  0.00  0.00    +0.024 C 
ATOM      9  C   UNL     1      12.444   7.735  18.286  0.00  0.00    +0.088 C 
ATOM     10  C   UNL     1      11.727   9.651  20.393  0.00  0.00    +0.019 C 
ATOM     11  C   UNL     1      11.254   8.188  20.322  0.00  0.00    +0.085 C 
BRANCH   6  12
ATOM     12  C   UNL     1      13.866   9.523  17.172  0.00  0.00    +0.002 C 
ATOM     14  C   UNL     1      13.969  11.001  16.850  0.00  0.00    +0.004 C 
ENDBRANCH   6  12
ENDBRANCH  13   7
ENDBRANCH   4  13
BRANCH   4  15
ATOM     15  C   UNL     1      16.770   6.063  19.129  0.00  0.00    +0.156 C 
BRANCH  15  16
ATOM      1  O   UNL     1      17.971   7.434  20.695  0.00  0.00    -0.461 OA
ATOM     16  C   UNL     1      17.990   6.297  19.978  0.00  0.00    +0.119 A 
ATOM     17  C   UNL     1      19.119   5.576  20.162  0.00  0.00    +0.046 A 
ATOM     18  C   UNL     1      19.146   7.447  21.376  0.00  0.00    +0.131 A 
ATOM     19  C   UNL     1      19.888   6.326  21.083  0.00  0.00    +0.047 A 
BRANCH  18  20
ATOM     20  C   UNL     1      19.378   8.605  22.251  0.00  0.00    +0.230 C 
BRANCH  20   2
ATOM      2  O   UNL     1      19.600   8.123  23.577  0.00  0.00    -0.387 OA
ATOM     22  H   UNL     1      20.230   8.726  24.008  0.00  0.00    +0.210 HD
ENDBRANCH  20   2
ENDBRANCH  18  20
ENDBRANCH  15  16
ENDBRANCH   4  15
TORSDOF 7
ENDMDL
MODEL 7
REMARK VINA RESULT:      -5.2     23.669     25.057
REMARK  Name = 11943354
REMARK  8 active torsions:
REMARK  status: ('A' for Active; 'I' for Inactive)
REMARK    1  A    between atoms: O_2  and  C_20
REMARK    2  A    between atoms: N_4  and  C_13
REMARK    3  A    between atoms: N_4  and  C_15
REMARK    4  A    between atoms: C_6  and  C_12
REMARK    5  A    between atoms: C_7  and  C_13
REMARK    6  A    between atoms: C_12  and  C_14
REMARK    7  A    between atoms: C_15  and  C_16
REMARK    8  A    between atoms: C_18  and  C_20
REMARK                            x       y       z     vdW  Elec       q    Type
REMARK                         _______ _______ _______ _____ _____    ______ ____
ROOT
ATOM      4  N   UNL     1     -14.645   8.269  16.746  0.00  0.00    -0.308 NA
ATOM     21  H   UNL     1     -15.633   8.018  16.809  0.00  0.00    +0.122 HD
ENDROOT
BRANCH   4  13
ATOM     13  C   UNL     1     -14.265   9.047  17.884  0.00  0.00    +0.100 C 
BRANCH  13   7
ATOM      3  N   UNL     1     -13.400   8.876  20.233  0.00  0.00    -0.298 NA
ATOM      5  C   UNL     1     -11.149   7.780  19.526  0.00  0.00    -0.004 C 
ATOM      6  C   UNL     1     -10.952   9.275  19.867  0.00  0.00    +0.006 C 
ATOM      7  C   UNL     1     -13.560   8.178  18.929  0.00  0.00    +0.071 C 
ATOM      8  C   UNL     1     -12.204   7.646  18.413  0.00  0.00    +0.024 C 
ATOM      9  C   UNL     1     -12.337   9.905  20.138  0.00  0.00    +0.088 C 
ATOM     10  C   UNL     1     -11.726   7.106  20.785  0.00  0.00    +0.019 C 
ATOM     11  C   UNL     1     -12.982   7.871  21.240  0.00  0.00    +0.085 C 
BRANCH   6  12
ATOM     12  C   UNL     1     -10.184  10.042  18.793  0.00  0.00    +0.002 C 
ATOM     14  C   UNL     1     -10.787  11.413  18.556  0.00  0.00    +0.004 C 
ENDBRANCH   6  12
ENDBRANCH  13   7
ENDBRANCH   4  13
BRANCH   4  15
ATOM     15  C   UNL     1     -14.406   8.985  15.489  0.00  0.00    +0.156 C 
BRANCH  15  16
ATOM      1  O   UNL     1     -12.445   7.978  14.533  0.00  0.00    -0.461 OA
ATOM     16  C   UNL     1     -12.936   9.052  15.176  0.00  0.00    +0.119 A 
ATOM     17  C   UNL     1     -11.998   9.995  15.418  0.00  0.00    +0.046 A 
ATOM     18  C   UNL     1     -11.125   8.242  14.352  0.00  0.00    +0.131 A 
ATOM     19  C   UNL     1     -10.800   9.471  14.878  0.00  0.00    +0.047 A 
BRANCH  18  20
ATOM     20  C   UNL     1     -10.344   7.207  13.660  0.00  0.00    +0.230 C 
BRANCH  20   2
ATOM      2  O   UNL     1      -9.542   7.846  12.665  0.00  0.00    -0.387 OA
ATOM     22  H   UNL     1      -8.927   7.180  12.310  0.00  0.00    +0.210 HD
ENDBRANCH  20   2
ENDBRANCH  18  20
ENDBRANCH  15  16
ENDBRANCH   4  15
TORSDOF 7
ENDMDL
MODEL 8
REMARK VINA RESULT:      -5.2     16.882     19.734
REMARK  Name = 11943354
REMARK  8 active torsions:
REMARK  status: ('A' for Active; 'I' for Inactive)
REMARK    1  A    between atoms: O_2  and  C_20
REMARK    2  A    between atoms: N_4  and  C_13
REMARK    3  A    between atoms: N_4  and  C_15
REMARK    4  A    between atoms: C_6  and  C_12
REMARK    5  A    between atoms: C_7  and  C_13
REMARK    6  A    between atoms: C_12  and  C_14
REMARK    7  A    between atoms: C_15  and  C_16
REMARK    8  A    between atoms: C_18  and  C_20
REMARK                            x       y       z     vdW  Elec       q    Type
REMARK                         _______ _______ _______ _____ _____    ______ ____
ROOT
ATOM      4  N   UNL     1      10.209   5.125   2.318  0.00  0.00    -0.308 NA
ATOM     21  H   UNL     1       9.190   5.165   2.363  0.00  0.00    +0.122 HD
ENDROOT
BRANCH   4  13
ATOM     13  C   UNL     1      10.620   4.298   1.226  0.00  0.00    +0.100 C 
BRANCH  13   7
ATOM      3  N   UNL     1      12.048   5.492  -0.455  0.00  0.00    -0.298 NA
ATOM      5  C   UNL     1      13.730   3.524  -0.706  0.00  0.00    -0.004 C 
ATOM      6  C   UNL     1      12.765   3.582  -1.911  0.00  0.00    +0.006 C 
ATOM      7  C   UNL     1      12.038   4.654   0.774  0.00  0.00    +0.071 C 
ATOM      8  C   UNL     1      12.915   3.395   0.594  0.00  0.00    +0.024 C 
ATOM      9  C   UNL     1      11.703   4.672  -1.641  0.00  0.00    +0.088 C 
ATOM     10  C   UNL     1      14.462   4.879  -0.652  0.00  0.00    +0.019 C 
ATOM     11  C   UNL     1      13.423   6.016  -0.639  0.00  0.00    +0.085 C 
BRANCH   6  12
ATOM     12  C   UNL     1      12.120   2.235  -2.233  0.00  0.00    +0.002 C 
ATOM     14  C   UNL     1      10.780   2.413  -2.919  0.00  0.00    +0.004 C 
ENDBRANCH   6  12
ENDBRANCH  13   7
ENDBRANCH   4  13
BRANCH   4  15
ATOM     15  C   UNL     1      10.733   4.641   3.598  0.00  0.00    +0.156 C 
BRANCH  15  16
ATOM      1  O   UNL     1      10.291   4.740   5.958  0.00  0.00    -0.461 OA
ATOM     16  C   UNL     1       9.994   5.259   4.754  0.00  0.00    +0.119 A 
ATOM     17  C   UNL     1       9.078   6.251   4.819  0.00  0.00    +0.046 A 
ATOM     18  C   UNL     1       9.527   5.430   6.844  0.00  0.00    +0.131 A 
ATOM     19  C   UNL     1       8.762   6.372   6.193  0.00  0.00    +0.047 A 
BRANCH  18  20
ATOM     20  C   UNL     1       9.664   5.050   8.257  0.00  0.00    +0.230 C 
BRANCH  20   2
ATOM      2  O   UNL     1      10.366   3.807   8.316  0.00  0.00    -0.387 OA
ATOM     22  H   UNL     1      10.304   3.477   9.230  0.00  0.00    +0.210 HD
ENDBRANCH  20   2
ENDBRANCH  18  20
ENDBRANCH  15  16
ENDBRANCH   4  15
TORSDOF 7
ENDMDL
MODEL 9
REMARK VINA RESULT:      -5.1     26.552     27.940
REMARK  Name = 11943354
REMARK  8 active torsions:
REMARK  status: ('A' for Active; 'I' for Inactive)
REMARK    1  A    between atoms: O_2  and  C_20
REMARK    2  A    between atoms: N_4  and  C_13
REMARK    3  A    between atoms: N_4  and  C_15
REMARK    4  A    between atoms: C_6  and  C_12
REMARK    5  A    between atoms: C_7  and  C_13
REMARK    6  A    between atoms: C_12  and  C_14
REMARK    7  A    between atoms: C_15  and  C_16
REMARK    8  A    between atoms: C_18  and  C_20
REMARK                            x       y       z     vdW  Elec       q    Type
REMARK                         _______ _______ _______ _____ _____    ______ ____
ROOT
ATOM      4  N   UNL     1      -4.165 -10.627  14.105  0.00  0.00    -0.308 NA
ATOM     21  H   UNL     1      -3.901 -10.005  14.870  0.00  0.00    +0.122 HD
ENDROOT
BRANCH   4  13
ATOM     13  C   UNL     1      -4.554 -11.902  14.622  0.00  0.00    +0.100 C 
BRANCH  13   7
ATOM      3  N   UNL     1      -5.358 -12.785  16.827  0.00  0.00    -0.298 NA
ATOM      5  C   UNL     1      -5.010 -10.527  18.073  0.00  0.00    -0.004 C 
ATOM      6  C   UNL     1      -6.505 -10.759  17.759  0.00  0.00    +0.006 C 
ATOM      7  C   UNL     1      -4.322 -11.974  16.133  0.00  0.00    +0.071 C 
ATOM      8  C   UNL     1      -4.202 -10.568  16.762  0.00  0.00    +0.024 C 
ATOM      9  C   UNL     1      -6.636 -12.036  16.898  0.00  0.00    +0.088 C 
ATOM     10  C   UNL     1      -4.542 -11.716  18.933  0.00  0.00    +0.019 C 
ATOM     11  C   UNL     1      -4.890 -13.032  18.213  0.00  0.00    +0.085 C 
BRANCH   6  12
ATOM     12  C   UNL     1      -7.176  -9.560  17.094  0.00  0.00    +0.002 C 
ATOM     14  C   UNL     1      -7.662  -9.902  15.699  0.00  0.00    +0.004 C 
ENDBRANCH   6  12
ENDBRANCH  13   7
ENDBRANCH   4  13
BRANCH   4  15
ATOM     15  C   UNL     1      -3.048 -10.736  13.162  0.00  0.00    +0.156 C 
BRANCH  15  16
ATOM      1  O   UNL     1      -4.668  -9.730  11.701  0.00  0.00    -0.461 OA
ATOM     16  C   UNL     1      -3.377 -10.073  11.853  0.00  0.00    +0.119 A 
ATOM     17  C   UNL     1      -2.616  -9.749  10.783  0.00  0.00    +0.046 A 
ATOM     18  C   UNL     1      -4.744  -9.157  10.472  0.00  0.00    +0.131 A 
ATOM     19  C   UNL     1      -3.509  -9.144   9.866  0.00  0.00    +0.047 A 
BRANCH  18  20
ATOM     20  C   UNL     1      -6.073  -8.686  10.054  0.00  0.00    +0.230 C 
BRANCH  20   2
ATOM      2  O   UNL     1      -5.895  -7.689   9.047  0.00  0.00    -0.387 OA
ATOM     22  H   UNL     1      -6.778  -7.431   8.729  0.00  0.00    +0.210 HD
ENDBRANCH  20   2
ENDBRANCH  18  20
ENDBRANCH  15  16
ENDBRANCH   4  15
TORSDOF 7
ENDMDL
MODEL 10
REMARK VINA RESULT:      -5.1      1.313      2.249
REMARK  Name = 11943354
REMARK  8 active torsions:
REMARK  status: ('A' for Active; 'I' for Inactive)
REMARK    1  A    between atoms: O_2  and  C_20
REMARK    2  A    between atoms: N_4  and  C_13
REMARK    3  A    between atoms: N_4  and  C_15
REMARK    4  A    between atoms: C_6  and  C_12
REMARK    5  A    between atoms: C_7  and  C_13
REMARK    6  A    between atoms: C_12  and  C_14
REMARK    7  A    between atoms: C_15  and  C_16
REMARK    8  A    between atoms: C_18  and  C_20
REMARK                            x       y       z     vdW  Elec       q    Type
REMARK                         _______ _______ _______ _____ _____    ______ ____
ROOT
ATOM      4  N   UNL     1      11.125   8.718  21.229  0.00  0.00    -0.308 NA
ATOM     21  H   UNL     1      10.204   8.798  20.795  0.00  0.00    +0.122 HD
ENDROOT
BRANCH   4  13
ATOM     13  C   UNL     1      11.672   7.420  20.980  0.00  0.00    +0.100 C 
BRANCH  13   7
ATOM      3  N   UNL     1      13.901   7.553  19.840  0.00  0.00    -0.298 NA
ATOM      5  C   UNL     1      13.061   9.151  17.967  0.00  0.00    -0.004 C 
ATOM      6  C   UNL     1      13.877   9.925  19.026  0.00  0.00    +0.006 C 
ATOM      7  C   UNL     1      12.434   7.393  19.654  0.00  0.00    +0.071 C 
ATOM      8  C   UNL     1      11.884   8.434  18.654  0.00  0.00    +0.024 C 
ATOM      9  C   UNL     1      14.226   8.959  20.181  0.00  0.00    +0.088 C 
ATOM     10  C   UNL     1      13.987   8.060  17.395  0.00  0.00    +0.019 C 
ATOM     11  C   UNL     1      14.563   7.226  18.554  0.00  0.00    +0.085 C 
BRANCH   6  12
ATOM     12  C   UNL     1      13.170  11.179  19.534  0.00  0.00    +0.002 C 
ATOM     14  C   UNL     1      14.090  12.384  19.502  0.00  0.00    +0.004 C 
ENDBRANCH   6  12
ENDBRANCH  13   7
ENDBRANCH   4  13
BRANCH   4  15
ATOM     15  C   UNL     1      11.011   8.999  22.663  0.00  0.00    +0.156 C 
BRANCH  15  16
ATOM      1  O   UNL     1      10.889  10.825  24.220  0.00  0.00    -0.461 OA
ATOM     16  C   UNL     1      11.009  10.480  22.926  0.00  0.00    +0.119 A 
ATOM     17  C   UNL     1      11.106  11.548  22.102  0.00  0.00    +0.046 A 
ATOM     18  C   UNL     1      10.909  12.183  24.232  0.00  0.00    +0.131 A 
ATOM     19  C   UNL     1      11.041  12.677  22.954  0.00  0.00    +0.047 A 
BRANCH  18  20
ATOM     20  C   UNL     1      10.791  12.824  25.549  0.00  0.00    +0.230 C 
BRANCH  20   2
ATOM      2  O   UNL     1      12.078  12.808  26.168  0.00  0.00    -0.387 OA
ATOM     22  H   UNL     1      12.363  11.879  26.230  0.00  0.00    +0.210 HD
ENDBRANCH  20   2
ENDBRANCH  18  20
ENDBRANCH  15  16
ENDBRANCH   4  15
TORSDOF 7
ENDMDL
