MODEL 1
REMARK VINA RESULT:      -7.5      0.000      0.000
REMARK  Name = 25390346
REMARK  8 active torsions:
REMARK  status: ('A' for Active; 'I' for Inactive)
REMARK    1  A    between atoms: O_2  and  C_11
REMARK    2  A    between atoms: O_3  and  C_12
REMARK    3  A    between atoms: N_7  and  C_16
REMARK    4  A    between atoms: C_8  and  C_18
REMARK    5  A    between atoms: C_9  and  C_15
REMARK    6  A    between atoms: C_10  and  C_16
REMARK    7  A    between atoms: C_15  and  C_23
REMARK    8  A    between atoms: C_17  and  C_24
REMARK                            x       y       z     vdW  Elec       q    Type
REMARK                         _______ _______ _______ _____ _____    ______ ____
ROOT
ATOM      1  O   UNL     1      11.259   9.224  20.556  0.00  0.00    -0.366 OA
ATOM      9  C   UNL     1      11.747   7.912  20.221  0.00  0.00    +0.159 C 
ATOM     10  C   UNL     1      10.738   9.202  21.904  0.00  0.00    +0.167 C 
ATOM     11  C   UNL     1      11.925   7.191  21.546  0.00  0.00    +0.175 C 
ATOM     12  C   UNL     1      10.769   7.745  22.352  0.00  0.00    +0.176 C 
ENDROOT
BRANCH  11   2
ATOM      2  O   UNL     1      11.882   5.788  21.397  0.00  0.00    -0.387 OA
ATOM     26  H   UNL     1      11.023   5.485  21.738  0.00  0.00    +0.210 HD
ENDBRANCH  11   2
BRANCH  12   3
ATOM      3  O   UNL     1       9.545   7.132  21.949  0.00  0.00    -0.387 OA
ATOM     27  H   UNL     1       9.154   6.718  22.737  0.00  0.00    +0.210 HD
ENDBRANCH  12   3
BRANCH   9  15
ATOM     15  C   UNL     1      13.032   8.032  19.422  0.00  0.00    +0.130 C 
BRANCH  15  23
ATOM      5  O   UNL     1      14.011   9.954  20.404  0.00  0.00    -0.276 OA
ATOM      6  N   UNL     1      15.097   7.933  20.774  0.00  0.00    -0.301 N 
ATOM     17  C   UNL     1      17.715   6.690  20.911  0.00  0.00    -0.011 C 
ATOM     19  C   UNL     1      16.587   6.109  20.045  0.00  0.00    +0.022 C 
ATOM     20  C   UNL     1      17.527   8.205  21.081  0.00  0.00    +0.022 C 
ATOM     21  C   UNL     1      15.212   6.480  20.599  0.00  0.00    +0.108 C 
ATOM     22  C   UNL     1      16.134   8.533  21.616  0.00  0.00    +0.108 C 
ATOM     23  C   UNL     1      14.086   8.732  20.243  0.00  0.00    +0.218 C 
ATOM     24  C   UNL     1      19.080   6.376  20.306  0.00  0.00    +0.007 C 
ENDBRANCH  15  23
ENDBRANCH   9  15
BRANCH  10  16
ATOM     16  C   UNL     1      11.617  10.107  22.757  0.00  0.00    +0.138 C 
BRANCH  16   7
ATOM      4  O   UNL     1      11.327  11.345  25.373  0.00  0.00    -0.276 OA
ATOM      7  N   UNL     1      10.945  11.332  23.074  0.00  0.00    -0.313 N 
ATOM     18  C   UNL     1      10.857  11.850  24.359  0.00  0.00    +0.216 C 
ATOM     25  H   UNL     1      10.512  11.844  22.310  0.00  0.00    +0.149 HD
BRANCH  18   8
ATOM      8  C   UNL     1      10.113  13.140  24.457  0.00  0.00    +0.075 C 
ATOM     13  C   UNL     1      10.522  14.142  25.497  0.00  0.00    +0.013 C 
ATOM     14  C   UNL     1      10.797  14.410  24.045  0.00  0.00    +0.013 C 
ENDBRANCH  18   8
ENDBRANCH  16   7
ENDBRANCH  10  16
TORSDOF 7
ENDMDL
MODEL 2
REMARK VINA RESULT:      -7.3      3.090      4.130
REMARK  Name = 25390346
REMARK  8 active torsions:
REMARK  status: ('A' for Active; 'I' for Inactive)
REMARK    1  A    between atoms: O_2  and  C_11
REMARK    2  A    between atoms: O_3  and  C_12
REMARK    3  A    between atoms: N_7  and  C_16
REMARK    4  A    between atoms: C_8  and  C_18
REMARK    5  A    between atoms: C_9  and  C_15
REMARK    6  A    between atoms: C_10  and  C_16
REMARK    7  A    between atoms: C_15  and  C_23
REMARK    8  A    between atoms: C_17  and  C_24
REMARK                            x       y       z     vdW  Elec       q    Type
REMARK                         _______ _______ _______ _____ _____    ______ ____
ROOT
ATOM      1  O   UNL     1      10.792   8.197  20.341  0.00  0.00    -0.366 OA
ATOM      9  C   UNL     1      12.054   7.748  19.815  0.00  0.00    +0.159 C 
ATOM     10  C   UNL     1      10.494   7.457  21.546  0.00  0.00    +0.167 C 
ATOM     11  C   UNL     1      12.743   7.029  20.962  0.00  0.00    +0.175 C 
ATOM     12  C   UNL     1      11.569   6.381  21.665  0.00  0.00    +0.176 C 
ENDROOT
BRANCH  11   2
ATOM      2  O   UNL     1      13.704   6.100  20.505  0.00  0.00    -0.387 OA
ATOM     26  H   UNL     1      13.541   5.261  20.969  0.00  0.00    +0.210 HD
ENDBRANCH  11   2
BRANCH  12   3
ATOM      3  O   UNL     1      11.129   5.234  20.939  0.00  0.00    -0.387 OA
ATOM     27  H   UNL     1      10.162   5.296  20.855  0.00  0.00    +0.210 HD
ENDBRANCH  12   3
BRANCH   9  15
ATOM     15  C   UNL     1      12.840   8.934  19.287  0.00  0.00    +0.130 C 
BRANCH  15  23
ATOM      5  O   UNL     1      12.586   7.832  17.205  0.00  0.00    -0.276 OA
ATOM      6  N   UNL     1      13.377  10.016  17.132  0.00  0.00    -0.301 N 
ATOM     17  C   UNL     1      15.305  11.749  15.830  0.00  0.00    -0.011 C 
ATOM     19  C   UNL     1      15.189  11.672  17.360  0.00  0.00    +0.022 C 
ATOM     20  C   UNL     1      14.845  10.427  15.196  0.00  0.00    +0.022 C 
ATOM     21  C   UNL     1      13.781  11.263  17.791  0.00  0.00    +0.108 C 
ATOM     22  C   UNL     1      13.444  10.045  15.669  0.00  0.00    +0.108 C 
ATOM     23  C   UNL     1      12.920   8.871  17.782  0.00  0.00    +0.218 C 
ATOM     24  C   UNL     1      16.734  12.084  15.411  0.00  0.00    +0.007 C 
ENDBRANCH  15  23
ENDBRANCH   9  15
BRANCH  10  16
ATOM     16  C   UNL     1      10.502   8.438  22.710  0.00  0.00    +0.138 C 
BRANCH  16   7
ATOM      4  O   UNL     1      12.669  10.377  22.707  0.00  0.00    -0.276 OA
ATOM      7  N   UNL     1      10.461   9.793  22.245  0.00  0.00    -0.313 N 
ATOM     18  C   UNL     1      11.552  10.651  22.283  0.00  0.00    +0.216 C 
ATOM     25  H   UNL     1       9.581  10.136  21.869  0.00  0.00    +0.149 HD
BRANCH  18   8
ATOM      8  C   UNL     1      11.283  12.017  21.744  0.00  0.00    +0.075 C 
ATOM     13  C   UNL     1      11.896  13.205  22.427  0.00  0.00    +0.013 C 
ATOM     14  C   UNL     1      12.397  12.771  21.080  0.00  0.00    +0.013 C 
ENDBRANCH  18   8
ENDBRANCH  16   7
ENDBRANCH  10  16
TORSDOF 7
ENDMDL
MODEL 3
REMARK VINA RESULT:      -6.9      1.855      7.560
REMARK  Name = 25390346
REMARK  8 active torsions:
REMARK  status: ('A' for Active; 'I' for Inactive)
REMARK    1  A    between atoms: O_2  and  C_11
REMARK    2  A    between atoms: O_3  and  C_12
REMARK    3  A    between atoms: N_7  and  C_16
REMARK    4  A    between atoms: C_8  and  C_18
REMARK    5  A    between atoms: C_9  and  C_15
REMARK    6  A    between atoms: C_10  and  C_16
REMARK    7  A    between atoms: C_15  and  C_23
REMARK    8  A    between atoms: C_17  and  C_24
REMARK                            x       y       z     vdW  Elec       q    Type
REMARK                         _______ _______ _______ _____ _____    ______ ____
ROOT
ATOM      1  O   UNL     1      13.756   7.796  21.302  0.00  0.00    -0.366 OA
ATOM      9  C   UNL     1      12.486   8.439  21.095  0.00  0.00    +0.159 C 
ATOM     10  C   UNL     1      14.031   6.926  20.181  0.00  0.00    +0.167 C 
ATOM     11  C   UNL     1      12.188   8.291  19.612  0.00  0.00    +0.175 C 
ATOM     12  C   UNL     1      12.773   6.925  19.320  0.00  0.00    +0.176 C 
ENDROOT
BRANCH  11   2
ATOM      2  O   UNL     1      10.807   8.379  19.337  0.00  0.00    -0.387 OA
ATOM     26  H   UNL     1      10.645   7.906  18.504  0.00  0.00    +0.210 HD
ENDBRANCH  11   2
BRANCH  12   3
ATOM      3  O   UNL     1      11.905   5.901  19.806  0.00  0.00    -0.387 OA
ATOM     27  H   UNL     1      12.266   5.048  19.509  0.00  0.00    +0.210 HD
ENDBRANCH  12   3
BRANCH   9  15
ATOM     15  C   UNL     1      12.563   9.884  21.553  0.00  0.00    +0.130 C 
BRANCH  15  23
ATOM      5  O   UNL     1      10.514   9.477  22.671  0.00  0.00    -0.276 OA
ATOM      6  N   UNL     1      11.894  11.102  23.596  0.00  0.00    -0.301 N 
ATOM     17  C   UNL     1      11.894  13.728  24.829  0.00  0.00    -0.011 C 
ATOM     19  C   UNL     1      12.817  13.387  23.648  0.00  0.00    +0.022 C 
ATOM     20  C   UNL     1      10.633  12.852  24.786  0.00  0.00    +0.022 C 
ATOM     21  C   UNL     1      13.131  11.892  23.600  0.00  0.00    +0.108 C 
ATOM     22  C   UNL     1      10.992  11.368  24.717  0.00  0.00    +0.108 C 
ATOM     23  C   UNL     1      11.562  10.130  22.653  0.00  0.00    +0.218 C 
ATOM     24  C   UNL     1      11.528  15.209  24.821  0.00  0.00    +0.007 C 
ENDBRANCH  15  23
ENDBRANCH   9  15
BRANCH  10  16
ATOM     16  C   UNL     1      15.250   7.476  19.453  0.00  0.00    +0.138 C 
BRANCH  16   7
ATOM      4  O   UNL     1      17.293   5.645  18.489  0.00  0.00    -0.276 OA
ATOM      7  N   UNL     1      16.463   7.095  20.114  0.00  0.00    -0.313 N 
ATOM     18  C   UNL     1      17.386   6.209  19.573  0.00  0.00    +0.216 C 
ATOM     25  H   UNL     1      16.651   7.500  21.027  0.00  0.00    +0.149 HD
BRANCH  18   8
ATOM      8  C   UNL     1      18.579   5.958  20.434  0.00  0.00    +0.075 C 
ATOM     13  C   UNL     1      19.657   7.000  20.509  0.00  0.00    +0.013 C 
ATOM     14  C   UNL     1      18.758   6.763  21.687  0.00  0.00    +0.013 C 
ENDBRANCH  18   8
ENDBRANCH  16   7
ENDBRANCH  10  16
TORSDOF 7
ENDMDL
MODEL 4
REMARK VINA RESULT:      -6.9      3.895      6.605
REMARK  Name = 25390346
REMARK  8 active torsions:
REMARK  status: ('A' for Active; 'I' for Inactive)
REMARK    1  A    between atoms: O_2  and  C_11
REMARK    2  A    between atoms: O_3  and  C_12
REMARK    3  A    between atoms: N_7  and  C_16
REMARK    4  A    between atoms: C_8  and  C_18
REMARK    5  A    between atoms: C_9  and  C_15
REMARK    6  A    between atoms: C_10  and  C_16
REMARK    7  A    between atoms: C_15  and  C_23
REMARK    8  A    between atoms: C_17  and  C_24
REMARK                            x       y       z     vdW  Elec       q    Type
REMARK                         _______ _______ _______ _____ _____    ______ ____
ROOT
ATOM      1  O   UNL     1      13.456   9.220  19.842  0.00  0.00    -0.366 OA
ATOM      9  C   UNL     1      13.162   8.825  18.490  0.00  0.00    +0.159 C 
ATOM     10  C   UNL     1      12.653   8.430  20.748  0.00  0.00    +0.167 C 
ATOM     11  C   UNL     1      12.490   7.466  18.597  0.00  0.00    +0.175 C 
ATOM     12  C   UNL     1      11.699   7.618  19.879  0.00  0.00    +0.176 C 
ENDROOT
BRANCH  11   2
ATOM      2  O   UNL     1      11.686   7.182  17.473  0.00  0.00    -0.387 OA
ATOM     26  H   UNL     1      12.253   7.247  16.685  0.00  0.00    +0.210 HD
ENDBRANCH  11   2
BRANCH  12   3
ATOM      3  O   UNL     1      10.531   8.406  19.649  0.00  0.00    -0.387 OA
ATOM     27  H   UNL     1      10.532   9.126  20.303  0.00  0.00    +0.210 HD
ENDBRANCH  12   3
BRANCH   9  15
ATOM     15  C   UNL     1      14.441   8.803  17.673  0.00  0.00    +0.130 C 
BRANCH  15  23
ATOM      5  O   UNL     1      13.706   8.552  15.435  0.00  0.00    -0.276 OA
ATOM      6  N   UNL     1      14.481  10.657  16.041  0.00  0.00    -0.301 N 
ATOM     17  C   UNL     1      16.077  12.901  15.128  0.00  0.00    -0.011 C 
ATOM     19  C   UNL     1      16.313  12.243  16.496  0.00  0.00    +0.022 C 
ATOM     20  C   UNL     1      15.471  11.884  14.148  0.00  0.00    +0.022 C 
ATOM     21  C   UNL     1      15.037  11.591  17.028  0.00  0.00    +0.108 C 
ATOM     22  C   UNL     1      14.212  11.242  14.727  0.00  0.00    +0.108 C 
ATOM     23  C   UNL     1      14.174   9.319  16.282  0.00  0.00    +0.218 C 
ATOM     24  C   UNL     1      17.375  13.482  14.574  0.00  0.00    +0.007 C 
ENDBRANCH  15  23
ENDBRANCH   9  15
BRANCH  10  16
ATOM     16  C   UNL     1      13.596   7.561  21.569  0.00  0.00    +0.138 C 
BRANCH  16   7
ATOM      4  O   UNL     1      15.416   5.948  19.975  0.00  0.00    -0.276 OA
ATOM      7  N   UNL     1      14.965   7.843  21.254  0.00  0.00    -0.313 N 
ATOM     18  C   UNL     1      15.762   7.009  20.481  0.00  0.00    +0.216 C 
ATOM     25  H   UNL     1      15.367   8.701  21.621  0.00  0.00    +0.149 HD
BRANCH  18   8
ATOM      8  C   UNL     1      17.157   7.500  20.278  0.00  0.00    +0.075 C 
ATOM     13  C   UNL     1      18.166   7.305  21.373  0.00  0.00    +0.013 C 
ATOM     14  C   UNL     1      18.265   6.502  20.109  0.00  0.00    +0.013 C 
ENDBRANCH  18   8
ENDBRANCH  16   7
ENDBRANCH  10  16
TORSDOF 7
ENDMDL
MODEL 5
REMARK VINA RESULT:      -6.5      2.246      6.390
REMARK  Name = 25390346
REMARK  8 active torsions:
REMARK  status: ('A' for Active; 'I' for Inactive)
REMARK    1  A    between atoms: O_2  and  C_11
REMARK    2  A    between atoms: O_3  and  C_12
REMARK    3  A    between atoms: N_7  and  C_16
REMARK    4  A    between atoms: C_8  and  C_18
REMARK    5  A    between atoms: C_9  and  C_15
REMARK    6  A    between atoms: C_10  and  C_16
REMARK    7  A    between atoms: C_15  and  C_23
REMARK    8  A    between atoms: C_17  and  C_24
REMARK                            x       y       z     vdW  Elec       q    Type
REMARK                         _______ _______ _______ _____ _____    ______ ____
ROOT
ATOM      1  O   UNL     1      13.708   8.053  21.308  0.00  0.00    -0.366 OA
ATOM      9  C   UNL     1      12.365   8.383  21.704  0.00  0.00    +0.159 C 
ATOM     10  C   UNL     1      13.667   6.925  20.404  0.00  0.00    +0.167 C 
ATOM     11  C   UNL     1      11.460   7.722  20.679  0.00  0.00    +0.175 C 
ATOM     12  C   UNL     1      12.220   6.447  20.380  0.00  0.00    +0.176 C 
ENDROOT
BRANCH  11   2
ATOM      2  O   UNL     1      10.162   7.495  21.185  0.00  0.00    -0.387 OA
ATOM     26  H   UNL     1      10.257   7.017  22.026  0.00  0.00    +0.210 HD
ENDBRANCH  11   2
BRANCH  12   3
ATOM      3  O   UNL     1      12.047   5.508  21.441  0.00  0.00    -0.387 OA
ATOM     27  H   UNL     1      11.388   4.855  21.148  0.00  0.00    +0.210 HD
ENDBRANCH  12   3
BRANCH   9  15
ATOM     15  C   UNL     1      12.206   9.892  21.766  0.00  0.00    +0.130 C 
BRANCH  15  23
ATOM      5  O   UNL     1      10.282   9.620  23.121  0.00  0.00    -0.276 OA
ATOM      6  N   UNL     1      11.721  11.352  23.699  0.00  0.00    -0.301 N 
ATOM     17  C   UNL     1      11.800  14.110  24.592  0.00  0.00    -0.011 C 
ATOM     19  C   UNL     1      12.609  13.628  23.378  0.00  0.00    +0.022 C 
ATOM     20  C   UNL     1      10.554  13.232  24.782  0.00  0.00    +0.022 C 
ATOM     21  C   UNL     1      12.939  12.140  23.484  0.00  0.00    +0.108 C 
ATOM     22  C   UNL     1      10.927  11.753  24.861  0.00  0.00    +0.108 C 
ATOM     23  C   UNL     1      11.313  10.269  22.920  0.00  0.00    +0.218 C 
ATOM     24  C   UNL     1      11.412  15.578  24.438  0.00  0.00    +0.007 C 
ENDBRANCH  15  23
ENDBRANCH   9  15
BRANCH  10  16
ATOM     16  C   UNL     1      14.159   7.400  19.044  0.00  0.00    +0.138 C 
BRANCH  16   7
ATOM      4  O   UNL     1      12.817   9.674  17.825  0.00  0.00    -0.276 OA
ATOM      7  N   UNL     1      14.557   8.776  19.089  0.00  0.00    -0.313 N 
ATOM     18  C   UNL     1      13.849   9.800  18.473  0.00  0.00    +0.216 C 
ATOM     25  H   UNL     1      15.404   9.007  19.601  0.00  0.00    +0.149 HD
BRANCH  18   8
ATOM      8  C   UNL     1      14.444  11.158  18.652  0.00  0.00    +0.075 C 
ATOM     13  C   UNL     1      13.638  12.225  19.332  0.00  0.00    +0.013 C 
ATOM     14  C   UNL     1      14.818  11.615  20.031  0.00  0.00    +0.013 C 
ENDBRANCH  18   8
ENDBRANCH  16   7
ENDBRANCH  10  16
TORSDOF 7
ENDMDL
MODEL 6
REMARK VINA RESULT:      -6.4     26.391     27.956
REMARK  Name = 25390346
REMARK  8 active torsions:
REMARK  status: ('A' for Active; 'I' for Inactive)
REMARK    1  A    between atoms: O_2  and  C_11
REMARK    2  A    between atoms: O_3  and  C_12
REMARK    3  A    between atoms: N_7  and  C_16
REMARK    4  A    between atoms: C_8  and  C_18
REMARK    5  A    between atoms: C_9  and  C_15
REMARK    6  A    between atoms: C_10  and  C_16
REMARK    7  A    between atoms: C_15  and  C_23
REMARK    8  A    between atoms: C_17  and  C_24
REMARK                            x       y       z     vdW  Elec       q    Type
REMARK                         _______ _______ _______ _____ _____    ______ ____
ROOT
ATOM      1  O   UNL     1      -6.350 -11.059  16.794  0.00  0.00    -0.366 OA
ATOM      9  C   UNL     1      -4.960 -11.396  16.951  0.00  0.00    +0.159 C 
ATOM     10  C   UNL     1      -7.091 -11.586  17.919  0.00  0.00    +0.167 C 
ATOM     11  C   UNL     1      -4.787 -11.756  18.416  0.00  0.00    +0.175 C 
ATOM     12  C   UNL     1      -6.108 -12.431  18.722  0.00  0.00    +0.176 C 
ENDROOT
BRANCH  11   2
ATOM      2  O   UNL     1      -3.669 -12.590  18.630  0.00  0.00    -0.387 OA
ATOM     26  H   UNL     1      -2.885 -12.116  18.304  0.00  0.00    +0.210 HD
ENDBRANCH  11   2
BRANCH  12   3
ATOM      3  O   UNL     1      -6.123 -13.754  18.187  0.00  0.00    -0.387 OA
ATOM     27  H   UNL     1      -5.198 -14.019  18.041  0.00  0.00    +0.210 HD
ENDBRANCH  12   3
BRANCH   9  15
ATOM     15  C   UNL     1      -4.097 -10.227  16.510  0.00  0.00    +0.130 C 
BRANCH  15  23
ATOM      5  O   UNL     1      -1.830 -10.853  16.220  0.00  0.00    -0.276 OA
ATOM      6  N   UNL     1      -3.197 -11.012  14.348  0.00  0.00    -0.301 N 
ATOM     17  C   UNL     1      -3.293 -10.527  11.489  0.00  0.00    -0.011 C 
ATOM     19  C   UNL     1      -4.381 -10.000  12.437  0.00  0.00    +0.022 C 
ATOM     20  C   UNL     1      -1.962 -10.680  12.241  0.00  0.00    +0.022 C 
ATOM     21  C   UNL     1      -4.500 -10.870  13.687  0.00  0.00    +0.108 C 
ATOM     22  C   UNL     1      -2.131 -11.539  13.494  0.00  0.00    +0.108 C 
ATOM     23  C   UNL     1      -2.936 -10.725  15.687  0.00  0.00    +0.218 C 
ATOM     24  C   UNL     1      -3.132  -9.607  10.282  0.00  0.00    +0.007 C 
ENDBRANCH  15  23
ENDBRANCH   9  15
BRANCH  10  16
ATOM     16  C   UNL     1      -7.643 -10.406  18.706  0.00  0.00    +0.138 C 
BRANCH  16   7
ATOM      4  O   UNL     1     -10.369  -9.689  17.989  0.00  0.00    -0.276 OA
ATOM      7  N   UNL     1      -8.068  -9.353  17.832  0.00  0.00    -0.313 N 
ATOM     18  C   UNL     1      -9.400  -9.083  17.547  0.00  0.00    +0.216 C 
ATOM     25  H   UNL     1      -7.349  -8.778  17.402  0.00  0.00    +0.149 HD
BRANCH  18   8
ATOM      8  C   UNL     1      -9.612  -7.938  16.612  0.00  0.00    +0.075 C 
ATOM     13  C   UNL     1     -10.691  -8.034  15.573  0.00  0.00    +0.013 C 
ATOM     14  C   UNL     1     -10.856  -7.110  16.744  0.00  0.00    +0.013 C 
ENDBRANCH  18   8
ENDBRANCH  16   7
ENDBRANCH  10  16
TORSDOF 7
ENDMDL
MODEL 7
REMARK VINA RESULT:      -6.4     16.052     18.099
REMARK  Name = 25390346
REMARK  8 active torsions:
REMARK  status: ('A' for Active; 'I' for Inactive)
REMARK    1  A    between atoms: O_2  and  C_11
REMARK    2  A    between atoms: O_3  and  C_12
REMARK    3  A    between atoms: N_7  and  C_16
REMARK    4  A    between atoms: C_8  and  C_18
REMARK    5  A    between atoms: C_9  and  C_15
REMARK    6  A    between atoms: C_10  and  C_16
REMARK    7  A    between atoms: C_15  and  C_23
REMARK    8  A    between atoms: C_17  and  C_24
REMARK                            x       y       z     vdW  Elec       q    Type
REMARK                         _______ _______ _______ _____ _____    ______ ____
ROOT
ATOM      1  O   UNL     1       9.363   5.913   6.224  0.00  0.00    -0.366 OA
ATOM      9  C   UNL     1      10.758   5.717   5.931  0.00  0.00    +0.159 C 
ATOM     10  C   UNL     1       9.235   6.455   7.558  0.00  0.00    +0.167 C 
ATOM     11  C   UNL     1      11.513   6.566   6.940  0.00  0.00    +0.175 C 
ATOM     12  C   UNL     1      10.633   6.435   8.166  0.00  0.00    +0.176 C 
ENDROOT
BRANCH  11   2
ATOM      2  O   UNL     1      12.830   6.103   7.143  0.00  0.00    -0.387 OA
ATOM     26  H   UNL     1      13.234   5.981   6.268  0.00  0.00    +0.210 HD
ENDBRANCH  11   2
BRANCH  12   3
ATOM      3  O   UNL     1      10.830   5.163   8.782  0.00  0.00    -0.387 OA
ATOM     27  H   UNL     1      10.867   4.498   8.072  0.00  0.00    +0.210 HD
ENDBRANCH  12   3
BRANCH   9  15
ATOM     15  C   UNL     1      11.037   6.103   4.489  0.00  0.00    +0.130 C 
BRANCH  15  23
ATOM      5  O   UNL     1      10.312   3.916   3.936  0.00  0.00    -0.276 OA
ATOM      6  N   UNL     1      11.828   4.905   2.479  0.00  0.00    -0.301 N 
ATOM     17  C   UNL     1      14.188   4.388   0.873  0.00  0.00    -0.011 C 
ATOM     19  C   UNL     1      14.120   5.566   1.858  0.00  0.00    +0.022 C 
ATOM     20  C   UNL     1      13.258   3.256   1.335  0.00  0.00    +0.022 C 
ATOM     21  C   UNL     1      12.680   6.029   2.073  0.00  0.00    +0.108 C 
ATOM     22  C   UNL     1      11.836   3.766   1.559  0.00  0.00    +0.108 C 
ATOM     23  C   UNL     1      11.021   4.875   3.615  0.00  0.00    +0.218 C 
ATOM     24  C   UNL     1      15.622   3.887   0.725  0.00  0.00    +0.007 C 
ENDBRANCH  15  23
ENDBRANCH   9  15
BRANCH  10  16
ATOM     16  C   UNL     1       8.659   7.859   7.437  0.00  0.00    +0.138 C 
BRANCH  16   7
ATOM      4  O   UNL     1       9.481   9.337   5.072  0.00  0.00    -0.276 OA
ATOM      7  N   UNL     1       7.934   8.018   6.211  0.00  0.00    -0.313 N 
ATOM     18  C   UNL     1       8.409   8.746   5.128  0.00  0.00    +0.216 C 
ATOM     25  H   UNL     1       7.025   7.570   6.139  0.00  0.00    +0.149 HD
BRANCH  18   8
ATOM      8  C   UNL     1       7.489   8.776   3.952  0.00  0.00    +0.075 C 
ATOM     13  C   UNL     1       7.279  10.070   3.223  0.00  0.00    +0.013 C 
ATOM     14  C   UNL     1       8.065   8.965   2.580  0.00  0.00    +0.013 C 
ENDBRANCH  18   8
ENDBRANCH  16   7
ENDBRANCH  10  16
TORSDOF 7
ENDMDL
MODEL 8
REMARK VINA RESULT:      -6.3     26.759     28.208
REMARK  Name = 25390346
REMARK  8 active torsions:
REMARK  status: ('A' for Active; 'I' for Inactive)
REMARK    1  A    between atoms: O_2  and  C_11
REMARK    2  A    between atoms: O_3  and  C_12
REMARK    3  A    between atoms: N_7  and  C_16
REMARK    4  A    between atoms: C_8  and  C_18
REMARK    5  A    between atoms: C_9  and  C_15
REMARK    6  A    between atoms: C_10  and  C_16
REMARK    7  A    between atoms: C_15  and  C_23
REMARK    8  A    between atoms: C_17  and  C_24
REMARK                            x       y       z     vdW  Elec       q    Type
REMARK                         _______ _______ _______ _____ _____    ______ ____
ROOT
ATOM      1  O   UNL     1      -5.799 -12.424  16.389  0.00  0.00    -0.366 OA
ATOM      9  C   UNL     1      -4.465 -11.883  16.389  0.00  0.00    +0.159 C 
ATOM     10  C   UNL     1      -6.132 -12.854  17.728  0.00  0.00    +0.167 C 
ATOM     11  C   UNL     1      -4.147 -11.577  17.843  0.00  0.00    +0.175 C 
ATOM     12  C   UNL     1      -4.859 -12.709  18.554  0.00  0.00    +0.176 C 
ENDROOT
BRANCH  11   2
ATOM      2  O   UNL     1      -2.757 -11.549  18.087  0.00  0.00    -0.387 OA
ATOM     26  H   UNL     1      -2.503 -10.619  18.215  0.00  0.00    +0.210 HD
ENDBRANCH  11   2
BRANCH  12   3
ATOM      3  O   UNL     1      -4.112 -13.919  18.432  0.00  0.00    -0.387 OA
ATOM     27  H   UNL     1      -3.677 -14.080  19.287  0.00  0.00    +0.210 HD
ENDBRANCH  12   3
BRANCH   9  15
ATOM     15  C   UNL     1      -4.407 -10.662  15.489  0.00  0.00    +0.130 C 
BRANCH  15  23
ATOM      5  O   UNL     1      -2.069 -10.665  15.107  0.00  0.00    -0.276 OA
ATOM      6  N   UNL     1      -3.426 -10.877  13.232  0.00  0.00    -0.301 N 
ATOM     17  C   UNL     1      -3.743 -10.018  10.480  0.00  0.00    -0.011 C 
ATOM     19  C   UNL     1      -4.890  -9.917  11.497  0.00  0.00    +0.022 C 
ATOM     20  C   UNL     1      -2.388  -9.949  11.200  0.00  0.00    +0.022 C 
ATOM     21  C   UNL     1      -4.748 -10.964  12.602  0.00  0.00    +0.108 C 
ATOM     22  C   UNL     1      -2.297 -10.996  12.308  0.00  0.00    +0.108 C 
ATOM     23  C   UNL     1      -3.192 -10.735  14.599  0.00  0.00    +0.218 C 
ATOM     24  C   UNL     1      -3.855  -8.920   9.426  0.00  0.00    +0.007 C 
ENDBRANCH  15  23
ENDBRANCH   9  15
BRANCH  10  16
ATOM     16  C   UNL     1      -7.270 -11.976  18.229  0.00  0.00    +0.138 C 
BRANCH  16   7
ATOM      4  O   UNL     1      -7.230  -9.213  17.322  0.00  0.00    -0.276 OA
ATOM      7  N   UNL     1      -8.003 -11.404  17.138  0.00  0.00    -0.313 N 
ATOM     18  C   UNL     1      -7.920 -10.066  16.775  0.00  0.00    +0.216 C 
ATOM     25  H   UNL     1      -8.613 -12.018  16.606  0.00  0.00    +0.149 HD
BRANCH  18   8
ATOM      8  C   UNL     1      -8.768  -9.689  15.606  0.00  0.00    +0.075 C 
ATOM     13  C   UNL     1      -8.214  -9.850  14.221  0.00  0.00    +0.013 C 
ATOM     14  C   UNL     1      -9.296 -10.769  14.709  0.00  0.00    +0.013 C 
ENDBRANCH  18   8
ENDBRANCH  16   7
ENDBRANCH  10  16
TORSDOF 7
ENDMDL
MODEL 9
REMARK VINA RESULT:      -6.1     19.092     21.921
REMARK  Name = 25390346
REMARK  8 active torsions:
REMARK  status: ('A' for Active; 'I' for Inactive)
REMARK    1  A    between atoms: O_2  and  C_11
REMARK    2  A    between atoms: O_3  and  C_12
REMARK    3  A    between atoms: N_7  and  C_16
REMARK    4  A    between atoms: C_8  and  C_18
REMARK    5  A    between atoms: C_9  and  C_15
REMARK    6  A    between atoms: C_10  and  C_16
REMARK    7  A    between atoms: C_15  and  C_23
REMARK    8  A    between atoms: C_17  and  C_24
REMARK                            x       y       z     vdW  Elec       q    Type
REMARK                         _______ _______ _______ _____ _____    ______ ____
ROOT
ATOM      1  O   UNL     1      13.579   5.437   0.009  0.00  0.00    -0.366 OA
ATOM      9  C   UNL     1      13.853   5.050   1.368  0.00  0.00    +0.159 C 
ATOM     10  C   UNL     1      14.461   4.709  -0.875  0.00  0.00    +0.167 C 
ATOM     11  C   UNL     1      14.616   3.739   1.275  0.00  0.00    +0.175 C 
ATOM     12  C   UNL     1      15.438   3.954   0.021  0.00  0.00    +0.176 C 
ENDROOT
BRANCH  11   2
ATOM      2  O   UNL     1      15.400   3.499   2.423  0.00  0.00    -0.387 OA
ATOM     26  H   UNL     1      14.872   2.949   3.026  0.00  0.00    +0.210 HD
ENDBRANCH  11   2
BRANCH  12   3
ATOM      3  O   UNL     1      16.543   4.815   0.295  0.00  0.00    -0.387 OA
ATOM     27  H   UNL     1      16.260   5.442   0.983  0.00  0.00    +0.210 HD
ENDBRANCH  12   3
BRANCH   9  15
ATOM     15  C   UNL     1      12.552   4.937   2.141  0.00  0.00    +0.130 C 
BRANCH  15  23
ATOM      5  O   UNL     1      13.348   6.901   3.200  0.00  0.00    -0.276 OA
ATOM      6  N   UNL     1      11.361   6.015   4.017  0.00  0.00    -0.301 N 
ATOM     17  C   UNL     1       9.894   5.451   6.456  0.00  0.00    -0.011 C 
ATOM     19  C   UNL     1      10.116   4.379   5.378  0.00  0.00    +0.022 C 
ATOM     20  C   UNL     1      11.025   6.490   6.412  0.00  0.00    +0.022 C 
ATOM     21  C   UNL     1      10.294   5.007   3.996  0.00  0.00    +0.108 C 
ATOM     22  C   UNL     1      11.183   7.076   5.010  0.00  0.00    +0.108 C 
ATOM     23  C   UNL     1      12.462   6.041   3.163  0.00  0.00    +0.218 C 
ATOM     24  C   UNL     1       9.793   4.816   7.840  0.00  0.00    +0.007 C 
ENDBRANCH  15  23
ENDBRANCH   9  15
BRANCH  10  16
ATOM     16  C   UNL     1      13.606   3.787  -1.732  0.00  0.00    +0.138 C 
BRANCH  16   7
ATOM      4  O   UNL     1      10.746   3.273  -1.604  0.00  0.00    -0.276 OA
ATOM      7  N   UNL     1      12.558   4.514  -2.386  0.00  0.00    -0.313 N 
ATOM     18  C   UNL     1      11.212   4.194  -2.266  0.00  0.00    +0.216 C 
ATOM     25  H   UNL     1      12.823   5.304  -2.967  0.00  0.00    +0.149 HD
BRANCH  18   8
ATOM      8  C   UNL     1      10.293   5.087  -3.033  0.00  0.00    +0.075 C 
ATOM     13  C   UNL     1       9.029   4.516  -3.606  0.00  0.00    +0.013 C 
ATOM     14  C   UNL     1       8.967   5.454  -2.436  0.00  0.00    +0.013 C 
ENDBRANCH  18   8
ENDBRANCH  16   7
ENDBRANCH  10  16
TORSDOF 7
ENDMDL
MODEL 10
REMARK VINA RESULT:      -6.1      2.288      6.503
REMARK  Name = 25390346
REMARK  8 active torsions:
REMARK  status: ('A' for Active; 'I' for Inactive)
REMARK    1  A    between atoms: O_2  and  C_11
REMARK    2  A    between atoms: O_3  and  C_12
REMARK    3  A    between atoms: N_7  and  C_16
REMARK    4  A    between atoms: C_8  and  C_18
REMARK    5  A    between atoms: C_9  and  C_15
REMARK    6  A    between atoms: C_10  and  C_16
REMARK    7  A    between atoms: C_15  and  C_23
REMARK    8  A    between atoms: C_17  and  C_24
REMARK                            x       y       z     vdW  Elec       q    Type
REMARK                         _______ _______ _______ _____ _____    ______ ____
ROOT
ATOM      1  O   UNL     1      13.678   8.568  22.029  0.00  0.00    -0.366 OA
ATOM      9  C   UNL     1      12.566   7.688  21.782  0.00  0.00    +0.159 C 
ATOM     10  C   UNL     1      14.722   8.287  21.069  0.00  0.00    +0.167 C 
ATOM     11  C   UNL     1      12.765   7.162  20.370  0.00  0.00    +0.175 C 
ATOM     12  C   UNL     1      14.273   7.051  20.296  0.00  0.00    +0.176 C 
ENDROOT
BRANCH  11   2
ATOM      2  O   UNL     1      12.102   5.934  20.164  0.00  0.00    -0.387 OA
ATOM     26  H   UNL     1      11.955   5.532  21.036  0.00  0.00    +0.210 HD
ENDBRANCH  11   2
BRANCH  12   3
ATOM      3  O   UNL     1      14.720   5.898  21.009  0.00  0.00    -0.387 OA
ATOM     27  H   UNL     1      15.223   5.347  20.385  0.00  0.00    +0.210 HD
ENDBRANCH  12   3
BRANCH   9  15
ATOM     15  C   UNL     1      11.264   8.445  21.966  0.00  0.00    +0.130 C 
BRANCH  15  23
ATOM      5  O   UNL     1      11.600   9.936  20.155  0.00  0.00    -0.276 OA
ATOM      6  N   UNL     1      11.228  10.901  22.237  0.00  0.00    -0.301 N 
ATOM     17  C   UNL     1      12.081  13.047  23.992  0.00  0.00    -0.011 C 
ATOM     19  C   UNL     1      12.000  11.590  24.473  0.00  0.00    +0.022 C 
ATOM     20  C   UNL     1      12.329  13.092  22.476  0.00  0.00    +0.022 C 
ATOM     21  C   UNL     1      10.966  10.797  23.677  0.00  0.00    +0.108 C 
ATOM     22  C   UNL     1      11.286  12.269  21.721  0.00  0.00    +0.108 C 
ATOM     23  C   UNL     1      11.379   9.823  21.365  0.00  0.00    +0.218 C 
ATOM     24  C   UNL     1      13.169  13.808  24.743  0.00  0.00    +0.007 C 
ENDBRANCH  15  23
ENDBRANCH   9  15
BRANCH  10  16
ATOM     16  C   UNL     1      14.885   9.515  20.185  0.00  0.00    +0.138 C 
BRANCH  16   7
ATOM      4  O   UNL     1      15.019  11.308  17.899  0.00  0.00    -0.276 OA
ATOM      7  N   UNL     1      14.537   9.224  18.825  0.00  0.00    -0.313 N 
ATOM     18  C   UNL     1      14.634  10.149  17.793  0.00  0.00    +0.216 C 
ATOM     25  H   UNL     1      14.201   8.289  18.613  0.00  0.00    +0.149 HD
BRANCH  18   8
ATOM      8  C   UNL     1      14.220   9.629  16.457  0.00  0.00    +0.075 C 
ATOM     13  C   UNL     1      12.758   9.497  16.145  0.00  0.00    +0.013 C 
ATOM     14  C   UNL     1      13.575  10.566  15.478  0.00  0.00    +0.013 C 
ENDBRANCH  18   8
ENDBRANCH  16   7
ENDBRANCH  10  16
TORSDOF 7
ENDMDL
