MODEL 1
REMARK VINA RESULT:      -8.0      0.000      0.000
REMARK  Name = 44716705
REMARK  9 active torsions:
REMARK  status: ('A' for Active; 'I' for Inactive)
REMARK    1  A    between atoms: O_2  and  C_11
REMARK    2  A    between atoms: O_5  and  C_35
REMARK    3  A    between atoms: O_5  and  C_36
REMARK    4  A    between atoms: C_9  and  C_17
REMARK    5  A    between atoms: C_12  and  C_18
REMARK    6  A    between atoms: C_14  and  C_21
REMARK    7  A    between atoms: C_18  and  C_22
REMARK    8  A    between atoms: C_18  and  C_23
REMARK    9  A    between atoms: C_29  and  C_30
REMARK                            x       y       z     vdW  Elec       q    Type
REMARK                         _______ _______ _______ _____ _____    ______ ____
ROOT
ATOM      1  S   UNL     1      -5.578 -10.284   6.750  0.00  0.00    -0.057 S 
ATOM      4  O   UNL     1      -9.079  -7.180   6.849  0.00  0.00    -0.270 OA
ATOM      6  N   UNL     1      -7.015  -8.812   8.316  0.00  0.00    -0.229 NA
ATOM      8  N   UNL     1      -7.504  -8.692   5.958  0.00  0.00    -0.261 N 
ATOM      9  C   UNL     1      -3.824 -10.631  10.454  0.00  0.00    -0.022 C 
ATOM     10  C   UNL     1      -5.148 -10.399  11.284  0.00  0.00    +0.033 C 
ATOM     11  C   UNL     1      -4.836 -10.098  12.777  0.00  0.00    +0.123 C 
ATOM     12  C   UNL     1      -3.903 -11.149  13.416  0.00  0.00    +0.029 C 
ATOM     13  C   UNL     1      -2.958 -11.711  11.147  0.00  0.00    +0.008 C 
ATOM     14  C   UNL     1      -6.090  -9.321  10.606  0.00  0.00    +0.042 C 
ATOM     15  C   UNL     1      -2.633 -11.377  12.596  0.00  0.00    +0.007 C 
ATOM     16  C   UNL     1      -4.179 -11.161   9.030  0.00  0.00    +0.051 C 
ATOM     17  C   UNL     1      -2.990  -9.331  10.313  0.00  0.00    +0.012 C 
ATOM     19  C   UNL     1      -6.126  -9.514   9.109  0.00  0.00    +0.057 A 
ATOM     20  C   UNL     1      -5.256 -10.335   8.421  0.00  0.00    +0.015 A 
ATOM     21  C   UNL     1      -7.518  -9.326  11.169  0.00  0.00    +0.014 C 
ATOM     24  C   UNL     1      -6.826  -9.147   7.057  0.00  0.00    +0.165 A 
ATOM     29  C   UNL     1      -8.569  -7.758   5.895  0.00  0.00    +0.250 C 
ATOM     38  H   UNL     1      -7.144  -9.073   5.088  0.00  0.00    +0.157 HD
ENDROOT
BRANCH  29  30
ATOM     30  C   UNL     1      -9.085  -7.443   4.537  0.00  0.00    +0.037 A 
ATOM     31  C   UNL     1     -10.369  -6.922   4.383  0.00  0.00    +0.016 A 
ATOM     32  C   UNL     1      -8.286  -7.672   3.417  0.00  0.00    +0.016 A 
ATOM     33  C   UNL     1     -10.855  -6.628   3.109  0.00  0.00    +0.046 A 
ATOM     34  C   UNL     1      -8.771  -7.379   2.143  0.00  0.00    +0.046 A 
ATOM     35  C   UNL     1     -10.056  -6.856   1.989  0.00  0.00    +0.120 A 
BRANCH  35   5
ATOM      5  O   UNL     1     -10.529  -6.570   0.745  0.00  0.00    -0.495 OA
ATOM     36  C   UNL     1     -11.208  -5.326   0.580  0.00  0.00    +0.277 C 
ENDBRANCH  35   5
ENDBRANCH  29  30
BRANCH  11   2
ATOM      2  O   UNL     1      -6.051 -10.100  13.525  0.00  0.00    -0.391 OA
ATOM     37  H   UNL     1      -6.090  -9.276  14.039  0.00  0.00    +0.210 HD
ENDBRANCH  11   2
BRANCH  12  18
ATOM     18  C   UNL     1      -3.524 -10.774  14.854  0.00  0.00    +0.078 C 
ATOM     22  C   UNL     1      -2.054 -10.413  14.957  0.00  0.00    +0.017 C 
BRANCH  18  23
ATOM      3  O   UNL     1      -3.540 -13.090  15.412  0.00  0.00    -0.275 OA
ATOM      7  N   UNL     1      -4.461 -11.628  16.947  0.00  0.00    -0.301 N 
ATOM     23  C   UNL     1      -3.835 -11.943  15.754  0.00  0.00    +0.219 C 
ATOM     25  C   UNL     1      -4.832 -10.296  17.412  0.00  0.00    +0.108 C 
ATOM     26  C   UNL     1      -4.832 -12.644  17.920  0.00  0.00    +0.108 C 
ATOM     27  C   UNL     1      -5.720 -10.550  18.621  0.00  0.00    +0.020 C 
ATOM     28  C   UNL     1      -5.174 -11.859  19.178  0.00  0.00    +0.020 C 
ENDBRANCH  18  23
ENDBRANCH  12  18
TORSDOF 5
ENDMDL
MODEL 2
REMARK VINA RESULT:      -7.3     29.394     32.804
REMARK  Name = 44716705
REMARK  9 active torsions:
REMARK  status: ('A' for Active; 'I' for Inactive)
REMARK    1  A    between atoms: O_2  and  C_11
REMARK    2  A    between atoms: O_5  and  C_35
REMARK    3  A    between atoms: O_5  and  C_36
REMARK    4  A    between atoms: C_9  and  C_17
REMARK    5  A    between atoms: C_12  and  C_18
REMARK    6  A    between atoms: C_14  and  C_21
REMARK    7  A    between atoms: C_18  and  C_22
REMARK    8  A    between atoms: C_18  and  C_23
REMARK    9  A    between atoms: C_29  and  C_30
REMARK                            x       y       z     vdW  Elec       q    Type
REMARK                         _______ _______ _______ _____ _____    ______ ____
ROOT
ATOM      1  S   UNL     1      17.667   5.828  19.251  0.00  0.00    -0.057 S 
ATOM      4  O   UNL     1      21.193   6.462  22.262  0.00  0.00    -0.270 OA
ATOM      6  N   UNL     1      18.452   7.230  21.277  0.00  0.00    -0.229 NA
ATOM      8  N   UNL     1      19.974   5.547  20.464  0.00  0.00    -0.261 N 
ATOM      9  C   UNL     1      14.388   8.056  20.347  0.00  0.00    -0.022 C 
ATOM     10  C   UNL     1      15.206   9.271  20.939  0.00  0.00    +0.033 C 
ATOM     11  C   UNL     1      14.302  10.197  21.800  0.00  0.00    +0.123 C 
ATOM     12  C   UNL     1      13.022  10.640  21.058  0.00  0.00    +0.029 C 
ATOM     13  C   UNL     1      13.138   8.584  19.603  0.00  0.00    +0.008 C 
ATOM     14  C   UNL     1      16.516   8.792  21.691  0.00  0.00    +0.042 C 
ATOM     15  C   UNL     1      12.248   9.458  20.475  0.00  0.00    +0.007 C 
ATOM     16  C   UNL     1      15.261   7.289  19.307  0.00  0.00    +0.051 C 
ATOM     17  C   UNL     1      13.935   7.066  21.451  0.00  0.00    +0.012 C 
ATOM     19  C   UNL     1      17.197   7.689  20.918  0.00  0.00    +0.057 A 
ATOM     20  C   UNL     1      16.616   7.021  19.859  0.00  0.00    +0.015 A 
ATOM     21  C   UNL     1      17.508   9.931  21.964  0.00  0.00    +0.014 C 
ATOM     24  C   UNL     1      18.806   6.260  20.461  0.00  0.00    +0.165 A 
ATOM     29  C   UNL     1      21.087   5.668  21.333  0.00  0.00    +0.250 C 
ATOM     38  H   UNL     1      19.993   4.820  19.755  0.00  0.00    +0.157 HD
ENDROOT
BRANCH  29  30
ATOM     30  C   UNL     1      22.209   4.722  21.099  0.00  0.00    +0.037 A 
ATOM     31  C   UNL     1      23.370   5.161  20.464  0.00  0.00    +0.016 A 
ATOM     32  C   UNL     1      22.100   3.395  21.512  0.00  0.00    +0.016 A 
ATOM     33  C   UNL     1      24.423   4.273  20.242  0.00  0.00    +0.046 A 
ATOM     34  C   UNL     1      23.151   2.506  21.290  0.00  0.00    +0.046 A 
ATOM     35  C   UNL     1      24.313   2.946  20.655  0.00  0.00    +0.120 A 
BRANCH  35   5
ATOM      5  O   UNL     1      25.340   2.078  20.439  0.00  0.00    -0.495 OA
ATOM     36  C   UNL     1      26.037   1.599  21.588  0.00  0.00    +0.277 C 
ENDBRANCH  35   5
ENDBRANCH  29  30
BRANCH  11   2
ATOM      2  O   UNL     1      15.023  11.381  22.141  0.00  0.00    -0.391 OA
ATOM     37  H   UNL     1      14.399  12.126  22.134  0.00  0.00    +0.210 HD
ENDBRANCH  11   2
BRANCH  12  18
ATOM     18  C   UNL     1      12.096  11.464  21.961  0.00  0.00    +0.078 C 
ATOM     22  C   UNL     1      10.877  10.661  22.375  0.00  0.00    +0.017 C 
BRANCH  18  23
ATOM      3  O   UNL     1      12.043  12.889  20.054  0.00  0.00    -0.275 OA
ATOM      7  N   UNL     1      10.868  13.579  21.920  0.00  0.00    -0.301 N 
ATOM     23  C   UNL     1      11.672  12.703  21.214  0.00  0.00    +0.219 C 
ATOM     25  C   UNL     1      10.392  13.417  23.289  0.00  0.00    +0.108 C 
ATOM     26  C   UNL     1      10.379  14.822  21.341  0.00  0.00    +0.108 C 
ATOM     27  C   UNL     1       9.798  14.771  23.648  0.00  0.00    +0.020 C 
ATOM     28  C   UNL     1       9.302  15.294  22.306  0.00  0.00    +0.020 C 
ENDBRANCH  18  23
ENDBRANCH  12  18
TORSDOF 5
ENDMDL
MODEL 3
REMARK VINA RESULT:      -6.7     29.835     33.312
REMARK  Name = 44716705
REMARK  9 active torsions:
REMARK  status: ('A' for Active; 'I' for Inactive)
REMARK    1  A    between atoms: O_2  and  C_11
REMARK    2  A    between atoms: O_5  and  C_35
REMARK    3  A    between atoms: O_5  and  C_36
REMARK    4  A    between atoms: C_9  and  C_17
REMARK    5  A    between atoms: C_12  and  C_18
REMARK    6  A    between atoms: C_14  and  C_21
REMARK    7  A    between atoms: C_18  and  C_22
REMARK    8  A    between atoms: C_18  and  C_23
REMARK    9  A    between atoms: C_29  and  C_30
REMARK                            x       y       z     vdW  Elec       q    Type
REMARK                         _______ _______ _______ _____ _____    ______ ____
ROOT
ATOM      1  S   UNL     1      18.297   9.056  21.611  0.00  0.00    -0.057 S 
ATOM      4  O   UNL     1      16.143   5.667  19.207  0.00  0.00    -0.270 OA
ATOM      6  N   UNL     1      18.499   6.597  20.837  0.00  0.00    -0.229 NA
ATOM      8  N   UNL     1      16.513   7.788  20.168  0.00  0.00    -0.261 N 
ATOM      9  C   UNL     1      21.615   7.590  23.552  0.00  0.00    -0.022 C 
ATOM     10  C   UNL     1      21.995   6.528  22.447  0.00  0.00    +0.033 C 
ATOM     11  C   UNL     1      23.024   5.494  22.984  0.00  0.00    +0.123 C 
ATOM     12  C   UNL     1      24.260   6.161  23.627  0.00  0.00    +0.029 C 
ATOM     13  C   UNL     1      22.902   8.226  24.128  0.00  0.00    +0.008 C 
ATOM     14  C   UNL     1      20.711   5.862  21.800  0.00  0.00    +0.042 C 
ATOM     15  C   UNL     1      23.879   7.199  24.683  0.00  0.00    +0.007 C 
ATOM     16  C   UNL     1      20.773   8.738  22.914  0.00  0.00    +0.051 C 
ATOM     17  C   UNL     1      20.803   6.957  24.713  0.00  0.00    +0.012 C 
ATOM     19  C   UNL     1      19.641   6.899  21.557  0.00  0.00    +0.057 A 
ATOM     20  C   UNL     1      19.682   8.179  22.072  0.00  0.00    +0.015 A 
ATOM     21  C   UNL     1      21.013   5.106  20.498  0.00  0.00    +0.014 C 
ATOM     24  C   UNL     1      17.726   7.660  20.790  0.00  0.00    +0.165 A 
ATOM     29  C   UNL     1      15.790   6.822  19.424  0.00  0.00    +0.250 C 
ATOM     38  H   UNL     1      16.092   8.701  20.310  0.00  0.00    +0.157 HD
ENDROOT
BRANCH  29  30
ATOM     30  C   UNL     1      14.474   7.257  18.888  0.00  0.00    +0.037 A 
ATOM     31  C   UNL     1      14.405   7.923  17.665  0.00  0.00    +0.016 A 
ATOM     32  C   UNL     1      13.308   7.002  19.610  0.00  0.00    +0.016 A 
ATOM     33  C   UNL     1      13.170   8.333  17.162  0.00  0.00    +0.046 A 
ATOM     34  C   UNL     1      12.073   7.412  19.108  0.00  0.00    +0.046 A 
ATOM     35  C   UNL     1      12.004   8.078  17.884  0.00  0.00    +0.120 A 
BRANCH  35   5
ATOM      5  O   UNL     1      10.799   8.478  17.395  0.00  0.00    -0.495 OA
ATOM     36  C   UNL     1      10.745   8.836  16.014  0.00  0.00    +0.277 C 
ENDBRANCH  35   5
ENDBRANCH  29  30
BRANCH  11   2
ATOM      2  O   UNL     1      23.493   4.687  21.904  0.00  0.00    -0.391 OA
ATOM     37  H   UNL     1      24.445   4.855  21.795  0.00  0.00    +0.210 HD
ENDBRANCH  11   2
BRANCH  12  18
ATOM     18  C   UNL     1      25.209   5.126  24.243  0.00  0.00    +0.078 C 
ATOM     22  C   UNL     1      25.709   5.581  25.602  0.00  0.00    +0.017 C 
BRANCH  18  23
ATOM      3  O   UNL     1      27.039   5.881  22.919  0.00  0.00    -0.275 OA
ATOM      7  N   UNL     1      26.609   3.611  22.928  0.00  0.00    -0.301 N 
ATOM     23  C   UNL     1      26.372   4.920  23.306  0.00  0.00    +0.219 C 
ATOM     25  C   UNL     1      25.861   2.432  23.351  0.00  0.00    +0.108 C 
ATOM     26  C   UNL     1      27.690   3.248  22.023  0.00  0.00    +0.108 C 
ATOM     27  C   UNL     1      26.357   1.320  22.437  0.00  0.00    +0.020 C 
ATOM     28  C   UNL     1      27.792   1.734  22.142  0.00  0.00    +0.020 C 
ENDBRANCH  18  23
ENDBRANCH  12  18
TORSDOF 5
ENDMDL
MODEL 4
REMARK VINA RESULT:      -6.6      6.775      7.898
REMARK  Name = 44716705
REMARK  9 active torsions:
REMARK  status: ('A' for Active; 'I' for Inactive)
REMARK    1  A    between atoms: O_2  and  C_11
REMARK    2  A    between atoms: O_5  and  C_35
REMARK    3  A    between atoms: O_5  and  C_36
REMARK    4  A    between atoms: C_9  and  C_17
REMARK    5  A    between atoms: C_12  and  C_18
REMARK    6  A    between atoms: C_14  and  C_21
REMARK    7  A    between atoms: C_18  and  C_22
REMARK    8  A    between atoms: C_18  and  C_23
REMARK    9  A    between atoms: C_29  and  C_30
REMARK                            x       y       z     vdW  Elec       q    Type
REMARK                         _______ _______ _______ _____ _____    ______ ____
ROOT
ATOM      1  S   UNL     1     -12.929  -7.915  12.236  0.00  0.00    -0.057 S 
ATOM      4  O   UNL     1     -12.915  -3.288  12.941  0.00  0.00    -0.270 OA
ATOM      6  N   UNL     1     -12.023  -6.043  13.773  0.00  0.00    -0.229 NA
ATOM      8  N   UNL     1     -13.425  -5.358  11.935  0.00  0.00    -0.261 N 
ATOM      9  C   UNL     1     -10.258  -9.786  14.744  0.00  0.00    -0.022 C 
ATOM     10  C   UNL     1     -10.454  -8.795  15.958  0.00  0.00    +0.033 C 
ATOM     11  C   UNL     1      -9.323  -8.961  17.012  0.00  0.00    +0.123 C 
ATOM     12  C   UNL     1      -9.132 -10.427  17.457  0.00  0.00    +0.029 C 
ATOM     13  C   UNL     1     -10.097 -11.231  15.272  0.00  0.00    +0.008 C 
ATOM     14  C   UNL     1     -10.652  -7.299  15.476  0.00  0.00    +0.042 C 
ATOM     15  C   UNL     1      -8.961 -11.379  16.273  0.00  0.00    +0.007 C 
ATOM     16  C   UNL     1     -11.525  -9.760  13.833  0.00  0.00    +0.051 C 
ATOM     17  C   UNL     1      -9.017  -9.421  13.889  0.00  0.00    +0.012 C 
ATOM     19  C   UNL     1     -11.555  -7.247  14.268  0.00  0.00    +0.057 A 
ATOM     20  C   UNL     1     -11.928  -8.358  13.540  0.00  0.00    +0.015 A 
ATOM     21  C   UNL     1     -11.194  -6.375  16.576  0.00  0.00    +0.014 C 
ATOM     24  C   UNL     1     -12.766  -6.273  12.712  0.00  0.00    +0.165 A 
ATOM     29  C   UNL     1     -13.474  -3.948  12.072  0.00  0.00    +0.250 C 
ATOM     38  H   UNL     1     -13.901  -5.783  11.145  0.00  0.00    +0.157 HD
ENDROOT
BRANCH  29  30
ATOM     30  C   UNL     1     -14.260  -3.216  11.045  0.00  0.00    +0.037 A 
ATOM     31  C   UNL     1     -15.389  -2.488  11.418  0.00  0.00    +0.016 A 
ATOM     32  C   UNL     1     -13.870  -3.260   9.706  0.00  0.00    +0.016 A 
ATOM     33  C   UNL     1     -16.128  -1.802  10.454  0.00  0.00    +0.046 A 
ATOM     34  C   UNL     1     -14.608  -2.575   8.741  0.00  0.00    +0.046 A 
ATOM     35  C   UNL     1     -15.738  -1.846   9.115  0.00  0.00    +0.120 A 
BRANCH  35   5
ATOM      5  O   UNL     1     -16.457  -1.177   8.174  0.00  0.00    -0.495 OA
ATOM     36  C   UNL     1     -15.858  -0.015   7.603  0.00  0.00    +0.277 C 
ENDBRANCH  35   5
ENDBRANCH  29  30
BRANCH  11   2
ATOM      2  O   UNL     1      -9.646  -8.204  18.178  0.00  0.00    -0.391 OA
ATOM     37  H   UNL     1      -9.586  -8.796  18.947  0.00  0.00    +0.210 HD
ENDBRANCH  11   2
BRANCH  12  18
ATOM     18  C   UNL     1      -7.943 -10.581  18.415  0.00  0.00    +0.078 C 
ATOM     22  C   UNL     1      -6.641 -10.198  17.738  0.00  0.00    +0.017 C 
BRANCH  18  23
ATOM      3  O   UNL     1      -6.931 -12.731  18.572  0.00  0.00    -0.275 OA
ATOM      7  N   UNL     1      -8.953 -12.435  19.651  0.00  0.00    -0.301 N 
ATOM     23  C   UNL     1      -7.884 -12.014  18.882  0.00  0.00    +0.219 C 
ATOM     25  C   UNL     1     -10.106 -11.637  20.055  0.00  0.00    +0.108 C 
ATOM     26  C   UNL     1      -9.047 -13.791  20.173  0.00  0.00    +0.108 C 
ATOM     27  C   UNL     1     -11.084 -12.649  20.633  0.00  0.00    +0.020 C 
ATOM     28  C   UNL     1     -10.168 -13.726  21.200  0.00  0.00    +0.020 C 
ENDBRANCH  18  23
ENDBRANCH  12  18
TORSDOF 5
ENDMDL
MODEL 5
REMARK VINA RESULT:      -6.5      2.952     12.695
REMARK  Name = 44716705
REMARK  9 active torsions:
REMARK  status: ('A' for Active; 'I' for Inactive)
REMARK    1  A    between atoms: O_2  and  C_11
REMARK    2  A    between atoms: O_5  and  C_35
REMARK    3  A    between atoms: O_5  and  C_36
REMARK    4  A    between atoms: C_9  and  C_17
REMARK    5  A    between atoms: C_12  and  C_18
REMARK    6  A    between atoms: C_14  and  C_21
REMARK    7  A    between atoms: C_18  and  C_22
REMARK    8  A    between atoms: C_18  and  C_23
REMARK    9  A    between atoms: C_29  and  C_30
REMARK                            x       y       z     vdW  Elec       q    Type
REMARK                         _______ _______ _______ _____ _____    ______ ____
ROOT
ATOM      1  S   UNL     1      -8.316  -9.588   9.330  0.00  0.00    -0.057 S 
ATOM      4  O   UNL     1      -3.692 -10.289   9.514  0.00  0.00    -0.270 OA
ATOM      6  N   UNL     1      -6.180  -9.803   7.887  0.00  0.00    -0.229 NA
ATOM      8  N   UNL     1      -5.908 -10.019  10.272  0.00  0.00    -0.261 N 
ATOM      9  C   UNL     1      -9.495  -8.595   5.516  0.00  0.00    -0.022 C 
ATOM     10  C   UNL     1      -8.425  -9.491   4.776  0.00  0.00    +0.033 C 
ATOM     11  C   UNL     1      -8.309  -9.111   3.273  0.00  0.00    +0.123 C 
ATOM     12  C   UNL     1      -9.676  -9.091   2.555  0.00  0.00    +0.029 C 
ATOM     13  C   UNL     1     -10.837  -8.646   4.749  0.00  0.00    +0.008 C 
ATOM     14  C   UNL     1      -7.034  -9.499   5.534  0.00  0.00    +0.042 C 
ATOM     15  C   UNL     1     -10.708  -8.234   3.289  0.00  0.00    +0.007 C 
ATOM     16  C   UNL     1      -9.754  -9.157   6.948  0.00  0.00    +0.051 C 
ATOM     17  C   UNL     1      -9.037  -7.118   5.631  0.00  0.00    +0.012 C 
ATOM     19  C   UNL     1      -7.243  -9.598   7.025  0.00  0.00    +0.057 A 
ATOM     20  C   UNL     1      -8.467  -9.433   7.641  0.00  0.00    +0.015 A 
ATOM     21  C   UNL     1      -6.094 -10.618   5.062  0.00  0.00    +0.014 C 
ATOM     24  C   UNL     1      -6.628  -9.828   9.124  0.00  0.00    +0.165 A 
ATOM     29  C   UNL     1      -4.515 -10.235  10.422  0.00  0.00    +0.250 C 
ATOM     38  H   UNL     1      -6.479  -9.955  11.110  0.00  0.00    +0.157 HD
ENDROOT
BRANCH  29  30
ATOM     30  C   UNL     1      -4.019 -10.382  11.815  0.00  0.00    +0.037 A 
ATOM     31  C   UNL     1      -4.924 -10.449  12.874  0.00  0.00    +0.016 A 
ATOM     32  C   UNL     1      -2.649 -10.449  12.065  0.00  0.00    +0.016 A 
ATOM     33  C   UNL     1      -4.460 -10.584  14.182  0.00  0.00    +0.046 A 
ATOM     34  C   UNL     1      -2.183 -10.584  13.372  0.00  0.00    +0.046 A 
ATOM     35  C   UNL     1      -3.089 -10.652  14.432  0.00  0.00    +0.120 A 
BRANCH  35   5
ATOM      5  O   UNL     1      -2.634 -10.785  15.707  0.00  0.00    -0.495 OA
ATOM     36  C   UNL     1      -1.255 -10.502  15.937  0.00  0.00    +0.277 C 
ENDBRANCH  35   5
ENDBRANCH  29  30
BRANCH  11   2
ATOM      2  O   UNL     1      -7.494 -10.071   2.602  0.00  0.00    -0.391 OA
ATOM     37  H   UNL     1      -8.041 -10.514   1.932  0.00  0.00    +0.210 HD
ENDBRANCH  11   2
BRANCH  12  18
ATOM     18  C   UNL     1      -9.550  -8.610   1.104  0.00  0.00    +0.078 C 
ATOM     22  C   UNL     1     -10.498  -7.459   0.823  0.00  0.00    +0.017 C 
BRANCH  18  23
ATOM      3  O   UNL     1     -10.761 -10.556   0.455  0.00  0.00    -0.275 OA
ATOM      7  N   UNL     1      -9.052  -9.864  -0.937  0.00  0.00    -0.301 N 
ATOM     23  C   UNL     1      -9.854  -9.767   0.186  0.00  0.00    +0.219 C 
ATOM     25  C   UNL     1      -7.967  -8.965  -1.315  0.00  0.00    +0.108 C 
ATOM     26  C   UNL     1      -9.214 -10.928  -1.917  0.00  0.00    +0.108 C 
ATOM     27  C   UNL     1      -7.259  -9.682  -2.455  0.00  0.00    +0.020 C 
ATOM     28  C   UNL     1      -8.382 -10.477  -3.109  0.00  0.00    +0.020 C 
ENDBRANCH  18  23
ENDBRANCH  12  18
TORSDOF 5
ENDMDL
MODEL 6
REMARK VINA RESULT:      -6.5     21.584     24.545
REMARK  Name = 44716705
REMARK  9 active torsions:
REMARK  status: ('A' for Active; 'I' for Inactive)
REMARK    1  A    between atoms: O_2  and  C_11
REMARK    2  A    between atoms: O_5  and  C_35
REMARK    3  A    between atoms: O_5  and  C_36
REMARK    4  A    between atoms: C_9  and  C_17
REMARK    5  A    between atoms: C_12  and  C_18
REMARK    6  A    between atoms: C_14  and  C_21
REMARK    7  A    between atoms: C_18  and  C_22
REMARK    8  A    between atoms: C_18  and  C_23
REMARK    9  A    between atoms: C_29  and  C_30
REMARK                            x       y       z     vdW  Elec       q    Type
REMARK                         _______ _______ _______ _____ _____    ______ ____
ROOT
ATOM      1  S   UNL     1     -12.371   6.166  21.151  0.00  0.00    -0.057 S 
ATOM      4  O   UNL     1     -16.233   7.344  23.517  0.00  0.00    -0.270 OA
ATOM      6  N   UNL     1     -13.991   8.116  21.660  0.00  0.00    -0.229 NA
ATOM      8  N   UNL     1     -14.471   6.001  22.712  0.00  0.00    -0.261 N 
ATOM      9  C   UNL     1     -11.215   9.204  18.630  0.00  0.00    -0.022 C 
ATOM     10  C   UNL     1     -11.688  10.383  19.568  0.00  0.00    +0.033 C 
ATOM     11  C   UNL     1     -11.747  11.732  18.798  0.00  0.00    +0.123 C 
ATOM     12  C   UNL     1     -10.435  12.049  18.049  0.00  0.00    +0.029 C 
ATOM     13  C   UNL     1      -9.887   9.591  17.937  0.00  0.00    +0.008 C 
ATOM     14  C   UNL     1     -13.033  10.031  20.328  0.00  0.00    +0.042 C 
ATOM     15  C   UNL     1      -9.977  10.895  17.157  0.00  0.00    +0.007 C 
ATOM     16  C   UNL     1     -10.940   7.927  19.485  0.00  0.00    +0.051 C 
ATOM     17  C   UNL     1     -12.269   8.864  17.545  0.00  0.00    +0.012 C 
ATOM     19  C   UNL     1     -13.009   8.603  20.815  0.00  0.00    +0.057 A 
ATOM     20  C   UNL     1     -12.070   7.673  20.419  0.00  0.00    +0.015 A 
ATOM     21  C   UNL     1     -13.333  10.979  21.499  0.00  0.00    +0.014 C 
ATOM     24  C   UNL     1     -13.750   6.848  21.914  0.00  0.00    +0.165 A 
ATOM     29  C   UNL     1     -15.645   6.269  23.459  0.00  0.00    +0.250 C 
ATOM     38  H   UNL     1     -14.103   5.054  22.715  0.00  0.00    +0.157 HD
ENDROOT
BRANCH  29  30
ATOM     30  C   UNL     1     -16.218   5.124  24.215  0.00  0.00    +0.037 A 
ATOM     31  C   UNL     1     -15.572   3.889  24.203  0.00  0.00    +0.016 A 
ATOM     32  C   UNL     1     -17.402   5.286  24.934  0.00  0.00    +0.016 A 
ATOM     33  C   UNL     1     -16.110   2.813  24.911  0.00  0.00    +0.046 A 
ATOM     34  C   UNL     1     -17.940   4.212  25.642  0.00  0.00    +0.046 A 
ATOM     35  C   UNL     1     -17.294   2.975  25.630  0.00  0.00    +0.120 A 
BRANCH  35   5
ATOM      5  O   UNL     1     -17.820   1.927  26.321  0.00  0.00    -0.495 OA
ATOM     36  C   UNL     1     -16.900   0.981  26.864  0.00  0.00    +0.277 C 
ENDBRANCH  35   5
ENDBRANCH  29  30
BRANCH  11   2
ATOM      2  O   UNL     1     -11.975  12.796  19.720  0.00  0.00    -0.391 OA
ATOM     37  H   UNL     1     -12.160  12.405  20.591  0.00  0.00    +0.210 HD
ENDBRANCH  11   2
BRANCH  12  18
ATOM     18  C   UNL     1     -10.552  13.329  17.211  0.00  0.00    +0.078 C 
ATOM     22  C   UNL     1     -11.967  13.520  16.698  0.00  0.00    +0.017 C 
BRANCH  18  23
ATOM      3  O   UNL     1      -9.948  12.749  14.981  0.00  0.00    -0.275 OA
ATOM      7  N   UNL     1      -8.317  13.723  16.297  0.00  0.00    -0.301 N 
ATOM     23  C   UNL     1      -9.589  13.237  16.054  0.00  0.00    +0.219 C 
ATOM     25  C   UNL     1      -7.831  14.314  17.539  0.00  0.00    +0.108 C 
ATOM     26  C   UNL     1      -7.271  13.700  15.285  0.00  0.00    +0.108 C 
ATOM     27  C   UNL     1      -6.325  14.412  17.349  0.00  0.00    +0.020 C 
ATOM     28  C   UNL     1      -6.181  14.602  15.845  0.00  0.00    +0.020 C 
ENDBRANCH  18  23
ENDBRANCH  12  18
TORSDOF 5
ENDMDL
MODEL 7
REMARK VINA RESULT:      -6.3      7.298      9.046
REMARK  Name = 44716705
REMARK  9 active torsions:
REMARK  status: ('A' for Active; 'I' for Inactive)
REMARK    1  A    between atoms: O_2  and  C_11
REMARK    2  A    between atoms: O_5  and  C_35
REMARK    3  A    between atoms: O_5  and  C_36
REMARK    4  A    between atoms: C_9  and  C_17
REMARK    5  A    between atoms: C_12  and  C_18
REMARK    6  A    between atoms: C_14  and  C_21
REMARK    7  A    between atoms: C_18  and  C_22
REMARK    8  A    between atoms: C_18  and  C_23
REMARK    9  A    between atoms: C_29  and  C_30
REMARK                            x       y       z     vdW  Elec       q    Type
REMARK                         _______ _______ _______ _____ _____    ______ ____
ROOT
ATOM      1  S   UNL     1     -15.271  -6.294  14.563  0.00  0.00    -0.057 S 
ATOM      4  O   UNL     1     -12.527  -4.327  11.322  0.00  0.00    -0.270 OA
ATOM      6  N   UNL     1     -12.863  -6.244  13.621  0.00  0.00    -0.229 NA
ATOM      8  N   UNL     1     -14.472  -4.788  12.571  0.00  0.00    -0.261 N 
ATOM      9  C   UNL     1     -13.308  -9.360  16.478  0.00  0.00    -0.022 C 
ATOM     10  C   UNL     1     -11.874  -8.700  16.414  0.00  0.00    +0.033 C 
ATOM     11  C   UNL     1     -10.759  -9.736  16.732  0.00  0.00    +0.123 C 
ATOM     12  C   UNL     1     -11.012 -10.500  18.050  0.00  0.00    +0.029 C 
ATOM     13  C   UNL     1     -13.489 -10.083  17.833  0.00  0.00    +0.008 C 
ATOM     14  C   UNL     1     -11.641  -7.920  15.055  0.00  0.00    +0.042 C 
ATOM     15  C   UNL     1     -12.408 -11.119  18.107  0.00  0.00    +0.007 C 
ATOM     16  C   UNL     1     -14.403  -8.252  16.390  0.00  0.00    +0.051 C 
ATOM     17  C   UNL     1     -13.531 -10.378  15.330  0.00  0.00    +0.012 C 
ATOM     19  C   UNL     1     -12.878  -7.146  14.670  0.00  0.00    +0.057 A 
ATOM     20  C   UNL     1     -14.108  -7.315  15.273  0.00  0.00    +0.015 A 
ATOM     21  C   UNL     1     -10.428  -6.980  15.097  0.00  0.00    +0.014 C 
ATOM     24  C   UNL     1     -14.065  -5.726  13.481  0.00  0.00    +0.165 A 
ATOM     29  C   UNL     1     -13.716  -4.144  11.559  0.00  0.00    +0.250 C 
ATOM     38  H   UNL     1     -15.464  -4.578  12.639  0.00  0.00    +0.157 HD
ENDROOT
BRANCH  29  30
ATOM     30  C   UNL     1     -14.454  -3.182  10.700  0.00  0.00    +0.037 A 
ATOM     31  C   UNL     1     -15.490  -2.419  11.238  0.00  0.00    +0.016 A 
ATOM     32  C   UNL     1     -14.113  -3.044   9.355  0.00  0.00    +0.016 A 
ATOM     33  C   UNL     1     -16.185  -1.517  10.432  0.00  0.00    +0.046 A 
ATOM     34  C   UNL     1     -14.807  -2.143   8.548  0.00  0.00    +0.046 A 
ATOM     35  C   UNL     1     -15.843  -1.379   9.087  0.00  0.00    +0.120 A 
BRANCH  35   5
ATOM      5  O   UNL     1     -16.520  -0.500   8.299  0.00  0.00    -0.495 OA
ATOM     36  C   UNL     1     -16.591   0.852   8.749  0.00  0.00    +0.277 C 
ENDBRANCH  35   5
ENDBRANCH  29  30
BRANCH  11   2
ATOM      2  O   UNL     1      -9.509  -9.061  16.867  0.00  0.00    -0.391 OA
ATOM     37  H   UNL     1      -9.685  -8.105  16.896  0.00  0.00    +0.210 HD
ENDBRANCH  11   2
BRANCH  12  18
ATOM     18  C   UNL     1      -9.958 -11.588  18.288  0.00  0.00    +0.078 C 
ATOM     22  C   UNL     1     -10.597 -12.870  18.789  0.00  0.00    +0.017 C 
BRANCH  18  23
ATOM      3  O   UNL     1      -9.335 -10.682  20.401  0.00  0.00    -0.275 OA
ATOM      7  N   UNL     1      -7.638 -11.091  18.886  0.00  0.00    -0.301 N 
ATOM     23  C   UNL     1      -8.959 -11.079  19.297  0.00  0.00    +0.219 C 
ATOM     25  C   UNL     1      -7.128 -11.551  17.599  0.00  0.00    +0.108 C 
ATOM     26  C   UNL     1      -6.556 -10.626  19.741  0.00  0.00    +0.108 C 
ATOM     27  C   UNL     1      -5.679 -11.088  17.577  0.00  0.00    +0.020 C 
ATOM     28  C   UNL     1      -5.290 -11.111  19.050  0.00  0.00    +0.020 C 
ENDBRANCH  18  23
ENDBRANCH  12  18
TORSDOF 5
ENDMDL
MODEL 8
REMARK VINA RESULT:      -6.3     30.521     33.646
REMARK  Name = 44716705
REMARK  9 active torsions:
REMARK  status: ('A' for Active; 'I' for Inactive)
REMARK    1  A    between atoms: O_2  and  C_11
REMARK    2  A    between atoms: O_5  and  C_35
REMARK    3  A    between atoms: O_5  and  C_36
REMARK    4  A    between atoms: C_9  and  C_17
REMARK    5  A    between atoms: C_12  and  C_18
REMARK    6  A    between atoms: C_14  and  C_21
REMARK    7  A    between atoms: C_18  and  C_22
REMARK    8  A    between atoms: C_18  and  C_23
REMARK    9  A    between atoms: C_29  and  C_30
REMARK                            x       y       z     vdW  Elec       q    Type
REMARK                         _______ _______ _______ _____ _____    ______ ____
ROOT
ATOM      1  S   UNL     1      -3.892  10.535  36.192  0.00  0.00    -0.057 S 
ATOM      4  O   UNL     1      -3.560  14.192  33.290  0.00  0.00    -0.270 OA
ATOM      6  N   UNL     1      -5.251  12.100  34.646  0.00  0.00    -0.229 NA
ATOM      8  N   UNL     1      -2.879  12.505  34.790  0.00  0.00    -0.261 N 
ATOM      9  C   UNL     1      -7.830   9.569  36.883  0.00  0.00    -0.022 C 
ATOM     10  C   UNL     1      -8.350   9.961  35.444  0.00  0.00    +0.033 C 
ATOM     11  C   UNL     1      -9.900  10.075  35.413  0.00  0.00    +0.123 C 
ATOM     12  C   UNL     1     -10.602   8.824  35.985  0.00  0.00    +0.029 C 
ATOM     13  C   UNL     1      -8.564   8.298  37.374  0.00  0.00    +0.008 C 
ATOM     14  C   UNL     1      -7.611  11.243  34.878  0.00  0.00    +0.042 C 
ATOM     15  C   UNL     1     -10.079   8.444  37.371  0.00  0.00    +0.007 C 
ATOM     16  C   UNL     1      -6.308   9.233  36.822  0.00  0.00    +0.051 C 
ATOM     17  C   UNL     1      -8.052  10.707  37.913  0.00  0.00    +0.012 C 
ATOM     19  C   UNL     1      -6.136  11.187  35.191  0.00  0.00    +0.057 A 
ATOM     20  C   UNL     1      -5.572  10.286  36.071  0.00  0.00    +0.015 A 
ATOM     21  C   UNL     1      -7.820  11.445  33.370  0.00  0.00    +0.014 C 
ATOM     24  C   UNL     1      -4.040  11.846  35.093  0.00  0.00    +0.165 A 
ATOM     29  C   UNL     1      -2.686  13.616  33.930  0.00  0.00    +0.250 C 
ATOM     38  H   UNL     1      -2.077  12.142  35.296  0.00  0.00    +0.157 HD
ENDROOT
BRANCH  29  30
ATOM     30  C   UNL     1      -1.297  14.131  33.825  0.00  0.00    +0.037 A 
ATOM     31  C   UNL     1      -0.440  14.053  34.922  0.00  0.00    +0.016 A 
ATOM     32  C   UNL     1      -0.850  14.696  32.631  0.00  0.00    +0.016 A 
ATOM     33  C   UNL     1       0.864  14.539  34.826  0.00  0.00    +0.046 A 
ATOM     34  C   UNL     1       0.453  15.182  32.533  0.00  0.00    +0.046 A 
ATOM     35  C   UNL     1       1.311  15.104  33.631  0.00  0.00    +0.120 A 
BRANCH  35   5
ATOM      5  O   UNL     1       2.583  15.578  33.535  0.00  0.00    -0.495 OA
ATOM     36  C   UNL     1       3.367  15.578  34.728  0.00  0.00    +0.277 C 
ENDBRANCH  35   5
ENDBRANCH  29  30
BRANCH  11   2
ATOM      2  O   UNL     1     -10.337  10.224  34.062  0.00  0.00    -0.391 OA
ATOM     37  H   UNL     1     -10.328   9.346  33.645  0.00  0.00    +0.210 HD
ENDBRANCH  11   2
BRANCH  12  18
ATOM     18  C   UNL     1     -12.125   9.002  36.042  0.00  0.00    +0.078 C 
ATOM     22  C   UNL     1     -12.570   9.472  37.415  0.00  0.00    +0.017 C 
BRANCH  18  23
ATOM      3  O   UNL     1     -12.741   6.750  36.511  0.00  0.00    -0.275 OA
ATOM      7  N   UNL     1     -13.387   7.618  34.469  0.00  0.00    -0.301 N 
ATOM     23  C   UNL     1     -12.776   7.684  35.708  0.00  0.00    +0.219 C 
ATOM     25  C   UNL     1     -13.467   8.685  33.477  0.00  0.00    +0.108 C 
ATOM     26  C   UNL     1     -14.054   6.414  33.996  0.00  0.00    +0.108 C 
ATOM     27  C   UNL     1     -13.985   7.999  32.222  0.00  0.00    +0.020 C 
ATOM     28  C   UNL     1     -14.843   6.870  32.778  0.00  0.00    +0.020 C 
ENDBRANCH  18  23
ENDBRANCH  12  18
TORSDOF 5
ENDMDL
MODEL 9
REMARK VINA RESULT:      -6.0     26.223     28.692
REMARK  Name = 44716705
REMARK  9 active torsions:
REMARK  status: ('A' for Active; 'I' for Inactive)
REMARK    1  A    between atoms: O_2  and  C_11
REMARK    2  A    between atoms: O_5  and  C_35
REMARK    3  A    between atoms: O_5  and  C_36
REMARK    4  A    between atoms: C_9  and  C_17
REMARK    5  A    between atoms: C_12  and  C_18
REMARK    6  A    between atoms: C_14  and  C_21
REMARK    7  A    between atoms: C_18  and  C_22
REMARK    8  A    between atoms: C_18  and  C_23
REMARK    9  A    between atoms: C_29  and  C_30
REMARK                            x       y       z     vdW  Elec       q    Type
REMARK                         _______ _______ _______ _____ _____    ______ ____
ROOT
ATOM      1  S   UNL     1       9.796  -6.433  34.059  0.00  0.00    -0.057 S 
ATOM      4  O   UNL     1      12.657  -7.731  30.590  0.00  0.00    -0.270 OA
ATOM      6  N   UNL     1      10.215  -8.257  32.274  0.00  0.00    -0.229 NA
ATOM      8  N   UNL     1      11.789  -6.433  32.357  0.00  0.00    -0.261 N 
ATOM      9  C   UNL     1       6.471  -8.852  34.196  0.00  0.00    -0.022 C 
ATOM     10  C   UNL     1       7.208 -10.168  33.729  0.00  0.00    +0.033 C 
ATOM     11  C   UNL     1       6.192 -11.266  33.303  0.00  0.00    +0.123 C 
ATOM     12  C   UNL     1       5.114 -11.529  34.377  0.00  0.00    +0.029 C 
ATOM     13  C   UNL     1       5.426  -9.198  35.284  0.00  0.00    +0.008 C 
ATOM     14  C   UNL     1       8.311  -9.871  32.632  0.00  0.00    +0.042 C 
ATOM     15  C   UNL     1       4.419 -10.246  34.834  0.00  0.00    +0.007 C 
ATOM     16  C   UNL     1       7.501  -7.869  34.834  0.00  0.00    +0.051 C 
ATOM     17  C   UNL     1       5.756  -8.136  33.021  0.00  0.00    +0.012 C 
ATOM     19  C   UNL     1       9.083  -8.622  32.981  0.00  0.00    +0.057 A 
ATOM     20  C   UNL     1       8.700  -7.733  33.964  0.00  0.00    +0.015 A 
ATOM     21  C   UNL     1       9.280 -11.042  32.415  0.00  0.00    +0.014 C 
ATOM     24  C   UNL     1      10.681  -7.127  32.762  0.00  0.00    +0.165 A 
ATOM     29  C   UNL     1      12.706  -6.748  31.322  0.00  0.00    +0.250 C 
ATOM     38  H   UNL     1      11.918  -5.564  32.867  0.00  0.00    +0.157 HD
ENDROOT
BRANCH  29  30
ATOM     30  C   UNL     1      13.805  -5.773  31.100  0.00  0.00    +0.037 A 
ATOM     31  C   UNL     1      14.727  -5.984  30.076  0.00  0.00    +0.016 A 
ATOM     32  C   UNL     1      13.917  -4.649  31.919  0.00  0.00    +0.016 A 
ATOM     33  C   UNL     1      15.762  -5.070  29.869  0.00  0.00    +0.046 A 
ATOM     34  C   UNL     1      14.950  -3.736  31.713  0.00  0.00    +0.046 A 
ATOM     35  C   UNL     1      15.873  -3.946  30.687  0.00  0.00    +0.120 A 
BRANCH  35   5
ATOM      5  O   UNL     1      16.881  -3.054  30.486  0.00  0.00    -0.495 OA
ATOM     36  C   UNL     1      16.612  -1.690  30.804  0.00  0.00    +0.277 C 
ENDBRANCH  35   5
ENDBRANCH  29  30
BRANCH  11   2
ATOM      2  O   UNL     1       6.884 -12.495  33.089  0.00  0.00    -0.391 OA
ATOM     37  H   UNL     1       7.803 -12.286  32.853  0.00  0.00    +0.210 HD
ENDBRANCH  11   2
BRANCH  12  18
ATOM     18  C   UNL     1       4.062 -12.536  33.893  0.00  0.00    +0.078 C 
ATOM     22  C   UNL     1       2.670 -12.132  34.339  0.00  0.00    +0.017 C 
BRANCH  18  23
ATOM      3  O   UNL     1       4.639 -14.042  35.646  0.00  0.00    -0.275 OA
ATOM      7  N   UNL     1       4.451 -14.923  33.519  0.00  0.00    -0.301 N 
ATOM     23  C   UNL     1       4.409 -13.896  34.445  0.00  0.00    +0.219 C 
ATOM     25  C   UNL     1       4.186 -14.818  32.088  0.00  0.00    +0.108 C 
ATOM     26  C   UNL     1       4.776 -16.292  33.891  0.00  0.00    +0.108 C 
ATOM     27  C   UNL     1       4.639 -16.155  31.519  0.00  0.00    +0.020 C 
ATOM     28  C   UNL     1       4.392 -17.119  32.673  0.00  0.00    +0.020 C 
ENDBRANCH  18  23
ENDBRANCH  12  18
TORSDOF 5
ENDMDL
MODEL 10
REMARK VINA RESULT:      -6.0     18.053     20.749
REMARK  Name = 44716705
REMARK  9 active torsions:
REMARK  status: ('A' for Active; 'I' for Inactive)
REMARK    1  A    between atoms: O_2  and  C_11
REMARK    2  A    between atoms: O_5  and  C_35
REMARK    3  A    between atoms: O_5  and  C_36
REMARK    4  A    between atoms: C_9  and  C_17
REMARK    5  A    between atoms: C_12  and  C_18
REMARK    6  A    between atoms: C_14  and  C_21
REMARK    7  A    between atoms: C_18  and  C_22
REMARK    8  A    between atoms: C_18  and  C_23
REMARK    9  A    between atoms: C_29  and  C_30
REMARK                            x       y       z     vdW  Elec       q    Type
REMARK                         _______ _______ _______ _____ _____    ______ ____
ROOT
ATOM      1  S   UNL     1      -6.098   6.896   4.630  0.00  0.00    -0.057 S 
ATOM      4  O   UNL     1     -10.010   8.946   6.178  0.00  0.00    -0.270 OA
ATOM      6  N   UNL     1      -7.033   9.042   5.730  0.00  0.00    -0.229 NA
ATOM      8  N   UNL     1      -8.619   7.297   5.228  0.00  0.00    -0.261 N 
ATOM      9  C   UNL     1      -2.945   9.536   4.678  0.00  0.00    -0.022 C 
ATOM     10  C   UNL     1      -3.412  10.326   5.964  0.00  0.00    +0.033 C 
ATOM     11  C   UNL     1      -2.647  11.670   6.113  0.00  0.00    +0.123 C 
ATOM     12  C   UNL     1      -1.114  11.496   6.039  0.00  0.00    +0.029 C 
ATOM     13  C   UNL     1      -1.405   9.385   4.691  0.00  0.00    +0.008 C 
ATOM     14  C   UNL     1      -4.987  10.487   6.019  0.00  0.00    +0.042 C 
ATOM     15  C   UNL     1      -0.674  10.716   4.800  0.00  0.00    +0.007 C 
ATOM     16  C   UNL     1      -3.554   8.100   4.689  0.00  0.00    +0.051 C 
ATOM     17  C   UNL     1      -3.370  10.252   3.370  0.00  0.00    +0.012 C 
ATOM     19  C   UNL     1      -5.667   9.209   5.593  0.00  0.00    +0.057 A 
ATOM     20  C   UNL     1      -5.010   8.154   4.991  0.00  0.00    +0.015 A 
ATOM     21  C   UNL     1      -5.503  10.920   7.399  0.00  0.00    +0.014 C 
ATOM     24  C   UNL     1      -7.371   7.857   5.267  0.00  0.00    +0.165 A 
ATOM     29  C   UNL     1      -9.852   7.842   5.669  0.00  0.00    +0.250 C 
ATOM     38  H   UNL     1      -8.627   6.383   4.785  0.00  0.00    +0.157 HD
ENDROOT
BRANCH  29  30
ATOM     30  C   UNL     1     -11.055   6.993   5.465  0.00  0.00    +0.037 A 
ATOM     31  C   UNL     1     -11.002   5.907   4.593  0.00  0.00    +0.016 A 
ATOM     32  C   UNL     1     -12.237   7.286   6.144  0.00  0.00    +0.016 A 
ATOM     33  C   UNL     1     -12.131   5.111   4.399  0.00  0.00    +0.046 A 
ATOM     34  C   UNL     1     -13.367   6.491   5.951  0.00  0.00    +0.046 A 
ATOM     35  C   UNL     1     -13.314   5.404   5.078  0.00  0.00    +0.120 A 
BRANCH  35   5
ATOM      5  O   UNL     1     -14.417   4.628   4.891  0.00  0.00    -0.495 OA
ATOM     36  C   UNL     1     -14.712   3.666   5.901  0.00  0.00    +0.277 C 
ENDBRANCH  35   5
ENDBRANCH  29  30
BRANCH  11   2
ATOM      2  O   UNL     1      -2.945  12.248   7.384  0.00  0.00    -0.391 OA
ATOM     37  H   UNL     1      -2.262  11.960   8.013  0.00  0.00    +0.210 HD
ENDBRANCH  11   2
BRANCH  12  18
ATOM     18  C   UNL     1      -0.385  12.845   6.082  0.00  0.00    +0.078 C 
ATOM     22  C   UNL     1      -0.169  13.395   4.685  0.00  0.00    +0.017 C 
BRANCH  18  23
ATOM      3  O   UNL     1       1.911  12.213   6.155  0.00  0.00    -0.275 OA
ATOM      7  N   UNL     1       0.969  12.997   8.114  0.00  0.00    -0.301 N 
ATOM     23  C   UNL     1       0.941  12.654   6.775  0.00  0.00    +0.219 C 
ATOM     25  C   UNL     1      -0.139  13.526   8.903  0.00  0.00    +0.108 C 
ATOM     26  C   UNL     1       2.171  12.865   8.925  0.00  0.00    +0.108 C 
ATOM     27  C   UNL     1       0.353  13.459  10.341  0.00  0.00    +0.020 C 
ATOM     28  C   UNL     1       1.859  13.639  10.196  0.00  0.00    +0.020 C 
ENDBRANCH  18  23
ENDBRANCH  12  18
TORSDOF 5
ENDMDL
