MODEL 1
REMARK VINA RESULT:      -7.3      0.000      0.000
REMARK  Name = 75536399
REMARK  12 active torsions:
REMARK  status: ('A' for Active; 'I' for Inactive)
REMARK    1  A    between atoms: O_2  and  C_9
REMARK    2  A    between atoms: O_4  and  C_27
REMARK    3  A    between atoms: O_4  and  C_31
REMARK    4  A    between atoms: O_5  and  C_30
REMARK    5  A    between atoms: O_5  and  C_32
REMARK    6  A    between atoms: N_6  and  C_13
REMARK    7  A    between atoms: N_6  and  C_16
REMARK    8  A    between atoms: C_8  and  C_13
REMARK    9  A    between atoms: C_10  and  C_14
REMARK   10  A    between atoms: C_14  and  C_15
REMARK   11  A    between atoms: C_16  and  C_18
REMARK   12  A    between atoms: C_19  and  C_20
REMARK                            x       y       z     vdW  Elec       q    Type
REMARK                         _______ _______ _______ _____ _____    ______ ____
ROOT
ATOM      1  O   UNL     1      12.800  11.309  23.532  0.00  0.00    -0.369 OA
ATOM      8  C   UNL     1      11.542  10.978  24.133  0.00  0.00    +0.161 C 
ATOM      9  C   UNL     1      10.816  12.233  24.636  0.00  0.00    +0.145 C 
ATOM     10  C   UNL     1      12.733  12.261  22.468  0.00  0.00    +0.125 C 
ATOM     11  C   UNL     1      10.749  13.329  23.576  0.00  0.00    +0.036 C 
ATOM     12  C   UNL     1      12.123  13.574  22.956  0.00  0.00    +0.034 C 
ENDROOT
BRANCH   9   2
ATOM      2  O   UNL     1      11.527  12.757  25.761  0.00  0.00    -0.389 OA
ATOM     34  H   UNL     1      11.331  13.708  25.815  0.00  0.00    +0.210 HD
ENDBRANCH   9   2
BRANCH   8  13
ATOM     13  C   UNL     1      10.686  10.131  23.192  0.00  0.00    +0.115 C 
BRANCH  13   6
ATOM      6  N   UNL     1      11.239   8.793  23.055  0.00  0.00    -0.309 NA
ATOM     33  H   UNL     1      12.205   8.858  22.734  0.00  0.00    +0.122 HD
BRANCH   6  16
ATOM     16  C   UNL     1      10.476   8.010  22.090  0.00  0.00    +0.116 C 
BRANCH  16  18
ATOM     18  C   UNL     1      11.223   7.834  20.795  0.00  0.00    -0.033 A 
ATOM     21  C   UNL     1      12.178   6.825  20.671  0.00  0.00    +0.008 A 
ATOM     22  C   UNL     1      10.960   8.681  19.718  0.00  0.00    +0.008 A 
ATOM     23  C   UNL     1      12.870   6.663  19.471  0.00  0.00    +0.046 A 
ATOM     24  C   UNL     1      11.653   8.519  18.518  0.00  0.00    +0.046 A 
ATOM     27  C   UNL     1      12.607   7.510  18.395  0.00  0.00    +0.120 A 
BRANCH  27   4
ATOM      4  O   UNL     1      13.282   7.351  17.223  0.00  0.00    -0.495 OA
ATOM     31  C   UNL     1      13.935   8.502  16.689  0.00  0.00    +0.277 C 
ENDBRANCH  27   4
ENDBRANCH  16  18
ENDBRANCH   6  16
ENDBRANCH  13   6
ENDBRANCH   8  13
BRANCH  10  14
ATOM     14  C   UNL     1      14.154  12.480  21.959  0.00  0.00    +0.090 C 
BRANCH  14  15
ATOM      3  O   UNL     1      14.914   9.650  19.859  0.00  0.00    -0.354 OA
ATOM      7  N   UNL     1      14.175  10.784  20.176  0.00  0.00    -0.083 NA
ATOM     15  C   UNL     1      14.710  11.241  21.310  0.00  0.00    +0.087 A 
ATOM     17  C   UNL     1      15.780  10.445  21.755  0.00  0.00    +0.076 A 
ATOM     19  C   UNL     1      15.867   9.459  20.807  0.00  0.00    +0.167 A 
BRANCH  19  20
ATOM     20  C   UNL     1      16.716   8.319  20.615  0.00  0.00    +0.020 A 
ATOM     25  C   UNL     1      16.364   7.335  19.692  0.00  0.00    +0.015 A 
ATOM     26  C   UNL     1      17.895   8.195  21.350  0.00  0.00    +0.015 A 
ATOM     28  C   UNL     1      17.190   6.226  19.505  0.00  0.00    +0.046 A 
ATOM     29  C   UNL     1      18.721   7.087  21.164  0.00  0.00    +0.046 A 
ATOM     30  C   UNL     1      18.369   6.102  20.240  0.00  0.00    +0.120 A 
BRANCH  30   5
ATOM      5  O   UNL     1      19.176   5.023  20.056  0.00  0.00    -0.495 OA
ATOM     32  C   UNL     1      20.534   5.150  20.476  0.00  0.00    +0.277 C 
ENDBRANCH  30   5
ENDBRANCH  19  20
ENDBRANCH  14  15
ENDBRANCH  10  14
TORSDOF 10
ENDMDL
MODEL 2
REMARK VINA RESULT:      -6.7     27.251     30.870
REMARK  Name = 75536399
REMARK  12 active torsions:
REMARK  status: ('A' for Active; 'I' for Inactive)
REMARK    1  A    between atoms: O_2  and  C_9
REMARK    2  A    between atoms: O_4  and  C_27
REMARK    3  A    between atoms: O_4  and  C_31
REMARK    4  A    between atoms: O_5  and  C_30
REMARK    5  A    between atoms: O_5  and  C_32
REMARK    6  A    between atoms: N_6  and  C_13
REMARK    7  A    between atoms: N_6  and  C_16
REMARK    8  A    between atoms: C_8  and  C_13
REMARK    9  A    between atoms: C_10  and  C_14
REMARK   10  A    between atoms: C_14  and  C_15
REMARK   11  A    between atoms: C_16  and  C_18
REMARK   12  A    between atoms: C_19  and  C_20
REMARK                            x       y       z     vdW  Elec       q    Type
REMARK                         _______ _______ _______ _____ _____    ______ ____
ROOT
ATOM      1  O   UNL     1     -16.468   2.853  23.205  0.00  0.00    -0.369 OA
ATOM      8  C   UNL     1     -16.219   4.176  22.714  0.00  0.00    +0.161 C 
ATOM      9  C   UNL     1     -17.385   4.682  21.856  0.00  0.00    +0.145 C 
ATOM     10  C   UNL     1     -17.683   2.697  23.940  0.00  0.00    +0.125 C 
ATOM     11  C   UNL     1     -18.735   4.500  22.546  0.00  0.00    +0.036 C 
ATOM     12  C   UNL     1     -18.887   3.079  23.081  0.00  0.00    +0.034 C 
ENDROOT
BRANCH   9   2
ATOM      2  O   UNL     1     -17.416   3.939  20.634  0.00  0.00    -0.389 OA
ATOM     34  H   UNL     1     -17.877   3.102  20.811  0.00  0.00    +0.210 HD
ENDBRANCH   9   2
BRANCH   8  13
ATOM     13  C   UNL     1     -15.859   5.128  23.853  0.00  0.00    +0.115 C 
BRANCH  13   6
ATOM      6  N   UNL     1     -14.589   5.788  23.594  0.00  0.00    -0.309 NA
ATOM     33  H   UNL     1     -14.758   6.765  23.354  0.00  0.00    +0.122 HD
BRANCH   6  16
ATOM     16  C   UNL     1     -13.885   5.149  22.488  0.00  0.00    +0.116 C 
BRANCH  16  18
ATOM     18  C   UNL     1     -13.421   6.152  21.465  0.00  0.00    -0.033 A 
ATOM     21  C   UNL     1     -14.352   6.934  20.781  0.00  0.00    +0.008 A 
ATOM     22  C   UNL     1     -12.060   6.299  21.202  0.00  0.00    +0.008 A 
ATOM     23  C   UNL     1     -13.922   7.862  19.834  0.00  0.00    +0.046 A 
ATOM     24  C   UNL     1     -11.629   7.228  20.254  0.00  0.00    +0.046 A 
ATOM     27  C   UNL     1     -12.560   8.010  19.570  0.00  0.00    +0.120 A 
BRANCH  27   4
ATOM      4  O   UNL     1     -12.140   8.916  18.646  0.00  0.00    -0.495 OA
ATOM     31  C   UNL     1     -10.735   9.004  18.415  0.00  0.00    +0.277 C 
ENDBRANCH  27   4
ENDBRANCH  16  18
ENDBRANCH   6  16
ENDBRANCH  13   6
ENDBRANCH   8  13
BRANCH  10  14
ATOM     14  C   UNL     1     -17.770   1.239  24.378  0.00  0.00    +0.090 C 
BRANCH  14  15
ATOM      3  O   UNL     1     -17.497   0.284  27.843  0.00  0.00    -0.354 OA
ATOM      7  N   UNL     1     -18.069   0.182  26.581  0.00  0.00    -0.083 NA
ATOM     15  C   UNL     1     -17.412   1.070  25.830  0.00  0.00    +0.087 A 
ATOM     17  C   UNL     1     -16.424   1.756  26.557  0.00  0.00    +0.076 A 
ATOM     19  C   UNL     1     -16.518   1.224  27.816  0.00  0.00    +0.167 A 
BRANCH  19  20
ATOM     20  C   UNL     1     -15.829   1.441  29.055  0.00  0.00    +0.020 A 
ATOM     25  C   UNL     1     -15.714   0.403  29.980  0.00  0.00    +0.015 A 
ATOM     26  C   UNL     1     -15.275   2.690  29.335  0.00  0.00    +0.015 A 
ATOM     28  C   UNL     1     -15.044   0.615  31.186  0.00  0.00    +0.046 A 
ATOM     29  C   UNL     1     -14.606   2.902  30.541  0.00  0.00    +0.046 A 
ATOM     30  C   UNL     1     -14.490   1.864  31.466  0.00  0.00    +0.120 A 
BRANCH  30   5
ATOM      5  O   UNL     1     -13.835   2.071  32.640  0.00  0.00    -0.495 OA
ATOM     32  C   UNL     1     -14.525   1.719  33.839  0.00  0.00    +0.277 C 
ENDBRANCH  30   5
ENDBRANCH  19  20
ENDBRANCH  14  15
ENDBRANCH  10  14
TORSDOF 10
ENDMDL
MODEL 3
REMARK VINA RESULT:      -6.7     26.834     30.615
REMARK  Name = 75536399
REMARK  12 active torsions:
REMARK  status: ('A' for Active; 'I' for Inactive)
REMARK    1  A    between atoms: O_2  and  C_9
REMARK    2  A    between atoms: O_4  and  C_27
REMARK    3  A    between atoms: O_4  and  C_31
REMARK    4  A    between atoms: O_5  and  C_30
REMARK    5  A    between atoms: O_5  and  C_32
REMARK    6  A    between atoms: N_6  and  C_13
REMARK    7  A    between atoms: N_6  and  C_16
REMARK    8  A    between atoms: C_8  and  C_13
REMARK    9  A    between atoms: C_10  and  C_14
REMARK   10  A    between atoms: C_14  and  C_15
REMARK   11  A    between atoms: C_16  and  C_18
REMARK   12  A    between atoms: C_19  and  C_20
REMARK                            x       y       z     vdW  Elec       q    Type
REMARK                         _______ _______ _______ _____ _____    ______ ____
ROOT
ATOM      1  O   UNL     1     -16.027   2.234  24.540  0.00  0.00    -0.369 OA
ATOM      8  C   UNL     1     -16.107   3.289  23.573  0.00  0.00    +0.161 C 
ATOM      9  C   UNL     1     -17.447   3.261  22.827  0.00  0.00    +0.145 C 
ATOM     10  C   UNL     1     -17.088   2.204  25.497  0.00  0.00    +0.125 C 
ATOM     11  C   UNL     1     -18.639   3.171  23.776  0.00  0.00    +0.036 C 
ATOM     12  C   UNL     1     -18.439   2.057  24.800  0.00  0.00    +0.034 C 
ENDROOT
BRANCH   9   2
ATOM      2  O   UNL     1     -17.478   2.110  21.978  0.00  0.00    -0.389 OA
ATOM     34  H   UNL     1     -18.369   1.726  22.037  0.00  0.00    +0.210 HD
ENDBRANCH   9   2
BRANCH   8  13
ATOM     13  C   UNL     1     -15.808   4.644  24.211  0.00  0.00    +0.115 C 
BRANCH  13   6
ATOM      6  N   UNL     1     -14.473   5.099  23.855  0.00  0.00    -0.309 NA
ATOM     33  H   UNL     1     -14.374   6.083  24.106  0.00  0.00    +0.122 HD
BRANCH   6  16
ATOM     16  C   UNL     1     -14.236   4.954  22.424  0.00  0.00    +0.116 C 
BRANCH  16  18
ATOM     18  C   UNL     1     -13.590   6.180  21.836  0.00  0.00    -0.033 A 
ATOM     21  C   UNL     1     -14.291   7.385  21.789  0.00  0.00    +0.008 A 
ATOM     22  C   UNL     1     -12.289   6.110  21.338  0.00  0.00    +0.008 A 
ATOM     23  C   UNL     1     -13.691   8.520  21.244  0.00  0.00    +0.046 A 
ATOM     24  C   UNL     1     -11.689   7.246  20.792  0.00  0.00    +0.046 A 
ATOM     27  C   UNL     1     -12.390   8.450  20.745  0.00  0.00    +0.120 A 
BRANCH  27   4
ATOM      4  O   UNL     1     -11.804   9.558  20.214  0.00  0.00    -0.495 OA
ATOM     31  C   UNL     1     -12.036  10.798  20.879  0.00  0.00    +0.277 C 
ENDBRANCH  27   4
ENDBRANCH  16  18
ENDBRANCH   6  16
ENDBRANCH  13   6
ENDBRANCH   8  13
BRANCH  10  14
ATOM     14  C   UNL     1     -16.830   1.028  26.432  0.00  0.00    +0.090 C 
BRANCH  14  15
ATOM      3  O   UNL     1     -15.548   1.329  29.788  0.00  0.00    -0.354 OA
ATOM      7  N   UNL     1     -16.027   0.585  28.716  0.00  0.00    -0.083 NA
ATOM     15  C   UNL     1     -16.287   1.481  27.761  0.00  0.00    +0.087 A 
ATOM     17  C   UNL     1     -15.995   2.794  28.167  0.00  0.00    +0.076 A 
ATOM     19  C   UNL     1     -15.533   2.643  29.448  0.00  0.00    +0.167 A 
BRANCH  19  20
ATOM     20  C   UNL     1     -15.058   3.542  30.461  0.00  0.00    +0.020 A 
ATOM     25  C   UNL     1     -13.970   3.184  31.255  0.00  0.00    +0.015 A 
ATOM     26  C   UNL     1     -15.684   4.773  30.649  0.00  0.00    +0.015 A 
ATOM     28  C   UNL     1     -13.508   4.058  32.240  0.00  0.00    +0.046 A 
ATOM     29  C   UNL     1     -15.223   5.647  31.633  0.00  0.00    +0.046 A 
ATOM     30  C   UNL     1     -14.134   5.290  32.429  0.00  0.00    +0.120 A 
BRANCH  30   5
ATOM      5  O   UNL     1     -13.683   6.144  33.387  0.00  0.00    -0.495 OA
ATOM     32  C   UNL     1     -13.959   7.532  33.201  0.00  0.00    +0.277 C 
ENDBRANCH  30   5
ENDBRANCH  19  20
ENDBRANCH  14  15
ENDBRANCH  10  14
TORSDOF 10
ENDMDL
MODEL 4
REMARK VINA RESULT:      -6.6     17.854     22.710
REMARK  Name = 75536399
REMARK  12 active torsions:
REMARK  status: ('A' for Active; 'I' for Inactive)
REMARK    1  A    between atoms: O_2  and  C_9
REMARK    2  A    between atoms: O_4  and  C_27
REMARK    3  A    between atoms: O_4  and  C_31
REMARK    4  A    between atoms: O_5  and  C_30
REMARK    5  A    between atoms: O_5  and  C_32
REMARK    6  A    between atoms: N_6  and  C_13
REMARK    7  A    between atoms: N_6  and  C_16
REMARK    8  A    between atoms: C_8  and  C_13
REMARK    9  A    between atoms: C_10  and  C_14
REMARK   10  A    between atoms: C_14  and  C_15
REMARK   11  A    between atoms: C_16  and  C_18
REMARK   12  A    between atoms: C_19  and  C_20
REMARK                            x       y       z     vdW  Elec       q    Type
REMARK                         _______ _______ _______ _____ _____    ______ ____
ROOT
ATOM      1  O   UNL     1      12.809   3.117   0.680  0.00  0.00    -0.369 OA
ATOM      8  C   UNL     1      13.247   3.933   1.774  0.00  0.00    +0.161 C 
ATOM      9  C   UNL     1      14.734   4.288   1.645  0.00  0.00    +0.145 C 
ATOM     10  C   UNL     1      13.041   3.666  -0.619  0.00  0.00    +0.125 C 
ATOM     11  C   UNL     1      15.083   4.832   0.261  0.00  0.00    +0.036 C 
ATOM     12  C   UNL     1      14.531   3.926  -0.836  0.00  0.00    +0.034 C 
ENDROOT
BRANCH   9   2
ATOM      2  O   UNL     1      15.511   3.107   1.858  0.00  0.00    -0.389 OA
ATOM     34  H   UNL     1      15.178   2.679   2.665  0.00  0.00    +0.210 HD
ENDBRANCH   9   2
BRANCH   8  13
ATOM     13  C   UNL     1      12.352   5.160   1.939  0.00  0.00    +0.115 C 
BRANCH  13   6
ATOM      6  N   UNL     1      12.332   5.603   3.324  0.00  0.00    -0.309 NA
ATOM     33  H   UNL     1      12.716   4.868   3.919  0.00  0.00    +0.122 HD
BRANCH   6  16
ATOM     16  C   UNL     1      10.971   5.895   3.759  0.00  0.00    +0.116 C 
BRANCH  16  18
ATOM     18  C   UNL     1      10.817   5.755   5.250  0.00  0.00    -0.033 A 
ATOM     21  C   UNL     1      11.612   6.516   6.108  0.00  0.00    +0.008 A 
ATOM     22  C   UNL     1       9.880   4.866   5.773  0.00  0.00    +0.008 A 
ATOM     23  C   UNL     1      11.469   6.385   7.489  0.00  0.00    +0.046 A 
ATOM     24  C   UNL     1       9.737   4.735   7.155  0.00  0.00    +0.046 A 
ATOM     27  C   UNL     1      10.531   5.495   8.013  0.00  0.00    +0.120 A 
BRANCH  27   4
ATOM      4  O   UNL     1      10.391   5.368   9.360  0.00  0.00    -0.495 OA
ATOM     31  C   UNL     1       9.261   4.634   9.830  0.00  0.00    +0.277 C 
ENDBRANCH  27   4
ENDBRANCH  16  18
ENDBRANCH   6  16
ENDBRANCH  13   6
ENDBRANCH   8  13
BRANCH  10  14
ATOM     14  C   UNL     1      12.511   2.666  -1.641  0.00  0.00    +0.090 C 
BRANCH  14  15
ATOM      3  O   UNL     1       9.332   3.018  -3.303  0.00  0.00    -0.354 OA
ATOM      7  N   UNL     1      10.394   2.258  -2.827  0.00  0.00    -0.083 NA
ATOM     15  C   UNL     1      11.229   3.139  -2.271  0.00  0.00    +0.087 A 
ATOM     17  C   UNL     1      10.753   4.458  -2.364  0.00  0.00    +0.076 A 
ATOM     19  C   UNL     1       9.558   4.327  -3.020  0.00  0.00    +0.167 A 
BRANCH  19  20
ATOM     20  C   UNL     1       8.540   5.241  -3.452  0.00  0.00    +0.020 A 
ATOM     25  C   UNL     1       7.917   5.059  -4.687  0.00  0.00    +0.015 A 
ATOM     26  C   UNL     1       8.172   6.311  -2.636  0.00  0.00    +0.015 A 
ATOM     28  C   UNL     1       6.927   5.948  -5.106  0.00  0.00    +0.046 A 
ATOM     29  C   UNL     1       7.183   7.200  -3.056  0.00  0.00    +0.046 A 
ATOM     30  C   UNL     1       6.559   7.018  -4.291  0.00  0.00    +0.120 A 
BRANCH  30   5
ATOM      5  O   UNL     1       5.592   7.884  -4.698  0.00  0.00    -0.495 OA
ATOM     32  C   UNL     1       4.621   7.386  -5.618  0.00  0.00    +0.277 C 
ENDBRANCH  30   5
ENDBRANCH  19  20
ENDBRANCH  14  15
ENDBRANCH  10  14
TORSDOF 10
ENDMDL
MODEL 5
REMARK VINA RESULT:      -6.3     26.796     29.188
REMARK  Name = 75536399
REMARK  12 active torsions:
REMARK  status: ('A' for Active; 'I' for Inactive)
REMARK    1  A    between atoms: O_2  and  C_9
REMARK    2  A    between atoms: O_4  and  C_27
REMARK    3  A    between atoms: O_4  and  C_31
REMARK    4  A    between atoms: O_5  and  C_30
REMARK    5  A    between atoms: O_5  and  C_32
REMARK    6  A    between atoms: N_6  and  C_13
REMARK    7  A    between atoms: N_6  and  C_16
REMARK    8  A    between atoms: C_8  and  C_13
REMARK    9  A    between atoms: C_10  and  C_14
REMARK   10  A    between atoms: C_14  and  C_15
REMARK   11  A    between atoms: C_16  and  C_18
REMARK   12  A    between atoms: C_19  and  C_20
REMARK                            x       y       z     vdW  Elec       q    Type
REMARK                         _______ _______ _______ _____ _____    ______ ____
ROOT
ATOM      1  O   UNL     1      -4.094 -12.081  16.055  0.00  0.00    -0.369 OA
ATOM      8  C   UNL     1      -5.346 -12.457  16.643  0.00  0.00    +0.161 C 
ATOM      9  C   UNL     1      -5.175 -12.842  18.118  0.00  0.00    +0.145 C 
ATOM     10  C   UNL     1      -3.397 -11.031  16.728  0.00  0.00    +0.125 C 
ATOM     11  C   UNL     1      -4.388 -11.797  18.904  0.00  0.00    +0.036 C 
ATOM     12  C   UNL     1      -3.101 -11.422  18.175  0.00  0.00    +0.034 C 
ENDROOT
BRANCH   9   2
ATOM      2  O   UNL     1      -4.457 -14.077  18.193  0.00  0.00    -0.389 OA
ATOM     34  H   UNL     1      -3.855 -14.113  17.431  0.00  0.00    +0.210 HD
ENDBRANCH   9   2
BRANCH   8  13
ATOM     13  C   UNL     1      -6.404 -11.377  16.427  0.00  0.00    +0.115 C 
BRANCH  13   6
ATOM      6  N   UNL     1      -6.295 -10.806  15.094  0.00  0.00    -0.309 NA
ATOM     33  H   UNL     1      -6.932 -10.013  15.013  0.00  0.00    +0.122 HD
BRANCH   6  16
ATOM     16  C   UNL     1      -6.640 -11.791  14.075  0.00  0.00    +0.116 C 
BRANCH  16  18
ATOM     18  C   UNL     1      -6.955 -11.142  12.753  0.00  0.00    -0.033 A 
ATOM     21  C   UNL     1      -7.452 -11.910  11.699  0.00  0.00    +0.008 A 
ATOM     22  C   UNL     1      -6.751  -9.773  12.583  0.00  0.00    +0.008 A 
ATOM     23  C   UNL     1      -7.743 -11.308  10.476  0.00  0.00    +0.046 A 
ATOM     24  C   UNL     1      -7.042  -9.172  11.358  0.00  0.00    +0.046 A 
ATOM     27  C   UNL     1      -7.539  -9.940  10.305  0.00  0.00    +0.120 A 
BRANCH  27   4
ATOM      4  O   UNL     1      -7.824  -9.352   9.111  0.00  0.00    -0.495 OA
ATOM     31  C   UNL     1      -7.573  -7.952   8.999  0.00  0.00    +0.277 C 
ENDBRANCH  27   4
ENDBRANCH  16  18
ENDBRANCH   6  16
ENDBRANCH  13   6
ENDBRANCH   8  13
BRANCH  10  14
ATOM     14  C   UNL     1      -2.105 -10.773  15.960  0.00  0.00    +0.090 C 
BRANCH  14  15
ATOM      3  O   UNL     1      -1.974 -11.840  12.520  0.00  0.00    -0.354 OA
ATOM      7  N   UNL     1      -1.566 -11.912  13.846  0.00  0.00    -0.083 NA
ATOM     15  C   UNL     1      -2.285 -10.982  14.480  0.00  0.00    +0.087 A 
ATOM     17  C   UNL     1      -3.154 -10.297  13.615  0.00  0.00    +0.076 A 
ATOM     19  C   UNL     1      -2.920 -10.874  12.395  0.00  0.00    +0.167 A 
BRANCH  19  20
ATOM     20  C   UNL     1      -3.442 -10.682  11.072  0.00  0.00    +0.020 A 
ATOM     25  C   UNL     1      -3.901 -11.776  10.339  0.00  0.00    +0.015 A 
ATOM     26  C   UNL     1      -3.491  -9.402  10.521  0.00  0.00    +0.015 A 
ATOM     28  C   UNL     1      -4.408 -11.589   9.052  0.00  0.00    +0.046 A 
ATOM     29  C   UNL     1      -3.998  -9.215   9.236  0.00  0.00    +0.046 A 
ATOM     30  C   UNL     1      -4.457 -10.308   8.501  0.00  0.00    +0.120 A 
BRANCH  30   5
ATOM      5  O   UNL     1      -4.955 -10.125   7.248  0.00  0.00    -0.495 OA
ATOM     32  C   UNL     1      -5.882 -11.098   6.770  0.00  0.00    +0.277 C 
ENDBRANCH  30   5
ENDBRANCH  19  20
ENDBRANCH  14  15
ENDBRANCH  10  14
TORSDOF 10
ENDMDL
MODEL 6
REMARK VINA RESULT:      -6.3     27.327     29.682
REMARK  Name = 75536399
REMARK  12 active torsions:
REMARK  status: ('A' for Active; 'I' for Inactive)
REMARK    1  A    between atoms: O_2  and  C_9
REMARK    2  A    between atoms: O_4  and  C_27
REMARK    3  A    between atoms: O_4  and  C_31
REMARK    4  A    between atoms: O_5  and  C_30
REMARK    5  A    between atoms: O_5  and  C_32
REMARK    6  A    between atoms: N_6  and  C_13
REMARK    7  A    between atoms: N_6  and  C_16
REMARK    8  A    between atoms: C_8  and  C_13
REMARK    9  A    between atoms: C_10  and  C_14
REMARK   10  A    between atoms: C_14  and  C_15
REMARK   11  A    between atoms: C_16  and  C_18
REMARK   12  A    between atoms: C_19  and  C_20
REMARK                            x       y       z     vdW  Elec       q    Type
REMARK                         _______ _______ _______ _____ _____    ______ ____
ROOT
ATOM      1  O   UNL     1      -4.772  -9.283  11.675  0.00  0.00    -0.369 OA
ATOM      8  C   UNL     1      -5.983  -9.122  10.927  0.00  0.00    +0.161 C 
ATOM      9  C   UNL     1      -5.728  -9.237   9.419  0.00  0.00    +0.145 C 
ATOM     10  C   UNL     1      -4.056 -10.494  11.420  0.00  0.00    +0.125 C 
ATOM     11  C   UNL     1      -4.916 -10.479   9.061  0.00  0.00    +0.036 C 
ATOM     12  C   UNL     1      -3.676 -10.594   9.944  0.00  0.00    +0.034 C 
ENDROOT
BRANCH   9   2
ATOM      2  O   UNL     1      -4.987  -8.092   8.988  0.00  0.00    -0.389 OA
ATOM     34  H   UNL     1      -4.709  -8.251   8.070  0.00  0.00    +0.210 HD
ENDBRANCH   9   2
BRANCH   8  13
ATOM     13  C   UNL     1      -7.069 -10.076  11.423  0.00  0.00    +0.115 C 
BRANCH  13   6
ATOM      6  N   UNL     1      -7.363  -9.840  12.828  0.00  0.00    -0.309 NA
ATOM     33  H   UNL     1      -6.516  -9.523  13.301  0.00  0.00    +0.122 HD
BRANCH   6  16
ATOM     16  C   UNL     1      -7.832 -11.060  13.474  0.00  0.00    +0.116 C 
BRANCH  16  18
ATOM     18  C   UNL     1      -8.333 -10.797  14.869  0.00  0.00    -0.033 A 
ATOM     21  C   UNL     1      -9.100 -11.758  15.529  0.00  0.00    +0.008 A 
ATOM     22  C   UNL     1      -8.030  -9.592  15.503  0.00  0.00    +0.008 A 
ATOM     23  C   UNL     1      -9.563 -11.513  16.822  0.00  0.00    +0.046 A 
ATOM     24  C   UNL     1      -8.494  -9.347  16.796  0.00  0.00    +0.046 A 
ATOM     27  C   UNL     1      -9.260 -10.308  17.455  0.00  0.00    +0.120 A 
BRANCH  27   4
ATOM      4  O   UNL     1      -9.712 -10.070  18.717  0.00  0.00    -0.495 OA
ATOM     31  C   UNL     1     -11.099  -9.774  18.865  0.00  0.00    +0.277 C 
ENDBRANCH  27   4
ENDBRANCH  16  18
ENDBRANCH   6  16
ENDBRANCH  13   6
ENDBRANCH   8  13
BRANCH  10  14
ATOM     14  C   UNL     1      -2.812 -10.485  12.301  0.00  0.00    +0.090 C 
BRANCH  14  15
ATOM      3  O   UNL     1      -2.877 -10.686  15.900  0.00  0.00    -0.354 OA
ATOM      7  N   UNL     1      -2.235 -10.433  14.693  0.00  0.00    -0.083 NA
ATOM     15  C   UNL     1      -3.158 -10.663  13.755  0.00  0.00    +0.087 A 
ATOM     17  C   UNL     1      -4.389 -11.061  14.304  0.00  0.00    +0.076 A 
ATOM     19  C   UNL     1      -4.159 -11.059  15.654  0.00  0.00    +0.167 A 
BRANCH  19  20
ATOM     20  C   UNL     1      -4.953 -11.354  16.812  0.00  0.00    +0.020 A 
ATOM     25  C   UNL     1      -5.599 -12.585  16.919  0.00  0.00    +0.015 A 
ATOM     26  C   UNL     1      -5.078 -10.410  17.831  0.00  0.00    +0.015 A 
ATOM     28  C   UNL     1      -6.372 -12.871  18.045  0.00  0.00    +0.046 A 
ATOM     29  C   UNL     1      -5.851 -10.696  18.956  0.00  0.00    +0.046 A 
ATOM     30  C   UNL     1      -6.497 -11.927  19.064  0.00  0.00    +0.120 A 
BRANCH  30   5
ATOM      5  O   UNL     1      -7.248 -12.207  20.163  0.00  0.00    -0.495 OA
ATOM     32  C   UNL     1      -8.354 -13.091  19.985  0.00  0.00    +0.277 C 
ENDBRANCH  30   5
ENDBRANCH  19  20
ENDBRANCH  14  15
ENDBRANCH  10  14
TORSDOF 10
ENDMDL
MODEL 7
REMARK VINA RESULT:      -6.3     14.915     18.764
REMARK  Name = 75536399
REMARK  12 active torsions:
REMARK  status: ('A' for Active; 'I' for Inactive)
REMARK    1  A    between atoms: O_2  and  C_9
REMARK    2  A    between atoms: O_4  and  C_27
REMARK    3  A    between atoms: O_4  and  C_31
REMARK    4  A    between atoms: O_5  and  C_30
REMARK    5  A    between atoms: O_5  and  C_32
REMARK    6  A    between atoms: N_6  and  C_13
REMARK    7  A    between atoms: N_6  and  C_16
REMARK    8  A    between atoms: C_8  and  C_13
REMARK    9  A    between atoms: C_10  and  C_14
REMARK   10  A    between atoms: C_14  and  C_15
REMARK   11  A    between atoms: C_16  and  C_18
REMARK   12  A    between atoms: C_19  and  C_20
REMARK                            x       y       z     vdW  Elec       q    Type
REMARK                         _______ _______ _______ _____ _____    ______ ____
ROOT
ATOM      1  O   UNL     1      11.450   6.125   6.727  0.00  0.00    -0.369 OA
ATOM      8  C   UNL     1      10.453   5.131   6.996  0.00  0.00    +0.161 C 
ATOM      9  C   UNL     1       9.577   5.527   8.191  0.00  0.00    +0.145 C 
ATOM     10  C   UNL     1      10.948   7.446   6.513  0.00  0.00    +0.125 C 
ATOM     11  C   UNL     1       9.043   6.952   8.072  0.00  0.00    +0.036 C 
ATOM     12  C   UNL     1      10.165   7.929   7.733  0.00  0.00    +0.034 C 
ENDROOT
BRANCH   9   2
ATOM      2  O   UNL     1      10.363   5.454   9.384  0.00  0.00    -0.389 OA
ATOM     34  H   UNL     1       9.966   4.776   9.956  0.00  0.00    +0.210 HD
ENDBRANCH   9   2
BRANCH   8  13
ATOM     13  C   UNL     1       9.642   4.810   5.742  0.00  0.00    +0.115 C 
BRANCH  13   6
ATOM      6  N   UNL     1      10.514   4.402   4.652  0.00  0.00    -0.309 NA
ATOM     33  H   UNL     1      11.485   4.571   4.915  0.00  0.00    +0.122 HD
BRANCH   6  16
ATOM     16  C   UNL     1      10.219   5.154   3.438  0.00  0.00    +0.116 C 
BRANCH  16  18
ATOM     18  C   UNL     1      10.905   4.567   2.234  0.00  0.00    -0.033 A 
ATOM     21  C   UNL     1      12.022   3.747   2.398  0.00  0.00    +0.008 A 
ATOM     22  C   UNL     1      10.425   4.843   0.955  0.00  0.00    +0.008 A 
ATOM     23  C   UNL     1      12.658   3.204   1.282  0.00  0.00    +0.046 A 
ATOM     24  C   UNL     1      11.061   4.299  -0.162  0.00  0.00    +0.046 A 
ATOM     27  C   UNL     1      12.177   3.479   0.002  0.00  0.00    +0.120 A 
BRANCH  27   4
ATOM      4  O   UNL     1      12.797   2.949  -1.088  0.00  0.00    -0.495 OA
ATOM     31  C   UNL     1      11.985   2.675  -2.228  0.00  0.00    +0.277 C 
ENDBRANCH  27   4
ENDBRANCH  16  18
ENDBRANCH   6  16
ENDBRANCH  13   6
ENDBRANCH   8  13
BRANCH  10  14
ATOM     14  C   UNL     1      12.144   8.352   6.242  0.00  0.00    +0.090 C 
BRANCH  14  15
ATOM      3  O   UNL     1      14.705   7.127   4.020  0.00  0.00    -0.354 OA
ATOM      7  N   UNL     1      14.254   7.541   5.268  0.00  0.00    -0.083 NA
ATOM     15  C   UNL     1      12.969   7.855   5.085  0.00  0.00    +0.087 A 
ATOM     17  C   UNL     1      12.556   7.663   3.755  0.00  0.00    +0.076 A 
ATOM     19  C   UNL     1      13.684   7.204   3.128  0.00  0.00    +0.167 A 
BRANCH  19  20
ATOM     20  C   UNL     1      13.999   6.805   1.787  0.00  0.00    +0.020 A 
ATOM     25  C   UNL     1      15.043   5.910   1.552  0.00  0.00    +0.015 A 
ATOM     26  C   UNL     1      13.261   7.311   0.717  0.00  0.00    +0.015 A 
ATOM     28  C   UNL     1      15.349   5.522   0.247  0.00  0.00    +0.046 A 
ATOM     29  C   UNL     1      13.567   6.923  -0.587  0.00  0.00    +0.046 A 
ATOM     30  C   UNL     1      14.611   6.028  -0.822  0.00  0.00    +0.120 A 
BRANCH  30   5
ATOM      5  O   UNL     1      14.907   5.648  -2.095  0.00  0.00    -0.495 OA
ATOM     32  C   UNL     1      16.196   5.077  -2.317  0.00  0.00    +0.277 C 
ENDBRANCH  30   5
ENDBRANCH  19  20
ENDBRANCH  14  15
ENDBRANCH  10  14
TORSDOF 10
ENDMDL
MODEL 8
REMARK VINA RESULT:      -6.2      2.234      6.203
REMARK  Name = 75536399
REMARK  12 active torsions:
REMARK  status: ('A' for Active; 'I' for Inactive)
REMARK    1  A    between atoms: O_2  and  C_9
REMARK    2  A    between atoms: O_4  and  C_27
REMARK    3  A    between atoms: O_4  and  C_31
REMARK    4  A    between atoms: O_5  and  C_30
REMARK    5  A    between atoms: O_5  and  C_32
REMARK    6  A    between atoms: N_6  and  C_13
REMARK    7  A    between atoms: N_6  and  C_16
REMARK    8  A    between atoms: C_8  and  C_13
REMARK    9  A    between atoms: C_10  and  C_14
REMARK   10  A    between atoms: C_14  and  C_15
REMARK   11  A    between atoms: C_16  and  C_18
REMARK   12  A    between atoms: C_19  and  C_20
REMARK                            x       y       z     vdW  Elec       q    Type
REMARK                         _______ _______ _______ _____ _____    ______ ____
ROOT
ATOM      1  O   UNL     1      12.953   8.951  19.687  0.00  0.00    -0.369 OA
ATOM      8  C   UNL     1      12.101   9.355  20.767  0.00  0.00    +0.161 C 
ATOM      9  C   UNL     1      11.121   8.239  21.152  0.00  0.00    +0.145 C 
ATOM     10  C   UNL     1      13.689   7.747  19.911  0.00  0.00    +0.125 C 
ATOM     11  C   UNL     1      11.820   6.897  21.356  0.00  0.00    +0.036 C 
ATOM     12  C   UNL     1      12.743   6.579  20.183  0.00  0.00    +0.034 C 
ENDROOT
BRANCH   9   2
ATOM      2  O   UNL     1      10.168   8.079  20.098  0.00  0.00    -0.389 OA
ATOM     34  H   UNL     1      10.515   8.539  19.316  0.00  0.00    +0.210 HD
ENDBRANCH   9   2
BRANCH   8  13
ATOM     13  C   UNL     1      12.919   9.866  21.952  0.00  0.00    +0.115 C 
BRANCH  13   6
ATOM      6  N   UNL     1      13.017  11.317  21.925  0.00  0.00    -0.309 NA
ATOM     33  H   UNL     1      13.553  11.634  22.733  0.00  0.00    +0.122 HD
BRANCH   6  16
ATOM     16  C   UNL     1      11.695  11.930  21.969  0.00  0.00    +0.116 C 
BRANCH  16  18
ATOM     18  C   UNL     1      11.488  12.727  23.229  0.00  0.00    -0.033 A 
ATOM     21  C   UNL     1      12.037  14.004  23.346  0.00  0.00    +0.008 A 
ATOM     22  C   UNL     1      10.748  12.187  24.281  0.00  0.00    +0.008 A 
ATOM     23  C   UNL     1      11.846  14.741  24.515  0.00  0.00    +0.046 A 
ATOM     24  C   UNL     1      10.556  12.925  25.450  0.00  0.00    +0.046 A 
ATOM     27  C   UNL     1      11.105  14.202  25.566  0.00  0.00    +0.120 A 
BRANCH  27   4
ATOM      4  O   UNL     1      10.917  14.921  26.706  0.00  0.00    -0.495 OA
ATOM     31  C   UNL     1      12.075  15.216  27.486  0.00  0.00    +0.277 C 
ENDBRANCH  27   4
ENDBRANCH  16  18
ENDBRANCH   6  16
ENDBRANCH  13   6
ENDBRANCH   8  13
BRANCH  10  14
ATOM     14  C   UNL     1      14.530   7.486  18.666  0.00  0.00    +0.090 C 
BRANCH  14  15
ATOM      3  O   UNL     1      17.506   5.457  18.832  0.00  0.00    -0.354 OA
ATOM      7  N   UNL     1      16.301   5.828  18.247  0.00  0.00    -0.083 NA
ATOM     15  C   UNL     1      15.839   6.825  19.006  0.00  0.00    +0.087 A 
ATOM     17  C   UNL     1      16.700   7.125  20.076  0.00  0.00    +0.076 A 
ATOM     19  C   UNL     1      17.733   6.237  19.920  0.00  0.00    +0.167 A 
BRANCH  19  20
ATOM     20  C   UNL     1      18.949   5.971  20.633  0.00  0.00    +0.020 A 
ATOM     25  C   UNL     1      19.854   5.032  20.141  0.00  0.00    +0.015 A 
ATOM     26  C   UNL     1      19.226   6.653  21.818  0.00  0.00    +0.015 A 
ATOM     28  C   UNL     1      21.037   4.773  20.835  0.00  0.00    +0.046 A 
ATOM     29  C   UNL     1      20.408   6.395  22.511  0.00  0.00    +0.046 A 
ATOM     30  C   UNL     1      21.314   5.455  22.020  0.00  0.00    +0.120 A 
BRANCH  30   5
ATOM      5  O   UNL     1      22.468   5.205  22.695  0.00  0.00    -0.495 OA
ATOM     32  C   UNL     1      23.401   4.319  22.079  0.00  0.00    +0.277 C 
ENDBRANCH  30   5
ENDBRANCH  19  20
ENDBRANCH  14  15
ENDBRANCH  10  14
TORSDOF 10
ENDMDL
MODEL 9
REMARK VINA RESULT:      -6.1     27.348     30.253
REMARK  Name = 75536399
REMARK  12 active torsions:
REMARK  status: ('A' for Active; 'I' for Inactive)
REMARK    1  A    between atoms: O_2  and  C_9
REMARK    2  A    between atoms: O_4  and  C_27
REMARK    3  A    between atoms: O_4  and  C_31
REMARK    4  A    between atoms: O_5  and  C_30
REMARK    5  A    between atoms: O_5  and  C_32
REMARK    6  A    between atoms: N_6  and  C_13
REMARK    7  A    between atoms: N_6  and  C_16
REMARK    8  A    between atoms: C_8  and  C_13
REMARK    9  A    between atoms: C_10  and  C_14
REMARK   10  A    between atoms: C_14  and  C_15
REMARK   11  A    between atoms: C_16  and  C_18
REMARK   12  A    between atoms: C_19  and  C_20
REMARK                            x       y       z     vdW  Elec       q    Type
REMARK                         _______ _______ _______ _____ _____    ______ ____
ROOT
ATOM      1  O   UNL     1      -4.016 -11.770  13.586  0.00  0.00    -0.369 OA
ATOM      8  C   UNL     1      -2.814 -12.051  14.315  0.00  0.00    +0.161 C 
ATOM      9  C   UNL     1      -1.608 -12.175  13.375  0.00  0.00    +0.145 C 
ATOM     10  C   UNL     1      -3.962 -10.613  12.749  0.00  0.00    +0.125 C 
ATOM     11  C   UNL     1      -1.506 -11.002  12.402  0.00  0.00    +0.036 C 
ATOM     12  C   UNL     1      -2.845 -10.746  11.716  0.00  0.00    +0.034 C 
ENDROOT
BRANCH   9   2
ATOM      2  O   UNL     1      -1.744 -13.371  12.604  0.00  0.00    -0.389 OA
ATOM     34  H   UNL     1      -1.024 -13.384  11.952  0.00  0.00    +0.210 HD
ENDBRANCH   9   2
BRANCH   8  13
ATOM     13  C   UNL     1      -2.597 -11.033  15.434  0.00  0.00    +0.115 C 
BRANCH  13   6
ATOM      6  N   UNL     1      -3.310 -11.427  16.638  0.00  0.00    -0.309 NA
ATOM     33  H   UNL     1      -3.721 -12.351  16.499  0.00  0.00    +0.122 HD
BRANCH   6  16
ATOM     16  C   UNL     1      -4.376 -10.481  16.947  0.00  0.00    +0.116 C 
BRANCH  16  18
ATOM     18  C   UNL     1      -5.485 -11.124  17.736  0.00  0.00    -0.033 A 
ATOM     21  C   UNL     1      -5.981 -12.371  17.355  0.00  0.00    +0.008 A 
ATOM     22  C   UNL     1      -6.015 -10.473  18.849  0.00  0.00    +0.008 A 
ATOM     23  C   UNL     1      -7.009 -12.966  18.086  0.00  0.00    +0.046 A 
ATOM     24  C   UNL     1      -7.043 -11.068  19.581  0.00  0.00    +0.046 A 
ATOM     27  C   UNL     1      -7.540 -12.315  19.200  0.00  0.00    +0.120 A 
BRANCH  27   4
ATOM      4  O   UNL     1      -8.542 -12.895  19.915  0.00  0.00    -0.495 OA
ATOM     31  C   UNL     1      -9.180 -14.032  19.334  0.00  0.00    +0.277 C 
ENDBRANCH  27   4
ENDBRANCH  16  18
ENDBRANCH   6  16
ENDBRANCH  13   6
ENDBRANCH   8  13
BRANCH  10  14
ATOM     14  C   UNL     1      -5.319 -10.478  12.066  0.00  0.00    +0.090 C 
BRANCH  14  15
ATOM      3  O   UNL     1      -8.190 -11.667  13.893  0.00  0.00    -0.354 OA
ATOM      7  N   UNL     1      -7.279 -11.746  12.847  0.00  0.00    -0.083 NA
ATOM     15  C   UNL     1      -6.453 -10.712  13.028  0.00  0.00    +0.087 A 
ATOM     17  C   UNL     1      -6.789  -9.952  14.161  0.00  0.00    +0.076 A 
ATOM     19  C   UNL     1      -7.887 -10.595  14.670  0.00  0.00    +0.167 A 
BRANCH  19  20
ATOM     20  C   UNL     1      -8.745 -10.382  15.799  0.00  0.00    +0.020 A 
ATOM     25  C   UNL     1      -9.680 -11.354  16.157  0.00  0.00    +0.015 A 
ATOM     26  C   UNL     1      -8.645  -9.205  16.540  0.00  0.00    +0.015 A 
ATOM     28  C   UNL     1     -10.515 -11.147  17.256  0.00  0.00    +0.046 A 
ATOM     29  C   UNL     1      -9.479  -8.998  17.638  0.00  0.00    +0.046 A 
ATOM     30  C   UNL     1     -10.414  -9.969  17.997  0.00  0.00    +0.120 A 
BRANCH  30   5
ATOM      5  O   UNL     1     -11.226  -9.768  19.070  0.00  0.00    -0.495 OA
ATOM     32  C   UNL     1     -10.754 -10.231  20.335  0.00  0.00    +0.277 C 
ENDBRANCH  30   5
ENDBRANCH  19  20
ENDBRANCH  14  15
ENDBRANCH  10  14
TORSDOF 10
ENDMDL
MODEL 10
REMARK VINA RESULT:      -6.1      3.025      6.450
REMARK  Name = 75536399
REMARK  12 active torsions:
REMARK  status: ('A' for Active; 'I' for Inactive)
REMARK    1  A    between atoms: O_2  and  C_9
REMARK    2  A    between atoms: O_4  and  C_27
REMARK    3  A    between atoms: O_4  and  C_31
REMARK    4  A    between atoms: O_5  and  C_30
REMARK    5  A    between atoms: O_5  and  C_32
REMARK    6  A    between atoms: N_6  and  C_13
REMARK    7  A    between atoms: N_6  and  C_16
REMARK    8  A    between atoms: C_8  and  C_13
REMARK    9  A    between atoms: C_10  and  C_14
REMARK   10  A    between atoms: C_14  and  C_15
REMARK   11  A    between atoms: C_16  and  C_18
REMARK   12  A    between atoms: C_19  and  C_20
REMARK                            x       y       z     vdW  Elec       q    Type
REMARK                         _______ _______ _______ _____ _____    ______ ____
ROOT
ATOM      1  O   UNL     1      14.838   7.036  18.206  0.00  0.00    -0.369 OA
ATOM      8  C   UNL     1      13.671   7.850  18.377  0.00  0.00    +0.161 C 
ATOM      9  C   UNL     1      12.831   7.378  19.571  0.00  0.00    +0.145 C 
ATOM     10  C   UNL     1      15.683   6.935  19.354  0.00  0.00    +0.125 C 
ATOM     11  C   UNL     1      13.670   7.188  20.832  0.00  0.00    +0.036 C 
ATOM     12  C   UNL     1      14.914   6.355  20.540  0.00  0.00    +0.034 C 
ENDROOT
BRANCH   9   2
ATOM      2  O   UNL     1      12.238   6.118  19.247  0.00  0.00    -0.389 OA
ATOM     34  H   UNL     1      11.997   5.684  20.083  0.00  0.00    +0.210 HD
ENDBRANCH   9   2
BRANCH   8  13
ATOM     13  C   UNL     1      14.039   9.331  18.455  0.00  0.00    +0.115 C 
BRANCH  13   6
ATOM      6  N   UNL     1      12.871  10.139  18.769  0.00  0.00    -0.309 NA
ATOM     33  H   UNL     1      12.418  10.429  17.902  0.00  0.00    +0.122 HD
BRANCH   6  16
ATOM     16  C   UNL     1      13.246  11.329  19.523  0.00  0.00    +0.116 C 
BRANCH  16  18
ATOM     18  C   UNL     1      12.480  11.438  20.815  0.00  0.00    -0.033 A 
ATOM     21  C   UNL     1      12.506  12.627  21.544  0.00  0.00    +0.008 A 
ATOM     22  C   UNL     1      11.744  10.349  21.282  0.00  0.00    +0.008 A 
ATOM     23  C   UNL     1      11.796  12.727  22.740  0.00  0.00    +0.046 A 
ATOM     24  C   UNL     1      11.034  10.449  22.479  0.00  0.00    +0.046 A 
ATOM     27  C   UNL     1      11.060  11.638  23.207  0.00  0.00    +0.120 A 
BRANCH  27   4
ATOM      4  O   UNL     1      10.366  11.736  24.375  0.00  0.00    -0.495 OA
ATOM     31  C   UNL     1      10.821  12.699  25.323  0.00  0.00    +0.277 C 
ENDBRANCH  27   4
ENDBRANCH  16  18
ENDBRANCH   6  16
ENDBRANCH  13   6
ENDBRANCH   8  13
BRANCH  10  14
ATOM     14  C   UNL     1      16.860   6.041  18.980  0.00  0.00    +0.090 C 
BRANCH  14  15
ATOM      3  O   UNL     1      19.867   5.718  20.941  0.00  0.00    -0.354 OA
ATOM      7  N   UNL     1      19.011   5.309  19.926  0.00  0.00    -0.083 NA
ATOM     15  C   UNL     1      17.996   6.177  19.958  0.00  0.00    +0.087 A 
ATOM     17  C   UNL     1      18.153   7.145  20.964  0.00  0.00    +0.076 A 
ATOM     19  C   UNL     1      19.345   6.813  21.552  0.00  0.00    +0.167 A 
BRANCH  19  20
ATOM     20  C   UNL     1      20.122   7.354  22.629  0.00  0.00    +0.020 A 
ATOM     25  C   UNL     1      21.056   6.554  23.286  0.00  0.00    +0.015 A 
ATOM     26  C   UNL     1      19.945   8.682  23.017  0.00  0.00    +0.015 A 
ATOM     28  C   UNL     1      21.812   7.081  24.334  0.00  0.00    +0.046 A 
ATOM     29  C   UNL     1      20.701   9.209  24.065  0.00  0.00    +0.046 A 
ATOM     30  C   UNL     1      21.635   8.409  24.723  0.00  0.00    +0.120 A 
BRANCH  30   5
ATOM      5  O   UNL     1      22.374   8.924  25.743  0.00  0.00    -0.495 OA
ATOM     32  C   UNL     1      22.396   8.187  26.964  0.00  0.00    +0.277 C 
ENDBRANCH  30   5
ENDBRANCH  19  20
ENDBRANCH  14  15
ENDBRANCH  10  14
TORSDOF 10
ENDMDL
