MODEL 1
REMARK VINA RESULT:      -7.0      0.000      0.000
REMARK  Name = 40777440
REMARK  9 active torsions:
REMARK  status: ('A' for Active; 'I' for Inactive)
REMARK    1  A    between atoms: O_3  and  C_35
REMARK    2  A    between atoms: O_3  and  C_36
REMARK    3  A    between atoms: C_7  and  C_10
REMARK    4  A    between atoms: C_8  and  C_14
REMARK    5  A    between atoms: C_10  and  C_19
REMARK    6  A    between atoms: C_12  and  C_20
REMARK    7  A    between atoms: C_14  and  C_21
REMARK    8  A    between atoms: C_20  and  C_22
REMARK    9  A    between atoms: C_24  and  C_29
REMARK                            x       y       z     vdW  Elec       q    Type
REMARK                         _______ _______ _______ _____ _____    ______ ____
ROOT
ATOM      5  N   UNL     1       4.461  11.525   0.664  0.00  0.00    -0.316 NA
ATOM      7  C   UNL     1       6.004   9.163  -0.202  0.00  0.00    +0.004 C 
ATOM      8  C   UNL     1       6.287   9.906   1.125  0.00  0.00    +0.012 C 
ATOM      9  C   UNL     1       4.544   9.413  -0.615  0.00  0.00    +0.019 C 
ATOM     11  C   UNL     1       5.865  11.383   1.051  0.00  0.00    +0.085 C 
ATOM     13  C   UNL     1       4.187  10.899  -0.628  0.00  0.00    +0.081 C 
ATOM     37  H   UNL     1       4.222  12.515   0.617  0.00  0.00    +0.122 HD
ENDROOT
BRANCH   7  10
ATOM     10  C   UNL     1       6.963   9.530  -1.340  0.00  0.00    +0.100 C 
BRANCH  10  19
ATOM      1  O   UNL     1       6.445   7.942  -3.020  0.00  0.00    -0.276 OA
ATOM      4  N   UNL     1       8.474   7.665  -1.924  0.00  0.00    -0.301 N 
ATOM     12  C   UNL     1      10.245   5.676  -0.774  0.00  0.00    -0.004 C 
ATOM     15  C   UNL     1       9.807   6.922   0.012  0.00  0.00    +0.023 C 
ATOM     16  C   UNL     1       9.181   5.307  -1.819  0.00  0.00    +0.023 C 
ATOM     17  C   UNL     1       9.467   8.079  -0.926  0.00  0.00    +0.108 C 
ATOM     18  C   UNL     1       8.856   6.497  -2.719  0.00  0.00    +0.108 C 
ATOM     19  C   UNL     1       7.264   8.310  -2.174  0.00  0.00    +0.216 C 
BRANCH  12  20
ATOM     20  C   UNL     1      10.509   4.504   0.169  0.00  0.00    +0.038 C 
BRANCH  20  22
ATOM     22  C   UNL     1      11.982   4.245   0.332  0.00  0.00    -0.047 A 
ATOM     25  C   UNL     1      12.482   3.817   1.562  0.00  0.00    +0.003 A 
ATOM     26  C   UNL     1      12.846   4.435  -0.745  0.00  0.00    +0.003 A 
ATOM     27  C   UNL     1      13.849   3.579   1.713  0.00  0.00    +0.000 A 
ATOM     28  C   UNL     1      14.212   4.195  -0.594  0.00  0.00    +0.000 A 
ATOM     30  C   UNL     1      14.714   3.767   0.635  0.00  0.00    +0.000 A 
ENDBRANCH  20  22
ENDBRANCH  12  20
ENDBRANCH  10  19
ENDBRANCH   7  10
BRANCH   8  14
ATOM     14  C   UNL     1       7.742   9.785   1.581  0.00  0.00    +0.064 C 
BRANCH  14  21
ATOM      2  O   UNL     1       7.404   8.915   5.058  0.00  0.00    -0.354 OA
ATOM      6  N   UNL     1       7.069   9.671   3.941  0.00  0.00    -0.083 NA
ATOM     21  C   UNL     1       7.837   9.194   2.958  0.00  0.00    +0.085 A 
ATOM     23  C   UNL     1       8.669   8.147   3.389  0.00  0.00    +0.076 A 
ATOM     24  C   UNL     1       8.357   8.010   4.717  0.00  0.00    +0.167 A 
BRANCH  24  29
ATOM     29  C   UNL     1       8.807   7.152   5.774  0.00  0.00    +0.020 A 
ATOM     31  C   UNL     1       8.697   7.565   7.102  0.00  0.00    +0.015 A 
ATOM     32  C   UNL     1       9.355   5.905   5.474  0.00  0.00    +0.015 A 
ATOM     33  C   UNL     1       9.135   6.729   8.130  0.00  0.00    +0.046 A 
ATOM     34  C   UNL     1       9.792   5.069   6.501  0.00  0.00    +0.046 A 
ATOM     35  C   UNL     1       9.683   5.481   7.830  0.00  0.00    +0.120 A 
BRANCH  35   3
ATOM      3  O   UNL     1      10.106   4.665   8.833  0.00  0.00    -0.495 OA
ATOM     36  C   UNL     1       9.155   4.328   9.841  0.00  0.00    +0.277 C 
ENDBRANCH  35   3
ENDBRANCH  24  29
ENDBRANCH  14  21
ENDBRANCH   8  14
TORSDOF 8
ENDMDL
MODEL 2
REMARK VINA RESULT:      -6.9     14.595     18.878
REMARK  Name = 40777440
REMARK  9 active torsions:
REMARK  status: ('A' for Active; 'I' for Inactive)
REMARK    1  A    between atoms: O_3  and  C_35
REMARK    2  A    between atoms: O_3  and  C_36
REMARK    3  A    between atoms: C_7  and  C_10
REMARK    4  A    between atoms: C_8  and  C_14
REMARK    5  A    between atoms: C_10  and  C_19
REMARK    6  A    between atoms: C_12  and  C_20
REMARK    7  A    between atoms: C_14  and  C_21
REMARK    8  A    between atoms: C_20  and  C_22
REMARK    9  A    between atoms: C_24  and  C_29
REMARK                            x       y       z     vdW  Elec       q    Type
REMARK                         _______ _______ _______ _____ _____    ______ ____
ROOT
ATOM      5  N   UNL     1      16.195  12.430  13.912  0.00  0.00    -0.316 NA
ATOM      7  C   UNL     1      13.894  11.301  15.374  0.00  0.00    +0.004 C 
ATOM      8  C   UNL     1      15.114  11.925  16.090  0.00  0.00    +0.012 C 
ATOM      9  C   UNL     1      13.784  11.895  13.960  0.00  0.00    +0.019 C 
ATOM     11  C   UNL     1      16.388  11.829  15.232  0.00  0.00    +0.085 C 
ATOM     13  C   UNL     1      15.096  11.800  13.183  0.00  0.00    +0.081 C 
ATOM     37  H   UNL     1      17.055  12.340  13.371  0.00  0.00    +0.122 HD
ENDROOT
BRANCH   7  10
ATOM     10  C   UNL     1      13.918   9.768  15.321  0.00  0.00    +0.100 C 
BRANCH  10  19
ATOM      1  O   UNL     1      11.672   9.624  16.061  0.00  0.00    -0.276 OA
ATOM      4  N   UNL     1      13.201   8.231  17.118  0.00  0.00    -0.301 N 
ATOM     12  C   UNL     1      13.983   7.169  19.701  0.00  0.00    -0.004 C 
ATOM     15  C   UNL     1      14.998   7.835  18.758  0.00  0.00    +0.023 C 
ATOM     16  C   UNL     1      12.576   7.729  19.447  0.00  0.00    +0.023 C 
ATOM     17  C   UNL     1      14.563   7.715  17.299  0.00  0.00    +0.108 C 
ATOM     18  C   UNL     1      12.192   7.609  17.974  0.00  0.00    +0.108 C 
ATOM     19  C   UNL     1      12.825   9.206  16.195  0.00  0.00    +0.216 C 
BRANCH  12  20
ATOM     20  C   UNL     1      14.390   7.362  21.161  0.00  0.00    +0.038 C 
BRANCH  20  22
ATOM     22  C   UNL     1      15.870   7.593  21.298  0.00  0.00    -0.047 A 
ATOM     25  C   UNL     1      16.755   6.519  21.204  0.00  0.00    +0.003 A 
ATOM     26  C   UNL     1      16.356   8.880  21.520  0.00  0.00    +0.003 A 
ATOM     27  C   UNL     1      18.127   6.733  21.333  0.00  0.00    +0.000 A 
ATOM     28  C   UNL     1      17.729   9.095  21.648  0.00  0.00    +0.000 A 
ATOM     30  C   UNL     1      18.614   8.021  21.555  0.00  0.00    +0.000 A 
ENDBRANCH  20  22
ENDBRANCH  12  20
ENDBRANCH  10  19
ENDBRANCH   7  10
BRANCH   8  14
ATOM     14  C   UNL     1      15.359  11.338  17.481  0.00  0.00    +0.064 C 
BRANCH  14  21
ATOM      2  O   UNL     1      12.883  13.190  19.326  0.00  0.00    -0.354 OA
ATOM      6  N   UNL     1      13.685  12.983  18.210  0.00  0.00    -0.083 NA
ATOM     21  C   UNL     1      14.375  11.871  18.481  0.00  0.00    +0.085 A 
ATOM     23  C   UNL     1      14.052  11.337  19.740  0.00  0.00    +0.076 A 
ATOM     24  C   UNL     1      13.110  12.203  20.230  0.00  0.00    +0.167 A 
BRANCH  24  29
ATOM     29  C   UNL     1      12.348  12.283  21.442  0.00  0.00    +0.020 A 
ATOM     31  C   UNL     1      11.930  13.524  21.923  0.00  0.00    +0.015 A 
ATOM     32  C   UNL     1      12.024  11.119  22.139  0.00  0.00    +0.015 A 
ATOM     33  C   UNL     1      11.188  13.601  23.102  0.00  0.00    +0.046 A 
ATOM     34  C   UNL     1      11.282  11.195  23.318  0.00  0.00    +0.046 A 
ATOM     35  C   UNL     1      10.865  12.437  23.800  0.00  0.00    +0.120 A 
BRANCH  35   3
ATOM      3  O   UNL     1      10.139  12.512  24.949  0.00  0.00    -0.495 OA
ATOM     36  C   UNL     1      10.503  13.528  25.882  0.00  0.00    +0.277 C 
ENDBRANCH  35   3
ENDBRANCH  24  29
ENDBRANCH  14  21
ENDBRANCH   8  14
TORSDOF 8
ENDMDL
MODEL 3
REMARK VINA RESULT:      -6.8     17.116     22.824
REMARK  Name = 40777440
REMARK  9 active torsions:
REMARK  status: ('A' for Active; 'I' for Inactive)
REMARK    1  A    between atoms: O_3  and  C_35
REMARK    2  A    between atoms: O_3  and  C_36
REMARK    3  A    between atoms: C_7  and  C_10
REMARK    4  A    between atoms: C_8  and  C_14
REMARK    5  A    between atoms: C_10  and  C_19
REMARK    6  A    between atoms: C_12  and  C_20
REMARK    7  A    between atoms: C_14  and  C_21
REMARK    8  A    between atoms: C_20  and  C_22
REMARK    9  A    between atoms: C_24  and  C_29
REMARK                            x       y       z     vdW  Elec       q    Type
REMARK                         _______ _______ _______ _____ _____    ______ ____
ROOT
ATOM      5  N   UNL     1      19.731   9.445  23.548  0.00  0.00    -0.316 NA
ATOM      7  C   UNL     1      21.168   8.692  21.083  0.00  0.00    +0.004 C 
ATOM      8  C   UNL     1      19.795   8.092  21.467  0.00  0.00    +0.012 C 
ATOM      9  C   UNL     1      21.325  10.062  21.764  0.00  0.00    +0.019 C 
ATOM     11  C   UNL     1      19.575   8.102  22.989  0.00  0.00    +0.085 C 
ATOM     13  C   UNL     1      21.053  10.001  23.266  0.00  0.00    +0.081 C 
ATOM     37  H   UNL     1      19.587   9.409  24.556  0.00  0.00    +0.122 HD
ENDROOT
BRANCH   7  10
ATOM     10  C   UNL     1      22.359   7.782  21.407  0.00  0.00    +0.100 C 
BRANCH  10  19
ATOM      1  O   UNL     1      23.077   8.404  19.237  0.00  0.00    -0.276 OA
ATOM      4  N   UNL     1      24.627   7.288  20.559  0.00  0.00    -0.301 N 
ATOM     12  C   UNL     1      26.682   5.243  20.510  0.00  0.00    -0.004 C 
ATOM     15  C   UNL     1      25.546   5.224  21.544  0.00  0.00    +0.023 C 
ATOM     16  C   UNL     1      26.226   5.964  19.233  0.00  0.00    +0.023 C 
ATOM     17  C   UNL     1      25.016   6.631  21.813  0.00  0.00    +0.108 C 
ATOM     18  C   UNL     1      25.683   7.356  19.550  0.00  0.00    +0.108 C 
ATOM     19  C   UNL     1      23.381   7.857  20.300  0.00  0.00    +0.216 C 
BRANCH  12  20
ATOM     20  C   UNL     1      27.153   3.824  20.195  0.00  0.00    +0.038 C 
BRANCH  20  22
ATOM     22  C   UNL     1      26.227   2.791  20.776  0.00  0.00    -0.047 A 
ATOM     25  C   UNL     1      26.640   2.016  21.860  0.00  0.00    +0.003 A 
ATOM     26  C   UNL     1      24.958   2.607  20.230  0.00  0.00    +0.003 A 
ATOM     27  C   UNL     1      25.782   1.057  22.398  0.00  0.00    +0.000 A 
ATOM     28  C   UNL     1      24.099   1.648  20.769  0.00  0.00    +0.000 A 
ATOM     30  C   UNL     1      24.511   0.873  21.853  0.00  0.00    +0.000 A 
ENDBRANCH  20  22
ENDBRANCH  12  20
ENDBRANCH  10  19
ENDBRANCH   7  10
BRANCH   8  14
ATOM     14  C   UNL     1      19.575   6.688  20.901  0.00  0.00    +0.064 C 
BRANCH  14  21
ATOM      2  O   UNL     1      16.733   5.780  18.886  0.00  0.00    -0.354 OA
ATOM      6  N   UNL     1      18.033   5.586  19.338  0.00  0.00    -0.083 NA
ATOM     21  C   UNL     1      18.250   6.579  20.205  0.00  0.00    +0.085 A 
ATOM     23  C   UNL     1      17.134   7.422  20.341  0.00  0.00    +0.076 A 
ATOM     24  C   UNL     1      16.207   6.876  19.492  0.00  0.00    +0.167 A 
BRANCH  24  29
ATOM     29  C   UNL     1      14.861   7.204  19.123  0.00  0.00    +0.020 A 
ATOM     31  C   UNL     1      14.610   7.884  17.932  0.00  0.00    +0.015 A 
ATOM     32  C   UNL     1      13.803   6.843  19.958  0.00  0.00    +0.015 A 
ATOM     33  C   UNL     1      13.299   8.203  17.574  0.00  0.00    +0.046 A 
ATOM     34  C   UNL     1      12.493   7.161  19.600  0.00  0.00    +0.046 A 
ATOM     35  C   UNL     1      12.241   7.842  18.409  0.00  0.00    +0.120 A 
BRANCH  35   3
ATOM      3  O   UNL     1      10.963   8.150  18.058  0.00  0.00    -0.495 OA
ATOM     36  C   UNL     1      10.739   8.550  16.706  0.00  0.00    +0.277 C 
ENDBRANCH  35   3
ENDBRANCH  24  29
ENDBRANCH  14  21
ENDBRANCH   8  14
TORSDOF 8
ENDMDL
MODEL 4
REMARK VINA RESULT:      -6.8      4.266      9.060
REMARK  Name = 40777440
REMARK  9 active torsions:
REMARK  status: ('A' for Active; 'I' for Inactive)
REMARK    1  A    between atoms: O_3  and  C_35
REMARK    2  A    between atoms: O_3  and  C_36
REMARK    3  A    between atoms: C_7  and  C_10
REMARK    4  A    between atoms: C_8  and  C_14
REMARK    5  A    between atoms: C_10  and  C_19
REMARK    6  A    between atoms: C_12  and  C_20
REMARK    7  A    between atoms: C_14  and  C_21
REMARK    8  A    between atoms: C_20  and  C_22
REMARK    9  A    between atoms: C_24  and  C_29
REMARK                            x       y       z     vdW  Elec       q    Type
REMARK                         _______ _______ _______ _____ _____    ______ ____
ROOT
ATOM      5  N   UNL     1      16.494  10.492   4.587  0.00  0.00    -0.316 NA
ATOM      7  C   UNL     1      14.921   8.138   5.418  0.00  0.00    +0.004 C 
ATOM      8  C   UNL     1      14.598   8.951   4.143  0.00  0.00    +0.012 C 
ATOM      9  C   UNL     1      16.406   8.325   5.770  0.00  0.00    +0.019 C 
ATOM     11  C   UNL     1      15.070  10.410   4.263  0.00  0.00    +0.085 C 
ATOM     13  C   UNL     1      16.809   9.798   5.833  0.00  0.00    +0.081 C 
ATOM     37  H   UNL     1      16.767  11.471   4.666  0.00  0.00    +0.122 HD
ENDROOT
BRANCH   7  10
ATOM     10  C   UNL     1      14.028   8.479   6.618  0.00  0.00    +0.100 C 
BRANCH  10  19
ATOM      1  O   UNL     1      13.916   6.223   7.330  0.00  0.00    -0.276 OA
ATOM      4  N   UNL     1      11.897   7.359   7.169  0.00  0.00    -0.301 N 
ATOM     12  C   UNL     1       9.138   7.091   6.317  0.00  0.00    -0.004 C 
ATOM     15  C   UNL     1      10.018   8.262   5.854  0.00  0.00    +0.023 C 
ATOM     16  C   UNL     1      10.009   5.868   6.640  0.00  0.00    +0.023 C 
ATOM     17  C   UNL     1      11.117   8.566   6.870  0.00  0.00    +0.108 C 
ATOM     18  C   UNL     1      11.107   6.222   7.641  0.00  0.00    +0.108 C 
ATOM     19  C   UNL     1      13.283   7.250   7.072  0.00  0.00    +0.216 C 
BRANCH  12  20
ATOM     20  C   UNL     1       8.090   6.747   5.259  0.00  0.00    +0.038 C 
BRANCH  20  22
ATOM     22  C   UNL     1       8.227   7.618   4.041  0.00  0.00    -0.047 A 
ATOM     25  C   UNL     1       9.044   7.214   2.984  0.00  0.00    +0.003 A 
ATOM     26  C   UNL     1       7.539   8.828   3.967  0.00  0.00    +0.003 A 
ATOM     27  C   UNL     1       9.172   8.022   1.854  0.00  0.00    +0.000 A 
ATOM     28  C   UNL     1       7.666   9.635   2.836  0.00  0.00    +0.000 A 
ATOM     30  C   UNL     1       8.483   9.232   1.780  0.00  0.00    +0.000 A 
ENDBRANCH  20  22
ENDBRANCH  12  20
ENDBRANCH  10  19
ENDBRANCH   7  10
BRANCH   8  14
ATOM     14  C   UNL     1      13.120   8.894   3.753  0.00  0.00    +0.064 C 
BRANCH  14  21
ATOM      2  O   UNL     1      12.133   5.542   2.886  0.00  0.00    -0.354 OA
ATOM      6  N   UNL     1      12.351   6.562   3.806  0.00  0.00    -0.083 NA
ATOM     21  C   UNL     1      12.780   7.597   3.079  0.00  0.00    +0.085 A 
ATOM     23  C   UNL     1      12.852   7.295   1.708  0.00  0.00    +0.076 A 
ATOM     24  C   UNL     1      12.434   5.991   1.640  0.00  0.00    +0.167 A 
BRANCH  24  29
ATOM     29  C   UNL     1      12.257   5.044   0.579  0.00  0.00    +0.020 A 
ATOM     31  C   UNL     1      11.075   5.038  -0.161  0.00  0.00    +0.015 A 
ATOM     32  C   UNL     1      13.268   4.128   0.286  0.00  0.00    +0.015 A 
ATOM     33  C   UNL     1      10.903   4.116  -1.195  0.00  0.00    +0.046 A 
ATOM     34  C   UNL     1      13.098   3.207  -0.747  0.00  0.00    +0.046 A 
ATOM     35  C   UNL     1      11.915   3.200  -1.487  0.00  0.00    +0.120 A 
BRANCH  35   3
ATOM      3  O   UNL     1      11.749   2.303  -2.497  0.00  0.00    -0.495 OA
ATOM     36  C   UNL     1      10.616   2.484  -3.346  0.00  0.00    +0.277 C 
ENDBRANCH  35   3
ENDBRANCH  24  29
ENDBRANCH  14  21
ENDBRANCH   8  14
TORSDOF 8
ENDMDL
MODEL 5
REMARK VINA RESULT:      -6.6      3.594      7.729
REMARK  Name = 40777440
REMARK  9 active torsions:
REMARK  status: ('A' for Active; 'I' for Inactive)
REMARK    1  A    between atoms: O_3  and  C_35
REMARK    2  A    between atoms: O_3  and  C_36
REMARK    3  A    between atoms: C_7  and  C_10
REMARK    4  A    between atoms: C_8  and  C_14
REMARK    5  A    between atoms: C_10  and  C_19
REMARK    6  A    between atoms: C_12  and  C_20
REMARK    7  A    between atoms: C_14  and  C_21
REMARK    8  A    between atoms: C_20  and  C_22
REMARK    9  A    between atoms: C_24  and  C_29
REMARK                            x       y       z     vdW  Elec       q    Type
REMARK                         _______ _______ _______ _____ _____    ______ ____
ROOT
ATOM      5  N   UNL     1      16.451   4.550   0.213  0.00  0.00    -0.316 NA
ATOM      7  C   UNL     1      13.862   4.874  -1.163  0.00  0.00    +0.004 C 
ATOM      8  C   UNL     1      13.977   4.351   0.287  0.00  0.00    +0.012 C 
ATOM      9  C   UNL     1      15.102   5.723  -1.491  0.00  0.00    +0.019 C 
ATOM     11  C   UNL     1      15.332   3.667   0.540  0.00  0.00    +0.085 C 
ATOM     13  C   UNL     1      16.407   4.993  -1.178  0.00  0.00    +0.081 C 
ATOM     37  H   UNL     1      17.329   4.060   0.385  0.00  0.00    +0.122 HD
ENDROOT
BRANCH   7  10
ATOM     10  C   UNL     1      13.663   3.771  -2.211  0.00  0.00    +0.100 C 
BRANCH  10  19
ATOM      1  O   UNL     1      13.766   4.755  -4.363  0.00  0.00    -0.276 OA
ATOM      4  N   UNL     1      11.644   4.388  -3.493  0.00  0.00    -0.301 N 
ATOM     12  C   UNL     1       9.004   5.559  -3.228  0.00  0.00    -0.004 C 
ATOM     15  C   UNL     1       9.771   5.009  -2.016  0.00  0.00    +0.023 C 
ATOM     16  C   UNL     1       9.987   6.016  -4.316  0.00  0.00    +0.023 C 
ATOM     17  C   UNL     1      10.751   3.913  -2.429  0.00  0.00    +0.108 C 
ATOM     18  C   UNL     1      10.961   4.898  -4.682  0.00  0.00    +0.108 C 
ATOM     19  C   UNL     1      13.037   4.349  -3.455  0.00  0.00    +0.216 C 
BRANCH  12  20
ATOM     20  C   UNL     1       8.083   6.705  -2.813  0.00  0.00    +0.038 C 
BRANCH  20  22
ATOM     22  C   UNL     1       6.689   6.516  -3.346  0.00  0.00    -0.047 A 
ATOM     25  C   UNL     1       5.621   7.198  -2.763  0.00  0.00    +0.003 A 
ATOM     26  C   UNL     1       6.465   5.659  -4.422  0.00  0.00    +0.003 A 
ATOM     27  C   UNL     1       4.328   7.022  -3.257  0.00  0.00    +0.000 A 
ATOM     28  C   UNL     1       5.172   5.483  -4.917  0.00  0.00    +0.000 A 
ATOM     30  C   UNL     1       4.103   6.164  -4.333  0.00  0.00    +0.000 A 
ENDBRANCH  20  22
ENDBRANCH  12  20
ENDBRANCH  10  19
ENDBRANCH   7  10
BRANCH   8  14
ATOM     14  C   UNL     1      12.826   3.427   0.685  0.00  0.00    +0.064 C 
BRANCH  14  21
ATOM      2  O   UNL     1      10.536   4.430   3.276  0.00  0.00    -0.354 OA
ATOM      6  N   UNL     1      11.414   3.523   2.694  0.00  0.00    -0.083 NA
ATOM     21  C   UNL     1      11.846   4.126   1.582  0.00  0.00    +0.085 A 
ATOM     23  C   UNL     1      11.282   5.402   1.412  0.00  0.00    +0.076 A 
ATOM     24  C   UNL     1      10.467   5.545   2.505  0.00  0.00    +0.167 A 
BRANCH  24  29
ATOM     29  C   UNL     1       9.594   6.578   2.982  0.00  0.00    +0.020 A 
ATOM     31  C   UNL     1       9.248   7.640   2.147  0.00  0.00    +0.015 A 
ATOM     32  C   UNL     1       9.091   6.520   4.282  0.00  0.00    +0.015 A 
ATOM     33  C   UNL     1       8.399   8.645   2.612  0.00  0.00    +0.046 A 
ATOM     34  C   UNL     1       8.241   7.523   4.747  0.00  0.00    +0.046 A 
ATOM     35  C   UNL     1       7.896   8.587   3.912  0.00  0.00    +0.120 A 
BRANCH  35   3
ATOM      3  O   UNL     1       7.065   9.565   4.364  0.00  0.00    -0.495 OA
ATOM     36  C   UNL     1       6.071  10.042   3.458  0.00  0.00    +0.277 C 
ENDBRANCH  35   3
ENDBRANCH  24  29
ENDBRANCH  14  21
ENDBRANCH   8  14
TORSDOF 8
ENDMDL
MODEL 6
REMARK VINA RESULT:      -6.6     36.705     39.828
REMARK  Name = 40777440
REMARK  9 active torsions:
REMARK  status: ('A' for Active; 'I' for Inactive)
REMARK    1  A    between atoms: O_3  and  C_35
REMARK    2  A    between atoms: O_3  and  C_36
REMARK    3  A    between atoms: C_7  and  C_10
REMARK    4  A    between atoms: C_8  and  C_14
REMARK    5  A    between atoms: C_10  and  C_19
REMARK    6  A    between atoms: C_12  and  C_20
REMARK    7  A    between atoms: C_14  and  C_21
REMARK    8  A    between atoms: C_20  and  C_22
REMARK    9  A    between atoms: C_24  and  C_29
REMARK                            x       y       z     vdW  Elec       q    Type
REMARK                         _______ _______ _______ _____ _____    ______ ____
ROOT
ATOM      5  N   UNL     1     -13.198  10.866  31.892  0.00  0.00    -0.316 NA
ATOM      7  C   UNL     1     -12.536   8.661  33.736  0.00  0.00    +0.004 C 
ATOM      8  C   UNL     1     -13.843   8.696  32.911  0.00  0.00    +0.012 C 
ATOM      9  C   UNL     1     -11.471   9.513  33.026  0.00  0.00    +0.019 C 
ATOM     11  C   UNL     1     -14.266  10.136  32.575  0.00  0.00    +0.085 C 
ATOM     13  C   UNL     1     -11.976  10.916  32.690  0.00  0.00    +0.081 C 
ATOM     37  H   UNL     1     -13.512  11.816  31.694  0.00  0.00    +0.122 HD
ENDROOT
BRANCH   7  10
ATOM     10  C   UNL     1     -12.706   9.104  35.195  0.00  0.00    +0.100 C 
BRANCH  10  19
ATOM      1  O   UNL     1     -12.811   7.054  36.376  0.00  0.00    -0.276 OA
ATOM      4  N   UNL     1     -10.871   8.303  36.641  0.00  0.00    -0.301 N 
ATOM     12  C   UNL     1      -8.918   9.180  38.598  0.00  0.00    -0.004 C 
ATOM     15  C   UNL     1      -9.617  10.169  37.653  0.00  0.00    +0.023 C 
ATOM     16  C   UNL     1      -9.810   7.953  38.837  0.00  0.00    +0.023 C 
ATOM     17  C   UNL     1     -10.051   9.487  36.356  0.00  0.00    +0.108 C 
ATOM     18  C   UNL     1     -10.238   7.317  37.516  0.00  0.00    +0.108 C 
ATOM     19  C   UNL     1     -12.141   8.058  36.121  0.00  0.00    +0.216 C 
BRANCH  12  20
ATOM     20  C   UNL     1      -8.556   9.855  39.920  0.00  0.00    +0.038 C 
BRANCH  20  22
ATOM     22  C   UNL     1      -7.477   9.102  40.649  0.00  0.00    -0.047 A 
ATOM     25  C   UNL     1      -7.775   8.433  41.836  0.00  0.00    +0.003 A 
ATOM     26  C   UNL     1      -6.180   9.074  40.139  0.00  0.00    +0.003 A 
ATOM     27  C   UNL     1      -6.774   7.736  42.513  0.00  0.00    +0.000 A 
ATOM     28  C   UNL     1      -5.179   8.376  40.816  0.00  0.00    +0.000 A 
ATOM     30  C   UNL     1      -5.476   7.707  42.003  0.00  0.00    +0.000 A 
ENDBRANCH  20  22
ENDBRANCH  12  20
ENDBRANCH  10  19
ENDBRANCH   7  10
BRANCH   8  14
ATOM     14  C   UNL     1     -14.994   7.940  33.577  0.00  0.00    +0.064 C 
BRANCH  14  21
ATOM      2  O   UNL     1     -14.878   4.342  33.621  0.00  0.00    -0.354 OA
ATOM      6  N   UNL     1     -14.928   5.579  34.254  0.00  0.00    -0.083 NA
ATOM     21  C   UNL     1     -14.942   6.474  33.261  0.00  0.00    +0.085 A 
ATOM     23  C   UNL     1     -14.904   5.867  31.994  0.00  0.00    +0.076 A 
ATOM     24  C   UNL     1     -14.865   4.526  32.276  0.00  0.00    +0.167 A 
BRANCH  24  29
ATOM     29  C   UNL     1     -14.814   3.331  31.486  0.00  0.00    +0.020 A 
ATOM     31  C   UNL     1     -15.066   3.390  30.115  0.00  0.00    +0.015 A 
ATOM     32  C   UNL     1     -14.514   2.109  32.088  0.00  0.00    +0.015 A 
ATOM     33  C   UNL     1     -15.016   2.227  29.346  0.00  0.00    +0.046 A 
ATOM     34  C   UNL     1     -14.463   0.946  31.320  0.00  0.00    +0.046 A 
ATOM     35  C   UNL     1     -14.716   1.005  29.949  0.00  0.00    +0.120 A 
BRANCH  35   3
ATOM      3  O   UNL     1     -14.664  -0.129  29.198  0.00  0.00    -0.495 OA
ATOM     36  C   UNL     1     -13.518  -0.963  29.360  0.00  0.00    +0.277 C 
ENDBRANCH  35   3
ENDBRANCH  24  29
ENDBRANCH  14  21
ENDBRANCH   8  14
TORSDOF 8
ENDMDL
MODEL 7
REMARK VINA RESULT:      -6.5     15.546     19.114
REMARK  Name = 40777440
REMARK  9 active torsions:
REMARK  status: ('A' for Active; 'I' for Inactive)
REMARK    1  A    between atoms: O_3  and  C_35
REMARK    2  A    between atoms: O_3  and  C_36
REMARK    3  A    between atoms: C_7  and  C_10
REMARK    4  A    between atoms: C_8  and  C_14
REMARK    5  A    between atoms: C_10  and  C_19
REMARK    6  A    between atoms: C_12  and  C_20
REMARK    7  A    between atoms: C_14  and  C_21
REMARK    8  A    between atoms: C_20  and  C_22
REMARK    9  A    between atoms: C_24  and  C_29
REMARK                            x       y       z     vdW  Elec       q    Type
REMARK                         _______ _______ _______ _____ _____    ______ ____
ROOT
ATOM      5  N   UNL     1      22.114  -6.676   1.836  0.00  0.00    -0.316 NA
ATOM      7  C   UNL     1      19.919  -5.895   0.026  0.00  0.00    +0.004 C 
ATOM      8  C   UNL     1      20.343  -7.366   0.239  0.00  0.00    +0.012 C 
ATOM      9  C   UNL     1      20.327  -5.071   1.259  0.00  0.00    +0.019 C 
ATOM     11  C   UNL     1      21.821  -7.479   0.649  0.00  0.00    +0.085 C 
ATOM     13  C   UNL     1      21.796  -5.264   1.629  0.00  0.00    +0.081 C 
ATOM     37  H   UNL     1      23.102  -6.769   2.071  0.00  0.00    +0.122 HD
ENDROOT
BRANCH   7  10
ATOM     10  C   UNL     1      20.473  -5.264  -1.258  0.00  0.00    +0.100 C 
BRANCH  10  19
ATOM      1  O   UNL     1      19.513  -3.102  -1.377  0.00  0.00    -0.276 OA
ATOM      4  N   UNL     1      18.602  -4.717  -2.775  0.00  0.00    -0.301 N 
ATOM     12  C   UNL     1      16.100  -5.743  -3.824  0.00  0.00    -0.004 C 
ATOM     15  C   UNL     1      17.143  -6.664  -3.174  0.00  0.00    +0.023 C 
ATOM     16  C   UNL     1      16.218  -4.322  -3.254  0.00  0.00    +0.023 C 
ATOM     17  C   UNL     1      18.552  -6.087  -3.302  0.00  0.00    +0.108 C 
ATOM     18  C   UNL     1      17.644  -3.793  -3.382  0.00  0.00    +0.108 C 
ATOM     19  C   UNL     1      19.491  -4.259  -1.804  0.00  0.00    +0.216 C 
BRANCH  12  20
ATOM     20  C   UNL     1      14.689  -6.294  -3.624  0.00  0.00    +0.038 C 
BRANCH  20  22
ATOM     22  C   UNL     1      13.953  -6.421  -4.930  0.00  0.00    -0.047 A 
ATOM     25  C   UNL     1      13.806  -7.672  -5.528  0.00  0.00    +0.003 A 
ATOM     26  C   UNL     1      13.420  -5.287  -5.542  0.00  0.00    +0.003 A 
ATOM     27  C   UNL     1      13.125  -7.789  -6.740  0.00  0.00    +0.000 A 
ATOM     28  C   UNL     1      12.737  -5.405  -6.753  0.00  0.00    +0.000 A 
ATOM     30  C   UNL     1      12.591  -6.656  -7.353  0.00  0.00    +0.000 A 
ENDBRANCH  20  22
ENDBRANCH  12  20
ENDBRANCH  10  19
ENDBRANCH   7  10
BRANCH   8  14
ATOM     14  C   UNL     1      20.052  -8.255  -0.972  0.00  0.00    +0.064 C 
BRANCH  14  21
ATOM      2  O   UNL     1      17.776 -11.044  -0.896  0.00  0.00    -0.354 OA
ATOM      6  N   UNL     1      18.511 -10.073  -1.568  0.00  0.00    -0.083 NA
ATOM     21  C   UNL     1      19.150  -9.398  -0.608  0.00  0.00    +0.085 A 
ATOM     23  C   UNL     1      18.862  -9.893   0.675  0.00  0.00    +0.076 A 
ATOM     24  C   UNL     1      17.994 -10.927   0.439  0.00  0.00    +0.167 A 
BRANCH  24  29
ATOM     29  C   UNL     1      17.299 -11.869   1.267  0.00  0.00    +0.020 A 
ATOM     31  C   UNL     1      15.957 -12.157   1.020  0.00  0.00    +0.015 A 
ATOM     32  C   UNL     1      17.966 -12.495   2.320  0.00  0.00    +0.015 A 
ATOM     33  C   UNL     1      15.281 -13.074   1.826  0.00  0.00    +0.046 A 
ATOM     34  C   UNL     1      17.290 -13.412   3.126  0.00  0.00    +0.046 A 
ATOM     35  C   UNL     1      15.948 -13.701   2.880  0.00  0.00    +0.120 A 
BRANCH  35   3
ATOM      3  O   UNL     1      15.289 -14.597   3.664  0.00  0.00    -0.495 OA
ATOM     36  C   UNL     1      16.074 -15.608   4.294  0.00  0.00    +0.277 C 
ENDBRANCH  35   3
ENDBRANCH  24  29
ENDBRANCH  14  21
ENDBRANCH   8  14
TORSDOF 8
ENDMDL
MODEL 8
REMARK VINA RESULT:      -6.5     24.221     28.133
REMARK  Name = 40777440
REMARK  9 active torsions:
REMARK  status: ('A' for Active; 'I' for Inactive)
REMARK    1  A    between atoms: O_3  and  C_35
REMARK    2  A    between atoms: O_3  and  C_36
REMARK    3  A    between atoms: C_7  and  C_10
REMARK    4  A    between atoms: C_8  and  C_14
REMARK    5  A    between atoms: C_10  and  C_19
REMARK    6  A    between atoms: C_12  and  C_20
REMARK    7  A    between atoms: C_14  and  C_21
REMARK    8  A    between atoms: C_20  and  C_22
REMARK    9  A    between atoms: C_24  and  C_29
REMARK                            x       y       z     vdW  Elec       q    Type
REMARK                         _______ _______ _______ _____ _____    ______ ____
ROOT
ATOM      5  N   UNL     1     -11.266 -10.781  15.295  0.00  0.00    -0.316 NA
ATOM      7  C   UNL     1     -10.133  -9.516  17.708  0.00  0.00    +0.004 C 
ATOM      8  C   UNL     1     -11.108  -8.781  16.759  0.00  0.00    +0.012 C 
ATOM      9  C   UNL     1     -10.351 -11.033  17.575  0.00  0.00    +0.019 C 
ATOM     11  C   UNL     1     -11.034  -9.336  15.326  0.00  0.00    +0.085 C 
ATOM     13  C   UNL     1     -10.303 -11.504  16.123  0.00  0.00    +0.081 C 
ATOM     37  H   UNL     1     -11.201 -11.112  14.333  0.00  0.00    +0.122 HD
ENDROOT
BRANCH   7  10
ATOM     10  C   UNL     1      -8.659  -9.156  17.490  0.00  0.00    +0.100 C 
BRANCH  10  19
ATOM      1  O   UNL     1      -7.928 -10.079  19.545  0.00  0.00    -0.276 OA
ATOM      4  N   UNL     1      -6.836 -10.817  17.633  0.00  0.00    -0.301 N 
ATOM     12  C   UNL     1      -4.228 -11.488  16.555  0.00  0.00    -0.004 C 
ATOM     15  C   UNL     1      -5.178 -10.519  15.833  0.00  0.00    +0.023 C 
ATOM     16  C   UNL     1      -4.500 -11.470  18.067  0.00  0.00    +0.023 C 
ATOM     17  C   UNL     1      -6.637 -10.811  16.178  0.00  0.00    +0.108 C 
ATOM     18  C   UNL     1      -5.973 -11.744  18.364  0.00  0.00    +0.108 C 
ATOM     19  C   UNL     1      -7.780 -10.056  18.321  0.00  0.00    +0.216 C 
BRANCH  12  20
ATOM     20  C   UNL     1      -2.770 -11.139  16.262  0.00  0.00    +0.038 C 
BRANCH  20  22
ATOM     22  C   UNL     1      -2.464 -11.228  14.792  0.00  0.00    -0.047 A 
ATOM     25  C   UNL     1      -1.914 -10.133  14.126  0.00  0.00    +0.003 A 
ATOM     26  C   UNL     1      -2.731 -12.406  14.095  0.00  0.00    +0.003 A 
ATOM     27  C   UNL     1      -1.631 -10.216  12.763  0.00  0.00    +0.000 A 
ATOM     28  C   UNL     1      -2.447 -12.489  12.732  0.00  0.00    +0.000 A 
ATOM     30  C   UNL     1      -1.897 -11.394  12.065  0.00  0.00    +0.000 A 
ENDBRANCH  20  22
ENDBRANCH  12  20
ENDBRANCH  10  19
ENDBRANCH   7  10
BRANCH   8  14
ATOM     14  C   UNL     1     -10.915  -7.264  16.757  0.00  0.00    +0.064 C 
BRANCH  14  21
ATOM      2  O   UNL     1     -13.787  -5.956  15.025  0.00  0.00    -0.354 OA
ATOM      6  N   UNL     1     -13.195  -6.680  16.054  0.00  0.00    -0.083 NA
ATOM     21  C   UNL     1     -11.881  -6.589  15.829  0.00  0.00    +0.085 A 
ATOM     23  C   UNL     1     -11.587  -5.827  14.685  0.00  0.00    +0.076 A 
ATOM     24  C   UNL     1     -12.820  -5.452  14.217  0.00  0.00    +0.167 A 
BRANCH  24  29
ATOM     29  C   UNL     1     -13.282  -4.676  13.104  0.00  0.00    +0.020 A 
ATOM     31  C   UNL     1     -12.559  -4.668  11.911  0.00  0.00    +0.015 A 
ATOM     32  C   UNL     1     -14.454  -3.928  13.215  0.00  0.00    +0.015 A 
ATOM     33  C   UNL     1     -13.009  -3.912  10.828  0.00  0.00    +0.046 A 
ATOM     34  C   UNL     1     -14.905  -3.173  12.132  0.00  0.00    +0.046 A 
ATOM     35  C   UNL     1     -14.182  -3.164  10.939  0.00  0.00    +0.120 A 
BRANCH  35   3
ATOM      3  O   UNL     1     -14.623  -2.430   9.881  0.00  0.00    -0.495 OA
ATOM     36  C   UNL     1     -14.045  -2.714   8.608  0.00  0.00    +0.277 C 
ENDBRANCH  35   3
ENDBRANCH  24  29
ENDBRANCH  14  21
ENDBRANCH   8  14
TORSDOF 8
ENDMDL
MODEL 9
REMARK VINA RESULT:      -6.4     14.799     18.828
REMARK  Name = 40777440
REMARK  9 active torsions:
REMARK  status: ('A' for Active; 'I' for Inactive)
REMARK    1  A    between atoms: O_3  and  C_35
REMARK    2  A    between atoms: O_3  and  C_36
REMARK    3  A    between atoms: C_7  and  C_10
REMARK    4  A    between atoms: C_8  and  C_14
REMARK    5  A    between atoms: C_10  and  C_19
REMARK    6  A    between atoms: C_12  and  C_20
REMARK    7  A    between atoms: C_14  and  C_21
REMARK    8  A    between atoms: C_20  and  C_22
REMARK    9  A    between atoms: C_24  and  C_29
REMARK                            x       y       z     vdW  Elec       q    Type
REMARK                         _______ _______ _______ _____ _____    ______ ____
ROOT
ATOM      5  N   UNL     1      18.232  -1.728  -2.412  0.00  0.00    -0.316 NA
ATOM      7  C   UNL     1      18.224  -4.673  -2.215  0.00  0.00    +0.004 C 
ATOM      8  C   UNL     1      19.269  -3.790  -1.495  0.00  0.00    +0.012 C 
ATOM      9  C   UNL     1      16.954  -3.842  -2.468  0.00  0.00    +0.019 C 
ATOM     11  C   UNL     1      19.488  -2.455  -2.228  0.00  0.00    +0.085 C 
ATOM     13  C   UNL     1      17.255  -2.514  -3.162  0.00  0.00    +0.081 C 
ATOM     37  H   UNL     1      18.416  -0.856  -2.907  0.00  0.00    +0.122 HD
ENDROOT
BRANCH   7  10
ATOM     10  C   UNL     1      18.730  -5.304  -3.517  0.00  0.00    +0.100 C 
BRANCH  10  19
ATOM      1  O   UNL     1      16.919  -6.472  -4.501  0.00  0.00    -0.276 OA
ATOM      4  N   UNL     1      18.445  -7.749  -3.302  0.00  0.00    -0.301 N 
ATOM     12  C   UNL     1      18.672  -9.946  -1.423  0.00  0.00    -0.004 C 
ATOM     15  C   UNL     1      19.364  -8.597  -1.178  0.00  0.00    +0.023 C 
ATOM     16  C   UNL     1      17.423  -9.751  -2.295  0.00  0.00    +0.023 C 
ATOM     17  C   UNL     1      19.663  -7.878  -2.492  0.00  0.00    +0.108 C 
ATOM     18  C   UNL     1      17.763  -9.011  -3.587  0.00  0.00    +0.108 C 
ATOM     19  C   UNL     1      17.946  -6.556  -3.822  0.00  0.00    +0.216 C 
BRANCH  12  20
ATOM     20  C   UNL     1      18.311 -10.620  -0.100  0.00  0.00    +0.038 C 
BRANCH  20  22
ATOM     22  C   UNL     1      17.749 -11.998  -0.316  0.00  0.00    -0.047 A 
ATOM     25  C   UNL     1      18.461 -12.931  -1.071  0.00  0.00    +0.003 A 
ATOM     26  C   UNL     1      16.516 -12.343   0.237  0.00  0.00    +0.003 A 
ATOM     27  C   UNL     1      17.938 -14.209  -1.272  0.00  0.00    +0.000 A 
ATOM     28  C   UNL     1      15.995 -13.622   0.037  0.00  0.00    +0.000 A 
ATOM     30  C   UNL     1      16.706 -14.555  -0.718  0.00  0.00    +0.000 A 
ENDBRANCH  20  22
ENDBRANCH  12  20
ENDBRANCH  10  19
ENDBRANCH   7  10
BRANCH   8  14
ATOM     14  C   UNL     1      20.603  -4.503  -1.269  0.00  0.00    +0.064 C 
BRANCH  14  21
ATOM      2  O   UNL     1      19.949  -5.853   2.004  0.00  0.00    -0.354 OA
ATOM      6  N   UNL     1      19.622  -5.053   0.915  0.00  0.00    -0.083 NA
ATOM     21  C   UNL     1      20.622  -5.227   0.046  0.00  0.00    +0.085 A 
ATOM     23  C   UNL     1      21.598  -6.117   0.525  0.00  0.00    +0.076 A 
ATOM     24  C   UNL     1      21.127  -6.483   1.759  0.00  0.00    +0.167 A 
BRANCH  24  29
ATOM     29  C   UNL     1      21.597  -7.349   2.800  0.00  0.00    +0.020 A 
ATOM     31  C   UNL     1      22.562  -6.899   3.701  0.00  0.00    +0.015 A 
ATOM     32  C   UNL     1      21.088  -8.644   2.912  0.00  0.00    +0.015 A 
ATOM     33  C   UNL     1      23.019  -7.744   4.714  0.00  0.00    +0.046 A 
ATOM     34  C   UNL     1      21.544  -9.488   3.925  0.00  0.00    +0.046 A 
ATOM     35  C   UNL     1      22.510  -9.038   4.825  0.00  0.00    +0.120 A 
BRANCH  35   3
ATOM      3  O   UNL     1      22.952  -9.860   5.815  0.00  0.00    -0.495 OA
ATOM     36  C   UNL     1      22.300 -11.121   5.952  0.00  0.00    +0.277 C 
ENDBRANCH  35   3
ENDBRANCH  24  29
ENDBRANCH  14  21
ENDBRANCH   8  14
TORSDOF 8
ENDMDL
MODEL 10
REMARK VINA RESULT:      -6.3     36.338     38.241
REMARK  Name = 40777440
REMARK  9 active torsions:
REMARK  status: ('A' for Active; 'I' for Inactive)
REMARK    1  A    between atoms: O_3  and  C_35
REMARK    2  A    between atoms: O_3  and  C_36
REMARK    3  A    between atoms: C_7  and  C_10
REMARK    4  A    between atoms: C_8  and  C_14
REMARK    5  A    between atoms: C_10  and  C_19
REMARK    6  A    between atoms: C_12  and  C_20
REMARK    7  A    between atoms: C_14  and  C_21
REMARK    8  A    between atoms: C_20  and  C_22
REMARK    9  A    between atoms: C_24  and  C_29
REMARK                            x       y       z     vdW  Elec       q    Type
REMARK                         _______ _______ _______ _____ _____    ______ ____
ROOT
ATOM      5  N   UNL     1     -12.233  11.378  31.931  0.00  0.00    -0.316 NA
ATOM      7  C   UNL     1     -10.838   9.573  33.803  0.00  0.00    +0.004 C 
ATOM      8  C   UNL     1     -12.322   9.384  33.409  0.00  0.00    +0.012 C 
ATOM      9  C   UNL     1     -10.118  10.351  32.689  0.00  0.00    +0.019 C 
ATOM     11  C   UNL     1     -12.977  10.716  33.003  0.00  0.00    +0.085 C 
ATOM     13  C   UNL     1     -10.847  11.640  32.312  0.00  0.00    +0.081 C 
ATOM     37  H   UNL     1     -12.692  12.258  31.696  0.00  0.00    +0.122 HD
ENDROOT
BRANCH   7  10
ATOM     10  C   UNL     1     -10.636  10.255  35.162  0.00  0.00    +0.100 C 
BRANCH  10  19
ATOM      1  O   UNL     1     -10.746   8.683  36.931  0.00  0.00    -0.276 OA
ATOM      4  N   UNL     1      -8.633   9.133  36.077  0.00  0.00    -0.301 N 
ATOM     12  C   UNL     1      -5.869   9.586  36.827  0.00  0.00    -0.004 C 
ATOM     15  C   UNL     1      -6.625  10.551  35.900  0.00  0.00    +0.023 C 
ATOM     16  C   UNL     1      -6.853   8.864  37.758  0.00  0.00    +0.023 C 
ATOM     17  C   UNL     1      -7.742   9.834  35.145  0.00  0.00    +0.108 C 
ATOM     18  C   UNL     1      -7.964   8.181  36.963  0.00  0.00    +0.108 C 
ATOM     19  C   UNL     1     -10.018   9.285  36.137  0.00  0.00    +0.216 C 
BRANCH  12  20
ATOM     20  C   UNL     1      -4.804  10.329  37.632  0.00  0.00    +0.038 C 
BRANCH  20  22
ATOM     22  C   UNL     1      -3.461   9.660  37.524  0.00  0.00    -0.047 A 
ATOM     25  C   UNL     1      -2.480  10.198  36.690  0.00  0.00    +0.003 A 
ATOM     26  C   UNL     1      -3.197   8.503  38.255  0.00  0.00    +0.003 A 
ATOM     27  C   UNL     1      -1.235   9.577  36.589  0.00  0.00    +0.000 A 
ATOM     28  C   UNL     1      -1.951   7.883  38.155  0.00  0.00    +0.000 A 
ATOM     30  C   UNL     1      -0.970   8.420  37.321  0.00  0.00    +0.000 A 
ENDBRANCH  20  22
ENDBRANCH  12  20
ENDBRANCH  10  19
ENDBRANCH   7  10
BRANCH   8  14
ATOM     14  C   UNL     1     -13.147   8.688  34.493  0.00  0.00    +0.064 C 
BRANCH  14  21
ATOM      2  O   UNL     1     -14.122   5.228  34.310  0.00  0.00    -0.354 OA
ATOM      6  N   UNL     1     -13.832   6.388  35.018  0.00  0.00    -0.083 NA
ATOM     21  C   UNL     1     -13.521   7.293  34.085  0.00  0.00    +0.085 A 
ATOM     23  C   UNL     1     -13.597   6.768  32.784  0.00  0.00    +0.076 A 
ATOM     24  C   UNL     1     -13.980   5.466  32.981  0.00  0.00    +0.167 A 
BRANCH  24  29
ATOM     29  C   UNL     1     -14.248   4.353  32.117  0.00  0.00    +0.020 A 
ATOM     31  C   UNL     1     -15.556   4.075  31.724  0.00  0.00    +0.015 A 
ATOM     32  C   UNL     1     -13.198   3.549  31.671  0.00  0.00    +0.015 A 
ATOM     33  C   UNL     1     -15.816   2.992  30.883  0.00  0.00    +0.046 A 
ATOM     34  C   UNL     1     -13.458   2.467  30.830  0.00  0.00    +0.046 A 
ATOM     35  C   UNL     1     -14.767   2.187  30.437  0.00  0.00    +0.120 A 
BRANCH  35   3
ATOM      3  O   UNL     1     -15.020   1.133  29.615  0.00  0.00    -0.495 OA
ATOM     36  C   UNL     1     -14.328  -0.084  29.888  0.00  0.00    +0.277 C 
ENDBRANCH  35   3
ENDBRANCH  24  29
ENDBRANCH  14  21
ENDBRANCH   8  14
TORSDOF 8
ENDMDL
