MODEL 1
REMARK VINA RESULT:      -6.3      0.000      0.000
REMARK  Name = 75536697
REMARK  8 active torsions:
REMARK  status: ('A' for Active; 'I' for Inactive)
REMARK    1  A    between atoms: S_1  and  N_7
REMARK    2  A    between atoms: S_1  and  C_17
REMARK    3  A    between atoms: O_3  and  C_12
REMARK    4  A    between atoms: N_6  and  C_8
REMARK    5  A    between atoms: N_6  and  C_9
REMARK    6  A    between atoms: N_7  and  C_16
REMARK    7  A    between atoms: C_14  and  C_16
REMARK    8  A    between atoms: C_22  and  C_23
REMARK                            x       y       z     vdW  Elec       q    Type
REMARK                         _______ _______ _______ _____ _____    ______ ____
ROOT
ATOM      2  O   UNL     1      -5.995 -11.405  18.434  0.00  0.00    -0.371 OA
ATOM      9  C   UNL     1      -7.640 -10.004  17.448  0.00  0.00    +0.111 C 
ATOM     12  C   UNL     1      -6.302  -9.737  16.785  0.00  0.00    +0.164 C 
ATOM     14  C   UNL     1      -5.546 -11.014  17.125  0.00  0.00    +0.164 C 
ATOM     15  C   UNL     1      -7.209 -10.693  18.732  0.00  0.00    +0.181 C 
ENDROOT
BRANCH  12   3
ATOM      3  O   UNL     1      -6.411  -9.545  15.389  0.00  0.00    -0.388 OA
ATOM     25  H   UNL     1      -7.260  -9.108  15.206  0.00  0.00    +0.210 HD
ENDBRANCH  12   3
BRANCH   9   6
ATOM      6  N   UNL     1      -8.424  -8.803  17.685  0.00  0.00    -0.306 NA
ATOM     24  H   UNL     1      -7.860  -7.996  17.419  0.00  0.00    +0.123 HD
BRANCH   6   8
ATOM      8  C   UNL     1      -9.678  -8.886  16.950  0.00  0.00    +0.054 C 
ATOM     10  C   UNL     1     -10.767  -9.488  17.864  0.00  0.00    +0.019 C 
ATOM     11  C   UNL     1     -10.427  -7.540  17.066  0.00  0.00    +0.019 C 
ATOM     13  C   UNL     1     -11.700  -8.372  17.338  0.00  0.00    +0.003 C 
ENDBRANCH   6   8
ENDBRANCH   9   6
BRANCH  14  16
ATOM     16  C   UNL     1      -4.038 -10.835  17.133  0.00  0.00    +0.140 C 
BRANCH  16   7
ATOM      7  N   UNL     1      -3.598 -10.272  15.842  0.00  0.00    -0.187 NA
ATOM     26  H   UNL     1      -4.262  -9.632  15.385  0.00  0.00    +0.148 HD
BRANCH   7   1
ATOM      1  S   UNL     1      -2.499 -11.130  14.867  0.00  0.00    +0.058 S 
ATOM      4  O   UNL     1      -2.817 -12.544  14.914  0.00  0.00    -0.153 OA
ATOM      5  O   UNL     1      -1.153 -10.674  15.160  0.00  0.00    -0.153 OA
BRANCH   1  17
ATOM     17  C   UNL     1      -2.905 -10.534  13.253  0.00  0.00    +0.105 A 
ATOM     18  C   UNL     1      -4.240 -10.345  12.895  0.00  0.00    +0.029 A 
ATOM     19  C   UNL     1      -1.891 -10.257  12.337  0.00  0.00    +0.029 A 
ATOM     20  C   UNL     1      -4.560  -9.878  11.621  0.00  0.00    +0.005 A 
ATOM     21  C   UNL     1      -2.212  -9.790  11.062  0.00  0.00    +0.005 A 
ATOM     22  C   UNL     1      -3.547  -9.600  10.704  0.00  0.00    -0.050 A 
ATOM     23  C   UNL     1      -3.889  -9.101   9.342  0.00  0.00    +0.044 C 
ENDBRANCH   1  17
ENDBRANCH   7   1
ENDBRANCH  16   7
ENDBRANCH  14  16
TORSDOF 7
ENDMDL
MODEL 2
REMARK VINA RESULT:      -6.3     26.524     29.045
REMARK  Name = 75536697
REMARK  8 active torsions:
REMARK  status: ('A' for Active; 'I' for Inactive)
REMARK    1  A    between atoms: S_1  and  N_7
REMARK    2  A    between atoms: S_1  and  C_17
REMARK    3  A    between atoms: O_3  and  C_12
REMARK    4  A    between atoms: N_6  and  C_8
REMARK    5  A    between atoms: N_6  and  C_9
REMARK    6  A    between atoms: N_7  and  C_16
REMARK    7  A    between atoms: C_14  and  C_16
REMARK    8  A    between atoms: C_22  and  C_23
REMARK                            x       y       z     vdW  Elec       q    Type
REMARK                         _______ _______ _______ _____ _____    ______ ____
ROOT
ATOM      2  O   UNL     1      16.443   5.841  18.785  0.00  0.00    -0.371 OA
ATOM      9  C   UNL     1      18.376   5.980  20.157  0.00  0.00    +0.111 C 
ATOM     12  C   UNL     1      17.488   7.179  20.431  0.00  0.00    +0.164 C 
ATOM     14  C   UNL     1      16.147   6.674  19.919  0.00  0.00    +0.164 C 
ATOM     15  C   UNL     1      17.842   5.509  18.814  0.00  0.00    +0.181 C 
ENDROOT
BRANCH  12   3
ATOM      3  O   UNL     1      17.435   7.519  21.803  0.00  0.00    -0.388 OA
ATOM     25  H   UNL     1      17.289   6.705  22.313  0.00  0.00    +0.210 HD
ENDBRANCH  12   3
BRANCH   9   6
ATOM      6  N   UNL     1      19.794   6.298  20.123  0.00  0.00    -0.306 NA
ATOM     24  H   UNL     1      19.905   7.285  20.357  0.00  0.00    +0.123 HD
BRANCH   6   8
ATOM      8  C   UNL     1      20.515   5.416  21.028  0.00  0.00    +0.054 C 
ATOM     10  C   UNL     1      21.943   5.185  20.487  0.00  0.00    +0.019 C 
ATOM     11  C   UNL     1      21.156   6.255  22.154  0.00  0.00    +0.019 C 
ATOM     13  C   UNL     1      22.433   5.413  21.935  0.00  0.00    +0.003 C 
ENDBRANCH   6   8
ENDBRANCH   9   6
BRANCH  14  16
ATOM     16  C   UNL     1      15.204   7.790  19.502  0.00  0.00    +0.140 C 
BRANCH  16   7
ATOM      7  N   UNL     1      14.058   7.222  18.767  0.00  0.00    -0.187 NA
ATOM     26  H   UNL     1      14.235   6.333  18.280  0.00  0.00    +0.148 HD
BRANCH   7   1
ATOM      1  S   UNL     1      12.838   8.244  18.166  0.00  0.00    +0.058 S 
ATOM      4  O   UNL     1      11.777   7.441  17.590  0.00  0.00    -0.153 OA
ATOM      5  O   UNL     1      13.452   9.306  17.392  0.00  0.00    -0.153 OA
BRANCH   1  17
ATOM     17  C   UNL     1      12.220   8.980  19.650  0.00  0.00    +0.105 A 
ATOM     18  C   UNL     1      12.651  10.251  20.031  0.00  0.00    +0.029 A 
ATOM     19  C   UNL     1      11.304   8.287  20.443  0.00  0.00    +0.029 A 
ATOM     20  C   UNL     1      12.165  10.830  21.203  0.00  0.00    +0.005 A 
ATOM     21  C   UNL     1      10.819   8.866  21.615  0.00  0.00    +0.005 A 
ATOM     22  C   UNL     1      11.250  10.138  21.995  0.00  0.00    -0.050 A 
ATOM     23  C   UNL     1      10.730  10.757  23.249  0.00  0.00    +0.044 C 
ENDBRANCH   1  17
ENDBRANCH   7   1
ENDBRANCH  16   7
ENDBRANCH  14  16
TORSDOF 7
ENDMDL
MODEL 3
REMARK VINA RESULT:      -5.9     22.837     25.858
REMARK  Name = 75536697
REMARK  8 active torsions:
REMARK  status: ('A' for Active; 'I' for Inactive)
REMARK    1  A    between atoms: S_1  and  N_7
REMARK    2  A    between atoms: S_1  and  C_17
REMARK    3  A    between atoms: O_3  and  C_12
REMARK    4  A    between atoms: N_6  and  C_8
REMARK    5  A    between atoms: N_6  and  C_9
REMARK    6  A    between atoms: N_7  and  C_16
REMARK    7  A    between atoms: C_14  and  C_16
REMARK    8  A    between atoms: C_22  and  C_23
REMARK                            x       y       z     vdW  Elec       q    Type
REMARK                         _______ _______ _______ _____ _____    ______ ____
ROOT
ATOM      2  O   UNL     1       9.488   7.223   3.836  0.00  0.00    -0.371 OA
ATOM      9  C   UNL     1       9.965   6.162   5.907  0.00  0.00    +0.111 C 
ATOM     12  C   UNL     1      11.173   6.037   4.997  0.00  0.00    +0.164 C 
ATOM     14  C   UNL     1      10.914   7.166   4.009  0.00  0.00    +0.164 C 
ATOM     15  C   UNL     1       8.868   6.491   4.908  0.00  0.00    +0.181 C 
ENDROOT
BRANCH  12   3
ATOM      3  O   UNL     1      12.396   6.209   5.685  0.00  0.00    -0.388 OA
ATOM     25  H   UNL     1      13.123   6.048   5.060  0.00  0.00    +0.210 HD
ENDBRANCH  12   3
BRANCH   9   6
ATOM      6  N   UNL     1       9.688   4.962   6.678  0.00  0.00    -0.306 NA
ATOM     24  H   UNL     1      10.183   4.182   6.244  0.00  0.00    +0.123 HD
BRANCH   6   8
ATOM      8  C   UNL     1      10.071   5.174   8.066  0.00  0.00    +0.054 C 
ATOM     10  C   UNL     1       8.982   6.010   8.773  0.00  0.00    +0.019 C 
ATOM     11  C   UNL     1       9.598   3.974   8.914  0.00  0.00    +0.019 C 
ATOM     13  C   UNL     1       9.103   5.011   9.948  0.00  0.00    +0.003 C 
ENDBRANCH   6   8
ENDBRANCH   9   6
BRANCH  14  16
ATOM     16  C   UNL     1      11.585   6.951   2.663  0.00  0.00    +0.140 C 
BRANCH  16   7
ATOM      7  N   UNL     1      10.621   6.353   1.719  0.00  0.00    -0.187 NA
ATOM     26  H   UNL     1       9.719   6.839   1.634  0.00  0.00    +0.148 HD
BRANCH   7   1
ATOM      1  S   UNL     1      10.677   4.686   1.384  0.00  0.00    +0.058 S 
ATOM      4  O   UNL     1       9.801   4.390   0.267  0.00  0.00    -0.153 OA
ATOM      5  O   UNL     1      10.547   3.950   2.628  0.00  0.00    -0.153 OA
BRANCH   1  17
ATOM     17  C   UNL     1      12.345   4.483   0.837  0.00  0.00    +0.105 A 
ATOM     18  C   UNL     1      13.251   3.761   1.614  0.00  0.00    +0.029 A 
ATOM     19  C   UNL     1      12.757   5.048  -0.370  0.00  0.00    +0.029 A 
ATOM     20  C   UNL     1      14.568   3.603   1.183  0.00  0.00    +0.005 A 
ATOM     21  C   UNL     1      14.074   4.890  -0.800  0.00  0.00    +0.005 A 
ATOM     22  C   UNL     1      14.980   4.167  -0.023  0.00  0.00    -0.050 A 
ATOM     23  C   UNL     1      16.389   3.999  -0.484  0.00  0.00    +0.044 C 
ENDBRANCH   1  17
ENDBRANCH   7   1
ENDBRANCH  16   7
ENDBRANCH  14  16
TORSDOF 7
ENDMDL
MODEL 4
REMARK VINA RESULT:      -5.9      3.098      7.765
REMARK  Name = 75536697
REMARK  8 active torsions:
REMARK  status: ('A' for Active; 'I' for Inactive)
REMARK    1  A    between atoms: S_1  and  N_7
REMARK    2  A    between atoms: S_1  and  C_17
REMARK    3  A    between atoms: O_3  and  C_12
REMARK    4  A    between atoms: N_6  and  C_8
REMARK    5  A    between atoms: N_6  and  C_9
REMARK    6  A    between atoms: N_7  and  C_16
REMARK    7  A    between atoms: C_14  and  C_16
REMARK    8  A    between atoms: C_22  and  C_23
REMARK                            x       y       z     vdW  Elec       q    Type
REMARK                         _______ _______ _______ _____ _____    ______ ____
ROOT
ATOM      2  O   UNL     1      -6.540 -11.085  16.666  0.00  0.00    -0.371 OA
ATOM      9  C   UNL     1      -4.636 -12.387  16.100  0.00  0.00    +0.111 C 
ATOM     12  C   UNL     1      -4.800 -12.380  17.608  0.00  0.00    +0.164 C 
ATOM     14  C   UNL     1      -6.268 -11.999  17.742  0.00  0.00    +0.164 C 
ATOM     15  C   UNL     1      -5.480 -11.187  15.700  0.00  0.00    +0.181 C 
ENDROOT
BRANCH  12   3
ATOM      3  O   UNL     1      -4.527 -13.638  18.193  0.00  0.00    -0.388 OA
ATOM     25  H   UNL     1      -3.642 -13.922  17.909  0.00  0.00    +0.210 HD
ENDBRANCH  12   3
BRANCH   9   6
ATOM      6  N   UNL     1      -3.254 -12.279  15.662  0.00  0.00    -0.306 NA
ATOM     24  H   UNL     1      -3.155 -12.792  14.786  0.00  0.00    +0.123 HD
BRANCH   6   8
ATOM      8  C   UNL     1      -2.889 -10.875  15.542  0.00  0.00    +0.054 C 
ATOM     10  C   UNL     1      -1.551 -10.632  16.273  0.00  0.00    +0.019 C 
ATOM     11  C   UNL     1      -2.122 -10.660  14.220  0.00  0.00    +0.019 C 
ATOM     13  C   UNL     1      -1.128  -9.805  15.037  0.00  0.00    +0.003 C 
ENDBRANCH   6   8
ENDBRANCH   9   6
BRANCH  14  16
ATOM     16  C   UNL     1      -6.598 -11.339  19.070  0.00  0.00    +0.140 C 
BRANCH  16   7
ATOM      7  N   UNL     1      -7.668 -10.342  18.876  0.00  0.00    -0.187 NA
ATOM     26  H   UNL     1      -7.418  -9.370  19.100  0.00  0.00    +0.148 HD
BRANCH   7   1
ATOM      1  S   UNL     1      -9.300 -10.807  18.997  0.00  0.00    +0.058 S 
ATOM      4  O   UNL     1      -9.735 -10.680  20.374  0.00  0.00    -0.153 OA
ATOM      5  O   UNL     1      -9.489 -12.057  18.284  0.00  0.00    -0.153 OA
BRANCH   1  17
ATOM     17  C   UNL     1     -10.106  -9.549  18.053  0.00  0.00    +0.105 A 
ATOM     18  C   UNL     1      -9.351  -8.561  17.420  0.00  0.00    +0.029 A 
ATOM     19  C   UNL     1     -11.497  -9.541  17.945  0.00  0.00    +0.029 A 
ATOM     20  C   UNL     1      -9.987  -7.566  16.678  0.00  0.00    +0.005 A 
ATOM     21  C   UNL     1     -12.132  -8.546  17.202  0.00  0.00    +0.005 A 
ATOM     22  C   UNL     1     -11.377  -7.558  16.568  0.00  0.00    -0.050 A 
ATOM     23  C   UNL     1     -12.057  -6.494  15.775  0.00  0.00    +0.044 C 
ENDBRANCH   1  17
ENDBRANCH   7   1
ENDBRANCH  16   7
ENDBRANCH  14  16
TORSDOF 7
ENDMDL
MODEL 5
REMARK VINA RESULT:      -5.9     21.000     23.773
REMARK  Name = 75536697
REMARK  8 active torsions:
REMARK  status: ('A' for Active; 'I' for Inactive)
REMARK    1  A    between atoms: S_1  and  N_7
REMARK    2  A    between atoms: S_1  and  C_17
REMARK    3  A    between atoms: O_3  and  C_12
REMARK    4  A    between atoms: N_6  and  C_8
REMARK    5  A    between atoms: N_6  and  C_9
REMARK    6  A    between atoms: N_7  and  C_16
REMARK    7  A    between atoms: C_14  and  C_16
REMARK    8  A    between atoms: C_22  and  C_23
REMARK                            x       y       z     vdW  Elec       q    Type
REMARK                         _______ _______ _______ _____ _____    ______ ____
ROOT
ATOM      2  O   UNL     1     -16.121   0.477  28.836  0.00  0.00    -0.371 OA
ATOM      9  C   UNL     1     -15.829   2.716  28.099  0.00  0.00    +0.111 C 
ATOM     12  C   UNL     1     -15.110   2.533  29.423  0.00  0.00    +0.164 C 
ATOM     14  C   UNL     1     -14.945   1.020  29.461  0.00  0.00    +0.164 C 
ATOM     15  C   UNL     1     -16.776   1.527  28.104  0.00  0.00    +0.181 C 
ENDROOT
BRANCH  12   3
ATOM      3  O   UNL     1     -13.864   3.201  29.465  0.00  0.00    -0.388 OA
ATOM     25  H   UNL     1     -13.201   2.587  29.823  0.00  0.00    +0.210 HD
ENDBRANCH  12   3
BRANCH   9   6
ATOM      6  N   UNL     1     -16.519   3.990  27.981  0.00  0.00    -0.306 NA
ATOM     24  H   UNL     1     -17.285   3.877  27.316  0.00  0.00    +0.123 HD
BRANCH   6   8
ATOM      8  C   UNL     1     -16.968   4.425  29.295  0.00  0.00    +0.054 C 
ATOM     10  C   UNL     1     -16.832   5.960  29.398  0.00  0.00    +0.019 C 
ATOM     11  C   UNL     1     -18.498   4.636  29.267  0.00  0.00    +0.019 C 
ATOM     13  C   UNL     1     -18.243   5.954  30.032  0.00  0.00    +0.003 C 
ENDBRANCH   6   8
ENDBRANCH   9   6
BRANCH  14  16
ATOM     16  C   UNL     1     -14.810   0.466  30.868  0.00  0.00    +0.140 C 
BRANCH  16   7
ATOM      7  N   UNL     1     -15.332   1.447  31.840  0.00  0.00    -0.187 NA
ATOM     26  H   UNL     1     -16.212   1.910  31.576  0.00  0.00    +0.148 HD
BRANCH   7   1
ATOM      1  S   UNL     1     -14.266   2.263  32.883  0.00  0.00    +0.058 S 
ATOM      4  O   UNL     1     -12.964   2.370  32.254  0.00  0.00    -0.153 OA
ATOM      5  O   UNL     1     -14.388   1.703  34.216  0.00  0.00    -0.153 OA
BRANCH   1  17
ATOM     17  C   UNL     1     -14.979   3.880  32.936  0.00  0.00    +0.105 A 
ATOM     18  C   UNL     1     -16.298   4.047  33.358  0.00  0.00    +0.029 A 
ATOM     19  C   UNL     1     -14.224   4.988  32.551  0.00  0.00    +0.029 A 
ATOM     20  C   UNL     1     -16.862   5.322  33.397  0.00  0.00    +0.005 A 
ATOM     21  C   UNL     1     -14.788   6.263  32.590  0.00  0.00    +0.005 A 
ATOM     22  C   UNL     1     -16.108   6.430  33.013  0.00  0.00    -0.050 A 
ATOM     23  C   UNL     1     -16.710   7.794  33.055  0.00  0.00    +0.044 C 
ENDBRANCH   1  17
ENDBRANCH   7   1
ENDBRANCH  16   7
ENDBRANCH  14  16
TORSDOF 7
ENDMDL
MODEL 6
REMARK VINA RESULT:      -5.9     21.690     24.656
REMARK  Name = 75536697
REMARK  8 active torsions:
REMARK  status: ('A' for Active; 'I' for Inactive)
REMARK    1  A    between atoms: S_1  and  N_7
REMARK    2  A    between atoms: S_1  and  C_17
REMARK    3  A    between atoms: O_3  and  C_12
REMARK    4  A    between atoms: N_6  and  C_8
REMARK    5  A    between atoms: N_6  and  C_9
REMARK    6  A    between atoms: N_7  and  C_16
REMARK    7  A    between atoms: C_14  and  C_16
REMARK    8  A    between atoms: C_22  and  C_23
REMARK                            x       y       z     vdW  Elec       q    Type
REMARK                         _______ _______ _______ _____ _____    ______ ____
ROOT
ATOM      2  O   UNL     1     -15.385   1.165  31.519  0.00  0.00    -0.371 OA
ATOM      9  C   UNL     1     -14.517   2.275  29.607  0.00  0.00    +0.111 C 
ATOM     12  C   UNL     1     -13.922   2.900  30.854  0.00  0.00    +0.164 C 
ATOM     14  C   UNL     1     -14.138   1.789  31.872  0.00  0.00    +0.164 C 
ATOM     15  C   UNL     1     -15.729   1.557  30.179  0.00  0.00    +0.181 C 
ENDROOT
BRANCH  12   3
ATOM      3  O   UNL     1     -12.552   3.220  30.706  0.00  0.00    -0.388 OA
ATOM     25  H   UNL     1     -12.424   3.617  29.828  0.00  0.00    +0.210 HD
ENDBRANCH  12   3
BRANCH   9   6
ATOM      6  N   UNL     1     -14.864   3.241  28.578  0.00  0.00    -0.306 NA
ATOM     24  H   UNL     1     -14.591   2.856  27.673  0.00  0.00    +0.123 HD
BRANCH   6   8
ATOM      8  C   UNL     1     -16.284   3.549  28.658  0.00  0.00    +0.054 C 
ATOM     10  C   UNL     1     -16.463   5.017  29.103  0.00  0.00    +0.019 C 
ATOM     11  C   UNL     1     -16.790   3.987  27.266  0.00  0.00    +0.019 C 
ATOM     13  C   UNL     1     -17.532   5.132  27.992  0.00  0.00    +0.003 C 
ENDBRANCH   6   8
ENDBRANCH   9   6
BRANCH  14  16
ATOM     16  C   UNL     1     -14.204   2.291  33.304  0.00  0.00    +0.140 C 
BRANCH  16   7
ATOM      7  N   UNL     1     -13.844   3.722  33.345  0.00  0.00    -0.187 NA
ATOM     26  H   UNL     1     -12.892   3.952  33.031  0.00  0.00    +0.148 HD
BRANCH   7   1
ATOM      1  S   UNL     1     -14.603   4.760  34.458  0.00  0.00    +0.058 S 
ATOM      4  O   UNL     1     -14.245   4.365  35.806  0.00  0.00    -0.153 OA
ATOM      5  O   UNL     1     -15.998   4.911  34.088  0.00  0.00    -0.153 OA
BRANCH   1  17
ATOM     17  C   UNL     1     -13.810   6.302  34.113  0.00  0.00    +0.105 A 
ATOM     18  C   UNL     1     -13.665   6.732  32.794  0.00  0.00    +0.029 A 
ATOM     19  C   UNL     1     -13.324   7.086  35.161  0.00  0.00    +0.029 A 
ATOM     20  C   UNL     1     -13.036   7.947  32.523  0.00  0.00    +0.005 A 
ATOM     21  C   UNL     1     -12.695   8.300  34.888  0.00  0.00    +0.005 A 
ATOM     22  C   UNL     1     -12.551   8.731  33.569  0.00  0.00    -0.050 A 
ATOM     23  C   UNL     1     -11.878  10.030  33.279  0.00  0.00    +0.044 C 
ENDBRANCH   1  17
ENDBRANCH   7   1
ENDBRANCH  16   7
ENDBRANCH  14  16
TORSDOF 7
ENDMDL
MODEL 7
REMARK VINA RESULT:      -5.8     26.895     29.255
REMARK  Name = 75536697
REMARK  8 active torsions:
REMARK  status: ('A' for Active; 'I' for Inactive)
REMARK    1  A    between atoms: S_1  and  N_7
REMARK    2  A    between atoms: S_1  and  C_17
REMARK    3  A    between atoms: O_3  and  C_12
REMARK    4  A    between atoms: N_6  and  C_8
REMARK    5  A    between atoms: N_6  and  C_9
REMARK    6  A    between atoms: N_7  and  C_16
REMARK    7  A    between atoms: C_14  and  C_16
REMARK    8  A    between atoms: C_22  and  C_23
REMARK                            x       y       z     vdW  Elec       q    Type
REMARK                         _______ _______ _______ _____ _____    ______ ____
ROOT
ATOM      2  O   UNL     1      16.470   5.822  18.937  0.00  0.00    -0.371 OA
ATOM      9  C   UNL     1      18.368   6.128  20.332  0.00  0.00    +0.111 C 
ATOM     12  C   UNL     1      17.446   7.324  20.481  0.00  0.00    +0.164 C 
ATOM     14  C   UNL     1      16.129   6.743  19.987  0.00  0.00    +0.164 C 
ATOM     15  C   UNL     1      17.875   5.529  19.024  0.00  0.00    +0.181 C 
ENDROOT
BRANCH  12   3
ATOM      3  O   UNL     1      17.354   7.780  21.816  0.00  0.00    -0.388 OA
ATOM     25  H   UNL     1      17.215   7.010  22.393  0.00  0.00    +0.210 HD
ENDBRANCH  12   3
BRANCH   9   6
ATOM      6  N   UNL     1      19.778   6.478  20.299  0.00  0.00    -0.306 NA
ATOM     24  H   UNL     1      19.904   7.345  20.821  0.00  0.00    +0.123 HD
BRANCH   6   8
ATOM      8  C   UNL     1      20.567   5.376  20.830  0.00  0.00    +0.054 C 
ATOM     10  C   UNL     1      22.048   5.573  20.438  0.00  0.00    +0.019 C 
ATOM     11  C   UNL     1      20.983   5.700  22.281  0.00  0.00    +0.019 C 
ATOM     13  C   UNL     1      22.392   5.194  21.897  0.00  0.00    +0.003 C 
ENDBRANCH   6   8
ENDBRANCH   9   6
BRANCH  14  16
ATOM     16  C   UNL     1      15.171   7.795  19.455  0.00  0.00    +0.140 C 
BRANCH  16   7
ATOM      7  N   UNL     1      13.949   7.140  18.948  0.00  0.00    -0.187 NA
ATOM     26  H   UNL     1      14.085   6.222  18.506  0.00  0.00    +0.148 HD
BRANCH   7   1
ATOM      1  S   UNL     1      12.615   8.080  18.468  0.00  0.00    +0.058 S 
ATOM      4  O   UNL     1      12.025   8.710  19.634  0.00  0.00    -0.153 OA
ATOM      5  O   UNL     1      11.790   7.303  17.563  0.00  0.00    -0.153 OA
BRANCH   1  17
ATOM     17  C   UNL     1      13.391   9.342  17.502  0.00  0.00    +0.105 A 
ATOM     18  C   UNL     1      13.941   9.029  16.259  0.00  0.00    +0.029 A 
ATOM     19  C   UNL     1      13.456  10.649  17.985  0.00  0.00    +0.029 A 
ATOM     20  C   UNL     1      14.555  10.024  15.499  0.00  0.00    +0.005 A 
ATOM     21  C   UNL     1      14.071  11.643  17.225  0.00  0.00    +0.005 A 
ATOM     22  C   UNL     1      14.621  11.331  15.981  0.00  0.00    -0.050 A 
ATOM     23  C   UNL     1      15.278  12.394  15.168  0.00  0.00    +0.044 C 
ENDBRANCH   1  17
ENDBRANCH   7   1
ENDBRANCH  16   7
ENDBRANCH  14  16
TORSDOF 7
ENDMDL
MODEL 8
REMARK VINA RESULT:      -5.8      1.707      2.447
REMARK  Name = 75536697
REMARK  8 active torsions:
REMARK  status: ('A' for Active; 'I' for Inactive)
REMARK    1  A    between atoms: S_1  and  N_7
REMARK    2  A    between atoms: S_1  and  C_17
REMARK    3  A    between atoms: O_3  and  C_12
REMARK    4  A    between atoms: N_6  and  C_8
REMARK    5  A    between atoms: N_6  and  C_9
REMARK    6  A    between atoms: N_7  and  C_16
REMARK    7  A    between atoms: C_14  and  C_16
REMARK    8  A    between atoms: C_22  and  C_23
REMARK                            x       y       z     vdW  Elec       q    Type
REMARK                         _______ _______ _______ _____ _____    ______ ____
ROOT
ATOM      2  O   UNL     1      -6.256  -9.841  16.964  0.00  0.00    -0.371 OA
ATOM      9  C   UNL     1      -6.860 -10.555  19.148  0.00  0.00    +0.111 C 
ATOM     12  C   UNL     1      -5.727 -11.426  18.638  0.00  0.00    +0.164 C 
ATOM     14  C   UNL     1      -5.142 -10.539  17.548  0.00  0.00    +0.164 C 
ATOM     15  C   UNL     1      -7.381  -9.951  17.854  0.00  0.00    +0.181 C 
ENDROOT
BRANCH  12   3
ATOM      3  O   UNL     1      -4.775 -11.726  19.640  0.00  0.00    -0.388 OA
ATOM     25  H   UNL     1      -4.455 -12.632  19.496  0.00  0.00    +0.210 HD
ENDBRANCH  12   3
BRANCH   9   6
ATOM      6  N   UNL     1      -7.878 -11.291  19.879  0.00  0.00    -0.306 NA
ATOM     24  H   UNL     1      -7.927 -10.913  20.826  0.00  0.00    +0.123 HD
BRANCH   6   8
ATOM      8  C   UNL     1      -9.146 -11.207  19.169  0.00  0.00    +0.054 C 
ATOM     10  C   UNL     1      -9.860 -12.575  19.238  0.00  0.00    +0.019 C 
ATOM     11  C   UNL     1     -10.233 -10.674  20.128  0.00  0.00    +0.019 C 
ATOM     13  C   UNL     1     -11.148 -11.786  19.569  0.00  0.00    +0.003 C 
ENDBRANCH   6   8
ENDBRANCH   9   6
BRANCH  14  16
ATOM     16  C   UNL     1      -4.405 -11.317  16.472  0.00  0.00    +0.140 C 
BRANCH  16   7
ATOM      7  N   UNL     1      -3.581 -10.393  15.669  0.00  0.00    -0.187 NA
ATOM     26  H   UNL     1      -4.038  -9.515  15.390  0.00  0.00    +0.148 HD
BRANCH   7   1
ATOM      1  S   UNL     1      -2.325 -10.998  14.694  0.00  0.00    +0.058 S 
ATOM      4  O   UNL     1      -2.371 -12.447  14.696  0.00  0.00    -0.153 OA
ATOM      5  O   UNL     1      -1.094 -10.306  15.027  0.00  0.00    -0.153 OA
BRANCH   1  17
ATOM     17  C   UNL     1      -2.812 -10.440  13.089  0.00  0.00    +0.105 A 
ATOM     18  C   UNL     1      -1.843 -10.094  12.147  0.00  0.00    +0.029 A 
ATOM     19  C   UNL     1      -4.166 -10.341  12.766  0.00  0.00    +0.029 A 
ATOM     20  C   UNL     1      -2.228  -9.652  10.882  0.00  0.00    +0.005 A 
ATOM     21  C   UNL     1      -4.550  -9.898  11.501  0.00  0.00    +0.005 A 
ATOM     22  C   UNL     1      -3.581  -9.553  10.558  0.00  0.00    -0.050 A 
ATOM     23  C   UNL     1      -3.992  -9.080   9.205  0.00  0.00    +0.044 C 
ENDBRANCH   1  17
ENDBRANCH   7   1
ENDBRANCH  16   7
ENDBRANCH  14  16
TORSDOF 7
ENDMDL
MODEL 9
REMARK VINA RESULT:      -5.7      5.294      8.202
REMARK  Name = 75536697
REMARK  8 active torsions:
REMARK  status: ('A' for Active; 'I' for Inactive)
REMARK    1  A    between atoms: S_1  and  N_7
REMARK    2  A    between atoms: S_1  and  C_17
REMARK    3  A    between atoms: O_3  and  C_12
REMARK    4  A    between atoms: N_6  and  C_8
REMARK    5  A    between atoms: N_6  and  C_9
REMARK    6  A    between atoms: N_7  and  C_16
REMARK    7  A    between atoms: C_14  and  C_16
REMARK    8  A    between atoms: C_22  and  C_23
REMARK                            x       y       z     vdW  Elec       q    Type
REMARK                         _______ _______ _______ _____ _____    ______ ____
ROOT
ATOM      2  O   UNL     1      -9.747 -10.483  15.615  0.00  0.00    -0.371 OA
ATOM      9  C   UNL     1      -8.695  -9.752  17.616  0.00  0.00    +0.111 C 
ATOM     12  C   UNL     1      -9.180  -8.541  16.840  0.00  0.00    +0.164 C 
ATOM     14  C   UNL     1     -10.235  -9.171  15.942  0.00  0.00    +0.164 C 
ATOM     15  C   UNL     1      -8.694 -10.821  16.535  0.00  0.00    +0.181 C 
ENDROOT
BRANCH  12   3
ATOM      3  O   UNL     1      -9.727  -7.540  17.676  0.00  0.00    -0.388 OA
ATOM     25  H   UNL     1      -9.359  -7.652  18.568  0.00  0.00    +0.210 HD
ENDBRANCH  12   3
BRANCH   9   6
ATOM      6  N   UNL     1      -7.392  -9.568  18.232  0.00  0.00    -0.306 NA
ATOM     24  H   UNL     1      -7.531  -9.165  19.159  0.00  0.00    +0.123 HD
BRANCH   6   8
ATOM      8  C   UNL     1      -6.684 -10.839  18.265  0.00  0.00    +0.054 C 
ATOM     10  C   UNL     1      -5.195 -10.603  17.929  0.00  0.00    +0.019 C 
ATOM     11  C   UNL     1      -6.234 -11.133  19.713  0.00  0.00    +0.019 C 
ATOM     13  C   UNL     1      -4.870 -11.542  19.113  0.00  0.00    +0.003 C 
ENDBRANCH   6   8
ENDBRANCH   9   6
BRANCH  14  16
ATOM     16  C   UNL     1     -10.485  -8.385  14.666  0.00  0.00    +0.140 C 
BRANCH  16   7
ATOM      7  N   UNL     1     -11.894  -7.950  14.620  0.00  0.00    -0.187 NA
ATOM     26  H   UNL     1     -12.500  -8.467  13.969  0.00  0.00    +0.148 HD
BRANCH   7   1
ATOM      1  S   UNL     1     -12.304  -6.345  15.005  0.00  0.00    +0.058 S 
ATOM      4  O   UNL     1     -11.222  -5.739  15.757  0.00  0.00    -0.153 OA
ATOM      5  O   UNL     1     -13.659  -6.315  15.523  0.00  0.00    -0.153 OA
BRANCH   1  17
ATOM     17  C   UNL     1     -12.346  -5.589  13.408  0.00  0.00    +0.105 A 
ATOM     18  C   UNL     1     -12.293  -4.199  13.292  0.00  0.00    +0.029 A 
ATOM     19  C   UNL     1     -12.437  -6.381  12.263  0.00  0.00    +0.029 A 
ATOM     20  C   UNL     1     -12.329  -3.603  12.032  0.00  0.00    +0.005 A 
ATOM     21  C   UNL     1     -12.473  -5.784  11.003  0.00  0.00    +0.005 A 
ATOM     22  C   UNL     1     -12.419  -4.394  10.887  0.00  0.00    -0.050 A 
ATOM     23  C   UNL     1     -12.457  -3.757   9.540  0.00  0.00    +0.044 C 
ENDBRANCH   1  17
ENDBRANCH   7   1
ENDBRANCH  16   7
ENDBRANCH  14  16
TORSDOF 7
ENDMDL
MODEL 10
REMARK VINA RESULT:      -5.7     24.877     27.389
REMARK  Name = 75536697
REMARK  8 active torsions:
REMARK  status: ('A' for Active; 'I' for Inactive)
REMARK    1  A    between atoms: S_1  and  N_7
REMARK    2  A    between atoms: S_1  and  C_17
REMARK    3  A    between atoms: O_3  and  C_12
REMARK    4  A    between atoms: N_6  and  C_8
REMARK    5  A    between atoms: N_6  and  C_9
REMARK    6  A    between atoms: N_7  and  C_16
REMARK    7  A    between atoms: C_14  and  C_16
REMARK    8  A    between atoms: C_22  and  C_23
REMARK                            x       y       z     vdW  Elec       q    Type
REMARK                         _______ _______ _______ _____ _____    ______ ____
ROOT
ATOM      2  O   UNL     1      17.723 -13.669   0.096  0.00  0.00    -0.371 OA
ATOM      9  C   UNL     1      15.689 -13.464   1.305  0.00  0.00    +0.111 C 
ATOM     12  C   UNL     1      16.107 -12.094   0.804  0.00  0.00    +0.164 C 
ATOM     14  C   UNL     1      17.051 -12.471  -0.329  0.00  0.00    +0.164 C 
ATOM     15  C   UNL     1      16.995 -14.235   1.199  0.00  0.00    +0.181 C 
ENDROOT
BRANCH  12   3
ATOM      3  O   UNL     1      15.014 -11.322   0.346  0.00  0.00    -0.388 OA
ATOM     25  H   UNL     1      15.254 -10.930  -0.511  0.00  0.00    +0.210 HD
ENDBRANCH  12   3
BRANCH   9   6
ATOM      6  N   UNL     1      15.145 -13.452   2.653  0.00  0.00    -0.306 NA
ATOM     24  H   UNL     1      14.694 -14.352   2.823  0.00  0.00    +0.123 HD
BRANCH   6   8
ATOM      8  C   UNL     1      16.206 -13.160   3.604  0.00  0.00    +0.054 C 
ATOM     10  C   UNL     1      15.764 -12.000   4.522  0.00  0.00    +0.019 C 
ATOM     11  C   UNL     1      16.061 -14.088   4.830  0.00  0.00    +0.019 C 
ATOM     13  C   UNL     1      16.318 -12.837   5.699  0.00  0.00    +0.003 C 
ENDBRANCH   6   8
ENDBRANCH   9   6
BRANCH  14  16
ATOM     16  C   UNL     1      18.074 -11.392  -0.643  0.00  0.00    +0.140 C 
BRANCH  16   7
ATOM      7  N   UNL     1      17.399 -10.232  -1.256  0.00  0.00    -0.187 NA
ATOM     26  H   UNL     1      16.371 -10.254  -1.240  0.00  0.00    +0.148 HD
BRANCH   7   1
ATOM      1  S   UNL     1      18.171  -9.350  -2.488  0.00  0.00    +0.058 S 
ATOM      4  O   UNL     1      18.459 -10.232  -3.603  0.00  0.00    -0.153 OA
ATOM      5  O   UNL     1      19.227  -8.546  -1.903  0.00  0.00    -0.153 OA
BRANCH   1  17
ATOM     17  C   UNL     1      16.893  -8.237  -2.992  0.00  0.00    +0.105 A 
ATOM     18  C   UNL     1      17.166  -6.875  -3.121  0.00  0.00    +0.029 A 
ATOM     19  C   UNL     1      15.611  -8.720  -3.255  0.00  0.00    +0.029 A 
ATOM     20  C   UNL     1      16.157  -5.997  -3.515  0.00  0.00    +0.005 A 
ATOM     21  C   UNL     1      14.603  -7.841  -3.649  0.00  0.00    +0.005 A 
ATOM     22  C   UNL     1      14.876  -6.478  -3.779  0.00  0.00    -0.050 A 
ATOM     23  C   UNL     1      13.797  -5.539  -4.201  0.00  0.00    +0.044 C 
ENDBRANCH   1  17
ENDBRANCH   7   1
ENDBRANCH  16   7
ENDBRANCH  14  16
TORSDOF 7
ENDMDL
