MODEL 1
REMARK VINA RESULT:      -8.3      0.000      0.000
REMARK  Name = 7672351
REMARK  2 active torsions:
REMARK  status: ('A' for Active; 'I' for Inactive)
REMARK    1  A    between atoms: C_15  and  C_18
REMARK    2  A    between atoms: C_16  and  C_19
REMARK                            x       y       z     vdW  Elec       q    Type
REMARK                         _______ _______ _______ _____ _____    ______ ____
ROOT
ATOM      2  O   UNL     1      15.368   6.327  21.624  0.00  0.00    -0.267 OA
ATOM      3  O   UNL     1      12.036   7.275  17.915  0.00  0.00    -0.270 OA
ATOM      4  N   UNL     1      11.692   8.921  19.541  0.00  0.00    -0.297 N 
ATOM      5  N   UNL     1      13.978   8.201  21.599  0.00  0.00    -0.311 N 
ATOM      6  C   UNL     1      11.434   8.030  21.848  0.00  0.00    +0.027 C 
ATOM      7  C   UNL     1      12.487  10.227  21.497  0.00  0.00    +0.054 C 
ATOM      8  C   UNL     1      11.534   9.447  22.402  0.00  0.00    +0.018 C 
ATOM      9  C   UNL     1      10.892   8.054  20.406  0.00  0.00    +0.113 C 
ATOM     10  C   UNL     1      12.814   7.368  21.936  0.00  0.00    +0.130 C 
ATOM     11  C   UNL     1      11.914  10.279  20.064  0.00  0.00    +0.117 C 
ATOM     12  C   UNL     1      13.861   9.587  21.470  0.00  0.00    +0.027 A 
ATOM     13  C   UNL     1      14.955  10.343  21.277  0.00  0.00    +0.022 A 
ATOM     14  C   UNL     1      15.222   7.545  21.508  0.00  0.00    +0.260 A 
ATOM     15  C   UNL     1      12.220   8.409  18.354  0.00  0.00    +0.247 C 
ATOM     16  C   UNL     1      16.421   8.417  21.258  0.00  0.00    +0.053 A 
ATOM     17  C   UNL     1      16.255   9.745  21.169  0.00  0.00    +0.016 A 
ENDROOT
BRANCH  16  19
ATOM      1  S   UNL     1      19.099   8.773  21.536  0.00  0.00    -0.088 S 
ATOM     19  C   UNL     1      17.723   7.847  21.126  0.00  0.00    +0.026 A 
ATOM     20  C   UNL     1      18.073   6.585  20.692  0.00  0.00    +0.024 A 
ATOM     23  C   UNL     1      19.491   6.361  20.692  0.00  0.00    -0.010 A 
ATOM     24  C   UNL     1      20.182   7.493  21.135  0.00  0.00    +0.020 A 
ATOM     28  C   UNL     1      20.243   5.219  20.324  0.00  0.00    +0.009 A 
ATOM     29  C   UNL     1      21.588   7.511  21.221  0.00  0.00    +0.015 A 
ATOM     30  C   UNL     1      21.638   5.234  20.407  0.00  0.00    +0.001 A 
ATOM     31  C   UNL     1      22.302   6.369  20.851  0.00  0.00    +0.001 A 
ENDBRANCH  16  19
BRANCH  15  18
ATOM     18  C   UNL     1      13.096   9.276  17.558  0.00  0.00    +0.037 A 
ATOM     21  C   UNL     1      14.288   9.745  18.104  0.00  0.00    +0.013 A 
ATOM     22  C   UNL     1      12.730   9.628  16.261  0.00  0.00    +0.013 A 
ATOM     25  C   UNL     1      15.121  10.569  17.347  0.00  0.00    +0.001 A 
ATOM     26  C   UNL     1      13.562  10.452  15.505  0.00  0.00    +0.001 A 
ATOM     27  C   UNL     1      14.758  10.923  16.049  0.00  0.00    +0.000 A 
ENDBRANCH  15  18
TORSDOF 2
ENDMDL
MODEL 2
REMARK VINA RESULT:      -8.1      2.770      6.649
REMARK  Name = 7672351
REMARK  2 active torsions:
REMARK  status: ('A' for Active; 'I' for Inactive)
REMARK    1  A    between atoms: C_15  and  C_18
REMARK    2  A    between atoms: C_16  and  C_19
REMARK                            x       y       z     vdW  Elec       q    Type
REMARK                         _______ _______ _______ _____ _____    ______ ____
ROOT
ATOM      2  O   UNL     1      13.546  11.830  18.329  0.00  0.00    -0.267 OA
ATOM      3  O   UNL     1      15.683   9.163  22.081  0.00  0.00    -0.270 OA
ATOM      4  N   UNL     1      13.726   8.022  21.498  0.00  0.00    -0.297 N 
ATOM      5  N   UNL     1      12.723   9.776  19.070  0.00  0.00    -0.311 N 
ATOM      6  C   UNL     1      11.702   9.463  21.399  0.00  0.00    +0.027 C 
ATOM      7  C   UNL     1      11.907   7.537  19.880  0.00  0.00    +0.054 C 
ATOM      8  C   UNL     1      10.927   8.321  20.750  0.00  0.00    +0.018 C 
ATOM      9  C   UNL     1      12.850   8.909  22.263  0.00  0.00    +0.113 C 
ATOM     10  C   UNL     1      12.210  10.402  20.297  0.00  0.00    +0.130 C 
ATOM     11  C   UNL     1      13.031   6.953  20.763  0.00  0.00    +0.117 C 
ATOM     12  C   UNL     1      12.514   8.421  18.807  0.00  0.00    +0.027 A 
ATOM     13  C   UNL     1      12.889   7.894  17.630  0.00  0.00    +0.022 A 
ATOM     14  C   UNL     1      13.350  10.629  18.138  0.00  0.00    +0.260 A 
ATOM     15  C   UNL     1      15.100   8.271  21.468  0.00  0.00    +0.247 C 
ATOM     16  C   UNL     1      13.787  10.000  16.845  0.00  0.00    +0.053 A 
ATOM     17  C   UNL     1      13.537   8.699  16.634  0.00  0.00    +0.016 A 
ENDROOT
BRANCH  16  19
ATOM      1  S   UNL     1      13.551  11.454  14.563  0.00  0.00    -0.088 S 
ATOM     19  C   UNL     1      14.452  10.773  15.845  0.00  0.00    +0.026 A 
ATOM     20  C   UNL     1      15.793  11.078  15.741  0.00  0.00    +0.024 A 
ATOM     23  C   UNL     1      16.101  11.885  14.594  0.00  0.00    -0.010 A 
ATOM     24  C   UNL     1      14.950  12.167  13.851  0.00  0.00    +0.020 A 
ATOM     28  C   UNL     1      17.336  12.404  14.138  0.00  0.00    +0.009 A 
ATOM     29  C   UNL     1      15.003  12.947  12.679  0.00  0.00    +0.015 A 
ATOM     30  C   UNL     1      17.393  13.177  12.974  0.00  0.00    +0.001 A 
ATOM     31  C   UNL     1      16.237  13.444  12.254  0.00  0.00    +0.001 A 
ENDBRANCH  16  19
BRANCH  15  18
ATOM     18  C   UNL     1      15.936   7.420  20.614  0.00  0.00    +0.037 A 
ATOM     21  C   UNL     1      17.192   7.013  21.059  0.00  0.00    +0.013 A 
ATOM     22  C   UNL     1      15.471   7.024  19.363  0.00  0.00    +0.013 A 
ATOM     25  C   UNL     1      17.987   6.204  20.247  0.00  0.00    +0.001 A 
ATOM     26  C   UNL     1      16.267   6.216  18.551  0.00  0.00    +0.001 A 
ATOM     27  C   UNL     1      17.525   5.806  18.994  0.00  0.00    +0.000 A 
ENDBRANCH  15  18
TORSDOF 2
ENDMDL
MODEL 3
REMARK VINA RESULT:      -8.0     27.567     30.367
REMARK  Name = 7672351
REMARK  2 active torsions:
REMARK  status: ('A' for Active; 'I' for Inactive)
REMARK    1  A    between atoms: C_15  and  C_18
REMARK    2  A    between atoms: C_16  and  C_19
REMARK                            x       y       z     vdW  Elec       q    Type
REMARK                         _______ _______ _______ _____ _____    ______ ____
ROOT
ATOM      2  O   UNL     1      -6.450 -13.203  15.410  0.00  0.00    -0.267 OA
ATOM      3  O   UNL     1     -11.340 -12.102  16.207  0.00  0.00    -0.270 OA
ATOM      4  N   UNL     1     -10.285 -11.946  18.289  0.00  0.00    -0.297 N 
ATOM      5  N   UNL     1      -7.284 -12.494  17.471  0.00  0.00    -0.311 N 
ATOM      6  C   UNL     1      -8.890 -13.920  18.869  0.00  0.00    +0.027 C 
ATOM      7  C   UNL     1      -8.231 -11.682  19.658  0.00  0.00    +0.054 C 
ATOM      8  C   UNL     1      -8.310 -13.156  20.055  0.00  0.00    +0.018 C 
ATOM      9  C   UNL     1     -10.293 -13.390  18.523  0.00  0.00    +0.113 C 
ATOM     10  C   UNL     1      -7.920 -13.803  17.687  0.00  0.00    +0.130 C 
ATOM     11  C   UNL     1      -9.648 -11.152  19.352  0.00  0.00    +0.117 C 
ATOM     12  C   UNL     1      -7.346 -11.491  18.441  0.00  0.00    +0.027 A 
ATOM     13  C   UNL     1      -6.663 -10.347  18.276  0.00  0.00    +0.022 A 
ATOM     14  C   UNL     1      -6.536 -12.341  16.286  0.00  0.00    +0.260 A 
ATOM     15  C   UNL     1     -10.807 -11.440  17.096  0.00  0.00    +0.247 C 
ATOM     16  C   UNL     1      -5.811 -11.035  16.118  0.00  0.00    +0.053 A 
ATOM     17  C   UNL     1      -5.884 -10.117  17.093  0.00  0.00    +0.016 A 
ENDROOT
BRANCH  16  19
ATOM      1  S   UNL     1      -3.352 -11.002  14.964  0.00  0.00    -0.088 S 
ATOM     19  C   UNL     1      -5.045 -10.772  14.941  0.00  0.00    +0.026 A 
ATOM     20  C   UNL     1      -5.480 -10.333  13.708  0.00  0.00    +0.024 A 
ATOM     23  C   UNL     1      -4.417 -10.179  12.756  0.00  0.00    -0.010 A 
ATOM     24  C   UNL     1      -3.181 -10.515  13.320  0.00  0.00    +0.020 A 
ATOM     28  C   UNL     1      -4.445  -9.758  11.405  0.00  0.00    +0.009 A 
ATOM     29  C   UNL     1      -1.988 -10.442  12.574  0.00  0.00    +0.015 A 
ATOM     30  C   UNL     1      -3.262  -9.684  10.663  0.00  0.00    +0.001 A 
ATOM     31  C   UNL     1      -2.048 -10.023  11.243  0.00  0.00    +0.001 A 
ENDBRANCH  16  19
BRANCH  15  18
ATOM     18  C   UNL     1     -10.696  -9.998  16.852  0.00  0.00    +0.037 A 
ATOM     21  C   UNL     1     -11.735  -9.150  17.229  0.00  0.00    +0.013 A 
ATOM     22  C   UNL     1      -9.554  -9.484  16.243  0.00  0.00    +0.013 A 
ATOM     25  C   UNL     1     -11.629  -7.778  16.996  0.00  0.00    +0.001 A 
ATOM     26  C   UNL     1      -9.449  -8.113  16.011  0.00  0.00    +0.001 A 
ATOM     27  C   UNL     1     -10.487  -7.260  16.387  0.00  0.00    +0.000 A 
ENDBRANCH  15  18
TORSDOF 2
ENDMDL
MODEL 4
REMARK VINA RESULT:      -8.0     27.014     30.275
REMARK  Name = 7672351
REMARK  2 active torsions:
REMARK  status: ('A' for Active; 'I' for Inactive)
REMARK    1  A    between atoms: C_15  and  C_18
REMARK    2  A    between atoms: C_16  and  C_19
REMARK                            x       y       z     vdW  Elec       q    Type
REMARK                         _______ _______ _______ _____ _____    ______ ____
ROOT
ATOM      2  O   UNL     1      -6.618 -10.083  14.340  0.00  0.00    -0.267 OA
ATOM      3  O   UNL     1      -4.596 -14.363  12.509  0.00  0.00    -0.270 OA
ATOM      4  N   UNL     1      -2.801 -13.045  13.227  0.00  0.00    -0.297 N 
ATOM      5  N   UNL     1      -4.340 -10.576  14.456  0.00  0.00    -0.311 N 
ATOM      6  C   UNL     1      -2.853 -10.710  12.374  0.00  0.00    +0.027 C 
ATOM      7  C   UNL     1      -1.900 -11.180  14.594  0.00  0.00    +0.054 C 
ATOM      8  C   UNL     1      -1.724 -10.341  13.330  0.00  0.00    +0.018 C 
ATOM      9  C   UNL     1      -2.794 -12.209  12.026  0.00  0.00    +0.113 C 
ATOM     10  C   UNL     1      -4.190 -10.318  13.017  0.00  0.00    +0.130 C 
ATOM     11  C   UNL     1      -1.798 -12.679  14.239  0.00  0.00    +0.117 C 
ATOM     12  C   UNL     1      -3.239 -10.905  15.251  0.00  0.00    +0.027 A 
ATOM     13  C   UNL     1      -3.376 -11.022  16.582  0.00  0.00    +0.022 A 
ATOM     14  C   UNL     1      -5.624 -10.381  15.005  0.00  0.00    +0.260 A 
ATOM     15  C   UNL     1      -3.757 -14.056  13.354  0.00  0.00    +0.247 C 
ATOM     16  C   UNL     1      -5.748 -10.553  16.493  0.00  0.00    +0.053 A 
ATOM     17  C   UNL     1      -4.653 -10.844  17.211  0.00  0.00    +0.016 A 
ENDROOT
BRANCH  16  19
ATOM      1  S   UNL     1      -7.394 -11.380  18.489  0.00  0.00    -0.088 S 
ATOM     19  C   UNL     1      -7.011 -10.401  17.142  0.00  0.00    +0.026 A 
ATOM     20  C   UNL     1      -8.040  -9.535  16.836  0.00  0.00    +0.024 A 
ATOM     23  C   UNL     1      -9.168  -9.666  17.714  0.00  0.00    -0.010 A 
ATOM     24  C   UNL     1      -8.946 -10.654  18.679  0.00  0.00    +0.020 A 
ATOM     28  C   UNL     1     -10.402  -8.973  17.737  0.00  0.00    +0.009 A 
ATOM     29  C   UNL     1      -9.916 -10.961  19.654  0.00  0.00    +0.015 A 
ATOM     30  C   UNL     1     -11.366  -9.276  18.703  0.00  0.00    +0.001 A 
ATOM     31  C   UNL     1     -11.123 -10.260  19.650  0.00  0.00    +0.001 A 
ENDBRANCH  16  19
BRANCH  15  18
ATOM     18  C   UNL     1      -3.797 -14.812  14.611  0.00  0.00    +0.037 A 
ATOM     21  C   UNL     1      -2.991 -15.936  14.769  0.00  0.00    +0.013 A 
ATOM     22  C   UNL     1      -4.642 -14.402  15.639  0.00  0.00    +0.013 A 
ATOM     25  C   UNL     1      -3.029 -16.655  15.964  0.00  0.00    +0.001 A 
ATOM     26  C   UNL     1      -4.681 -15.121  16.833  0.00  0.00    +0.001 A 
ATOM     27  C   UNL     1      -3.874 -16.247  16.996  0.00  0.00    +0.000 A 
ENDBRANCH  15  18
TORSDOF 2
ENDMDL
MODEL 5
REMARK VINA RESULT:      -8.0     15.038     19.106
REMARK  Name = 7672351
REMARK  2 active torsions:
REMARK  status: ('A' for Active; 'I' for Inactive)
REMARK    1  A    between atoms: C_15  and  C_18
REMARK    2  A    between atoms: C_16  and  C_19
REMARK                            x       y       z     vdW  Elec       q    Type
REMARK                         _______ _______ _______ _____ _____    ______ ____
ROOT
ATOM      2  O   UNL     1       8.280   7.524   3.266  0.00  0.00    -0.267 OA
ATOM      3  O   UNL     1       9.208   5.016  -1.047  0.00  0.00    -0.270 OA
ATOM      4  N   UNL     1      10.512   6.956  -1.124  0.00  0.00    -0.297 N 
ATOM      5  N   UNL     1       9.881   8.202   1.709  0.00  0.00    -0.311 N 
ATOM      6  C   UNL     1       9.256   9.044  -0.629  0.00  0.00    +0.027 C 
ATOM      7  C   UNL     1      11.624   8.860   0.017  0.00  0.00    +0.054 C 
ATOM      8  C   UNL     1      10.571   9.811  -0.549  0.00  0.00    +0.018 C 
ATOM      9  C   UNL     1       9.405   7.815  -1.545  0.00  0.00    +0.113 C 
ATOM     10  C   UNL     1       8.825   8.656   0.792  0.00  0.00    +0.130 C 
ATOM     11  C   UNL     1      11.794   7.653  -0.930  0.00  0.00    +0.117 C 
ATOM     12  C   UNL     1      11.232   8.369   1.397  0.00  0.00    +0.027 A 
ATOM     13  C   UNL     1      12.178   8.054   2.297  0.00  0.00    +0.022 A 
ATOM     14  C   UNL     1       9.460   7.680   2.950  0.00  0.00    +0.260 A 
ATOM     15  C   UNL     1      10.278   5.600  -0.886  0.00  0.00    +0.247 C 
ATOM     16  C   UNL     1      10.547   7.306   3.920  0.00  0.00    +0.053 A 
ATOM     17  C   UNL     1      11.827   7.513   3.578  0.00  0.00    +0.016 A 
ENDROOT
BRANCH  16  19
ATOM      1  S   UNL     1       9.639   7.760   6.439  0.00  0.00    -0.088 S 
ATOM     19  C   UNL     1      10.226   6.748   5.194  0.00  0.00    +0.026 A 
ATOM     20  C   UNL     1      10.320   5.436   5.610  0.00  0.00    +0.024 A 
ATOM     23  C   UNL     1       9.906   5.243   6.971  0.00  0.00    -0.010 A 
ATOM     24  C   UNL     1       9.504   6.450   7.552  0.00  0.00    +0.020 A 
ATOM     28  C   UNL     1       9.852   4.069   7.760  0.00  0.00    +0.009 A 
ATOM     29  C   UNL     1       9.054   6.511   8.886  0.00  0.00    +0.015 A 
ATOM     30  C   UNL     1       9.407   4.126   9.084  0.00  0.00    +0.001 A 
ATOM     31  C   UNL     1       9.012   5.335   9.639  0.00  0.00    +0.001 A 
ENDBRANCH  16  19
BRANCH  15  18
ATOM     18  C   UNL     1      11.387   4.788  -0.373  0.00  0.00    +0.037 A 
ATOM     21  C   UNL     1      12.278   4.192  -1.262  0.00  0.00    +0.013 A 
ATOM     22  C   UNL     1      11.542   4.616   1.000  0.00  0.00    +0.013 A 
ATOM     25  C   UNL     1      13.333   3.420  -0.774  0.00  0.00    +0.001 A 
ATOM     26  C   UNL     1      12.597   3.844   1.487  0.00  0.00    +0.001 A 
ATOM     27  C   UNL     1      13.492   3.246   0.600  0.00  0.00    +0.000 A 
ENDBRANCH  15  18
TORSDOF 2
ENDMDL
MODEL 6
REMARK VINA RESULT:      -7.9     26.046     28.802
REMARK  Name = 7672351
REMARK  2 active torsions:
REMARK  status: ('A' for Active; 'I' for Inactive)
REMARK    1  A    between atoms: C_15  and  C_18
REMARK    2  A    between atoms: C_16  and  C_19
REMARK                            x       y       z     vdW  Elec       q    Type
REMARK                         _______ _______ _______ _____ _____    ______ ____
ROOT
ATOM      2  O   UNL     1     -12.810  10.207  20.347  0.00  0.00    -0.267 OA
ATOM      3  O   UNL     1     -14.283  12.079  15.865  0.00  0.00    -0.270 OA
ATOM      4  N   UNL     1     -11.978  11.717  15.699  0.00  0.00    -0.297 N 
ATOM      5  N   UNL     1     -11.383  10.409  18.512  0.00  0.00    -0.311 N 
ATOM      6  C   UNL     1     -10.661  12.682  17.575  0.00  0.00    +0.027 C 
ATOM      7  C   UNL     1      -9.901  10.609  16.487  0.00  0.00    +0.054 C 
ATOM      8  C   UNL     1      -9.427  11.931  17.089  0.00  0.00    +0.018 C 
ATOM      9  C   UNL     1     -11.623  12.950  16.402  0.00  0.00    +0.113 C 
ATOM     10  C   UNL     1     -11.325  11.867  18.692  0.00  0.00    +0.130 C 
ATOM     11  C   UNL     1     -10.832  10.890  15.288  0.00  0.00    +0.117 C 
ATOM     12  C   UNL     1     -10.639   9.774  17.515  0.00  0.00    +0.027 A 
ATOM     13  C   UNL     1     -10.614   8.433  17.441  0.00  0.00    +0.022 A 
ATOM     14  C   UNL     1     -12.147   9.685  19.450  0.00  0.00    +0.260 A 
ATOM     15  C   UNL     1     -13.324  11.389  15.523  0.00  0.00    +0.247 C 
ATOM     16  C   UNL     1     -12.124   8.187  19.316  0.00  0.00    +0.053 A 
ATOM     17  C   UNL     1     -11.370   7.629  18.357  0.00  0.00    +0.016 A 
ENDROOT
BRANCH  16  19
ATOM      1  S   UNL     1     -14.587   7.328  20.073  0.00  0.00    -0.088 S 
ATOM     19  C   UNL     1     -12.883   7.365  20.202  0.00  0.00    +0.026 A 
ATOM     20  C   UNL     1     -12.435   6.541  21.214  0.00  0.00    +0.024 A 
ATOM     23  C   UNL     1     -13.495   5.861  21.901  0.00  0.00    -0.010 A 
ATOM     24  C   UNL     1     -14.743   6.206  21.372  0.00  0.00    +0.020 A 
ATOM     28  C   UNL     1     -13.455   4.944  22.979  0.00  0.00    +0.009 A 
ATOM     29  C   UNL     1     -15.937   5.662  21.886  0.00  0.00    +0.015 A 
ATOM     30  C   UNL     1     -14.638   4.403  23.492  0.00  0.00    +0.001 A 
ATOM     31  C   UNL     1     -15.865   4.760  22.950  0.00  0.00    +0.001 A 
ENDBRANCH  16  19
BRANCH  15  18
ATOM     18  C   UNL     1     -13.644  10.100  14.899  0.00  0.00    +0.037 A 
ATOM     21  C   UNL     1     -13.711  10.000  13.512  0.00  0.00    +0.013 A 
ATOM     22  C   UNL     1     -13.880   8.984  15.698  0.00  0.00    +0.013 A 
ATOM     25  C   UNL     1     -14.015   8.773  12.919  0.00  0.00    +0.001 A 
ATOM     26  C   UNL     1     -14.184   7.759  15.105  0.00  0.00    +0.001 A 
ATOM     27  C   UNL     1     -14.252   7.654  13.715  0.00  0.00    +0.000 A 
ENDBRANCH  15  18
TORSDOF 2
ENDMDL
MODEL 7
REMARK VINA RESULT:      -7.9     13.865     17.127
REMARK  Name = 7672351
REMARK  2 active torsions:
REMARK  status: ('A' for Active; 'I' for Inactive)
REMARK    1  A    between atoms: C_15  and  C_18
REMARK    2  A    between atoms: C_16  and  C_19
REMARK                            x       y       z     vdW  Elec       q    Type
REMARK                         _______ _______ _______ _____ _____    ______ ____
ROOT
ATOM      2  O   UNL     1      18.947  -7.098  28.050  0.00  0.00    -0.267 OA
ATOM      3  O   UNL     1      20.346  -2.917  25.537  0.00  0.00    -0.270 OA
ATOM      4  N   UNL     1      20.492  -4.680  24.007  0.00  0.00    -0.297 N 
ATOM      5  N   UNL     1      19.413  -7.073  25.763  0.00  0.00    -0.311 N 
ATOM      6  C   UNL     1      21.765  -6.645  24.843  0.00  0.00    +0.027 C 
ATOM      7  C   UNL     1      19.883  -6.978  23.292  0.00  0.00    +0.054 C 
ATOM      8  C   UNL     1      21.290  -7.457  23.643  0.00  0.00    +0.018 C 
ATOM      9  C   UNL     1      21.789  -5.144  24.500  0.00  0.00    +0.113 C 
ATOM     10  C   UNL     1      20.852  -6.951  26.037  0.00  0.00    +0.130 C 
ATOM     11  C   UNL     1      19.926  -5.482  22.911  0.00  0.00    +0.117 C 
ATOM     12  C   UNL     1      18.932  -7.176  24.456  0.00  0.00    +0.027 A 
ATOM     13  C   UNL     1      17.627  -7.404  24.231  0.00  0.00    +0.022 A 
ATOM     14  C   UNL     1      18.561  -7.176  26.882  0.00  0.00    +0.260 A 
ATOM     15  C   UNL     1      19.874  -3.588  24.621  0.00  0.00    +0.247 C 
ATOM     16  C   UNL     1      17.102  -7.397  26.594  0.00  0.00    +0.053 A 
ATOM     17  C   UNL     1      16.699  -7.515  25.320  0.00  0.00    +0.016 A 
ENDROOT
BRANCH  16  19
ATOM      1  S   UNL     1      15.777  -9.019  28.323  0.00  0.00    -0.088 S 
ATOM     19  C   UNL     1      16.155  -7.491  27.658  0.00  0.00    +0.026 A 
ATOM     20  C   UNL     1      15.447  -6.481  28.275  0.00  0.00    +0.024 A 
ATOM     23  C   UNL     1      14.577  -6.954  29.314  0.00  0.00    -0.010 A 
ATOM     24  C   UNL     1      14.660  -8.344  29.448  0.00  0.00    +0.020 A 
ATOM     28  C   UNL     1      13.699  -6.249  30.172  0.00  0.00    +0.009 A 
ATOM     29  C   UNL     1      13.895  -9.037  30.408  0.00  0.00    +0.015 A 
ATOM     30  C   UNL     1      12.939  -6.935  31.124  0.00  0.00    +0.001 A 
ATOM     31  C   UNL     1      13.038  -8.314  31.239  0.00  0.00    +0.001 A 
ENDBRANCH  16  19
BRANCH  15  18
ATOM     18  C   UNL     1      18.532  -3.209  24.165  0.00  0.00    +0.037 A 
ATOM     21  C   UNL     1      18.387  -2.310  23.112  0.00  0.00    +0.013 A 
ATOM     22  C   UNL     1      17.411  -3.750  24.788  0.00  0.00    +0.013 A 
ATOM     25  C   UNL     1      17.110  -1.949  22.679  0.00  0.00    +0.001 A 
ATOM     26  C   UNL     1      16.135  -3.390  24.355  0.00  0.00    +0.001 A 
ATOM     27  C   UNL     1      15.985  -2.489  23.300  0.00  0.00    +0.000 A 
ENDBRANCH  15  18
TORSDOF 2
ENDMDL
MODEL 8
REMARK VINA RESULT:      -7.6     13.929     15.875
REMARK  Name = 7672351
REMARK  2 active torsions:
REMARK  status: ('A' for Active; 'I' for Inactive)
REMARK    1  A    between atoms: C_15  and  C_18
REMARK    2  A    between atoms: C_16  and  C_19
REMARK                            x       y       z     vdW  Elec       q    Type
REMARK                         _______ _______ _______ _____ _____    ______ ____
ROOT
ATOM      2  O   UNL     1      14.005   6.578   6.958  0.00  0.00    -0.267 OA
ATOM      3  O   UNL     1      10.889   3.879   3.998  0.00  0.00    -0.270 OA
ATOM      4  N   UNL     1       9.719   5.817   4.585  0.00  0.00    -0.297 N 
ATOM      5  N   UNL     1      11.923   7.355   6.244  0.00  0.00    -0.311 N 
ATOM      6  C   UNL     1       9.721   6.303   7.024  0.00  0.00    +0.027 C 
ATOM      7  C   UNL     1       9.689   8.159   5.407  0.00  0.00    +0.054 C 
ATOM      8  C   UNL     1       9.128   7.680   6.745  0.00  0.00    +0.018 C 
ATOM      9  C   UNL     1       9.336   5.316   5.906  0.00  0.00    +0.113 C 
ATOM     10  C   UNL     1      11.241   6.442   7.173  0.00  0.00    +0.130 C 
ATOM     11  C   UNL     1       9.263   7.184   4.288  0.00  0.00    +0.117 C 
ATOM     12  C   UNL     1      11.202   8.250   5.450  0.00  0.00    +0.027 A 
ATOM     13  C   UNL     1      11.847   9.154   4.694  0.00  0.00    +0.022 A 
ATOM     14  C   UNL     1      13.333   7.345   6.267  0.00  0.00    +0.260 A 
ATOM     15  C   UNL     1      10.508   5.021   3.751  0.00  0.00    +0.247 C 
ATOM     16  C   UNL     1      14.022   8.348   5.383  0.00  0.00    +0.053 A 
ATOM     17  C   UNL     1      13.280   9.201   4.662  0.00  0.00    +0.016 A 
ENDROOT
BRANCH  16  19
ATOM      1  S   UNL     1      16.260   7.707   3.985  0.00  0.00    -0.088 S 
ATOM     19  C   UNL     1      15.447   8.403   5.317  0.00  0.00    +0.026 A 
ATOM     20  C   UNL     1      16.333   8.964   6.213  0.00  0.00    +0.024 A 
ATOM     23  C   UNL     1      17.704   8.828   5.813  0.00  0.00    -0.010 A 
ATOM     24  C   UNL     1      17.810   8.149   4.595  0.00  0.00    +0.020 A 
ATOM     28  C   UNL     1      18.895   9.261   6.445  0.00  0.00    +0.009 A 
ATOM     29  C   UNL     1      19.062   7.896   4.000  0.00  0.00    +0.015 A 
ATOM     30  C   UNL     1      20.138   9.011   5.857  0.00  0.00    +0.001 A 
ATOM     31  C   UNL     1      20.219   8.335   4.648  0.00  0.00    +0.001 A 
ENDBRANCH  16  19
BRANCH  15  18
ATOM     18  C   UNL     1      10.953   5.591   2.475  0.00  0.00    +0.037 A 
ATOM     21  C   UNL     1      12.157   6.287   2.409  0.00  0.00    +0.013 A 
ATOM     22  C   UNL     1      10.168   5.434   1.335  0.00  0.00    +0.013 A 
ATOM     25  C   UNL     1      12.580   6.829   1.195  0.00  0.00    +0.001 A 
ATOM     26  C   UNL     1      10.590   5.976   0.122  0.00  0.00    +0.001 A 
ATOM     27  C   UNL     1      11.797   6.674   0.052  0.00  0.00    +0.000 A 
ENDBRANCH  15  18
TORSDOF 2
ENDMDL
MODEL 9
REMARK VINA RESULT:      -7.6     17.809     21.064
REMARK  Name = 7672351
REMARK  2 active torsions:
REMARK  status: ('A' for Active; 'I' for Inactive)
REMARK    1  A    between atoms: C_15  and  C_18
REMARK    2  A    between atoms: C_16  and  C_19
REMARK                            x       y       z     vdW  Elec       q    Type
REMARK                         _______ _______ _______ _____ _____    ______ ____
ROOT
ATOM      2  O   UNL     1      12.232   7.803   2.381  0.00  0.00    -0.267 OA
ATOM      3  O   UNL     1      13.693   6.365  -2.262  0.00  0.00    -0.270 OA
ATOM      4  N   UNL     1      13.854   4.466  -0.907  0.00  0.00    -0.297 N 
ATOM      5  N   UNL     1      12.734   5.593   1.823  0.00  0.00    -0.311 N 
ATOM      6  C   UNL     1      15.104   4.834   1.211  0.00  0.00    +0.027 C 
ATOM      7  C   UNL     1      13.245   3.221   1.152  0.00  0.00    +0.054 C 
ATOM      8  C   UNL     1      14.644   3.470   1.714  0.00  0.00    +0.018 C 
ATOM      9  C   UNL     1      15.141   4.854  -0.329  0.00  0.00    +0.113 C 
ATOM     10  C   UNL     1      14.170   5.909   1.780  0.00  0.00    +0.130 C 
ATOM     11  C   UNL     1      13.302   3.203  -0.390  0.00  0.00    +0.117 C 
ATOM     12  C   UNL     1      12.274   4.292   1.611  0.00  0.00    +0.027 A 
ATOM     13  C   UNL     1      10.972   4.001   1.768  0.00  0.00    +0.022 A 
ATOM     14  C   UNL     1      11.865   6.645   2.178  0.00  0.00    +0.260 A 
ATOM     15  C   UNL     1      13.232   5.310  -1.829  0.00  0.00    +0.247 C 
ATOM     16  C   UNL     1      10.409   6.291   2.312  0.00  0.00    +0.053 A 
ATOM     17  C   UNL     1      10.026   5.020   2.123  0.00  0.00    +0.016 A 
ENDROOT
BRANCH  16  19
ATOM      1  S   UNL     1       9.087   7.608   4.285  0.00  0.00    -0.088 S 
ATOM     19  C   UNL     1       9.444   7.289   2.645  0.00  0.00    +0.026 A 
ATOM     20  C   UNL     1       8.704   8.091   1.801  0.00  0.00    +0.024 A 
ATOM     23  C   UNL     1       7.826   8.986   2.498  0.00  0.00    -0.010 A 
ATOM     24  C   UNL     1       7.935   8.825   3.883  0.00  0.00    +0.020 A 
ATOM     28  C   UNL     1       6.917   9.954   2.006  0.00  0.00    +0.009 A 
ATOM     29  C   UNL     1       7.168   9.598   4.777  0.00  0.00    +0.015 A 
ATOM     30  C   UNL     1       6.154  10.722   2.890  0.00  0.00    +0.001 A 
ATOM     31  C   UNL     1       6.280  10.544   4.261  0.00  0.00    +0.001 A 
ENDBRANCH  16  19
BRANCH  15  18
ATOM     18  C   UNL     1      11.900   4.937  -2.317  0.00  0.00    +0.037 A 
ATOM     21  C   UNL     1      11.776   4.091  -3.416  0.00  0.00    +0.013 A 
ATOM     22  C   UNL     1      10.766   5.433  -1.679  0.00  0.00    +0.013 A 
ATOM     25  C   UNL     1      10.509   3.736  -3.879  0.00  0.00    +0.001 A 
ATOM     26  C   UNL     1       9.499   5.078  -2.143  0.00  0.00    +0.001 A 
ATOM     27  C   UNL     1       9.371   4.230  -3.243  0.00  0.00    +0.000 A 
ENDBRANCH  15  18
TORSDOF 2
ENDMDL
MODEL 10
REMARK VINA RESULT:      -7.5     28.217     30.209
REMARK  Name = 7672351
REMARK  2 active torsions:
REMARK  status: ('A' for Active; 'I' for Inactive)
REMARK    1  A    between atoms: C_15  and  C_18
REMARK    2  A    between atoms: C_16  and  C_19
REMARK                            x       y       z     vdW  Elec       q    Type
REMARK                         _______ _______ _______ _____ _____    ______ ____
ROOT
ATOM      2  O   UNL     1      -7.097  -9.615  13.441  0.00  0.00    -0.267 OA
ATOM      3  O   UNL     1      -7.359 -12.620   9.359  0.00  0.00    -0.270 OA
ATOM      4  N   UNL     1      -5.493 -11.246   9.043  0.00  0.00    -0.297 N 
ATOM      5  N   UNL     1      -5.475  -9.642  11.764  0.00  0.00    -0.311 N 
ATOM      6  C   UNL     1      -5.946  -8.825   9.381  0.00  0.00    +0.027 C 
ATOM      7  C   UNL     1      -3.734  -9.746   9.948  0.00  0.00    +0.054 C 
ATOM      8  C   UNL     1      -4.448  -8.543   9.333  0.00  0.00    +0.018 C 
ATOM      9  C   UNL     1      -6.278 -10.100   8.584  0.00  0.00    +0.113 C 
ATOM     10  C   UNL     1      -6.380  -8.931  10.848  0.00  0.00    +0.130 C 
ATOM     11  C   UNL     1      -4.042 -11.010   9.117  0.00  0.00    +0.117 C 
ATOM     12  C   UNL     1      -4.170  -9.965  11.383  0.00  0.00    +0.027 A 
ATOM     13  C   UNL     1      -3.322 -10.509  12.272  0.00  0.00    +0.022 A 
ATOM     14  C   UNL     1      -5.957  -9.891  13.065  0.00  0.00    +0.260 A 
ATOM     15  C   UNL     1      -6.147 -12.421   9.421  0.00  0.00    +0.247 C 
ATOM     16  C   UNL     1      -4.992 -10.532  14.023  0.00  0.00    +0.053 A 
ATOM     17  C   UNL     1      -3.743 -10.797  13.613  0.00  0.00    +0.016 A 
ENDROOT
BRANCH  16  19
ATOM      1  S   UNL     1      -6.403 -12.195  15.642  0.00  0.00    -0.088 S 
ATOM     19  C   UNL     1      -5.391 -10.848  15.357  0.00  0.00    +0.026 A 
ATOM     20  C   UNL     1      -5.071 -10.198  16.531  0.00  0.00    +0.024 A 
ATOM     23  C   UNL     1      -5.658 -10.805  17.691  0.00  0.00    -0.010 A 
ATOM     24  C   UNL     1      -6.424 -11.922  17.344  0.00  0.00    +0.020 A 
ATOM     28  C   UNL     1      -5.574 -10.449  19.059  0.00  0.00    +0.009 A 
ATOM     29  C   UNL     1      -7.099 -12.683  18.319  0.00  0.00    +0.015 A 
ATOM     30  C   UNL     1      -6.244 -11.202  20.028  0.00  0.00    +0.001 A 
ATOM     31  C   UNL     1      -6.998 -12.307  19.660  0.00  0.00    +0.001 A 
ENDBRANCH  16  19
BRANCH  15  18
ATOM     18  C   UNL     1      -5.338 -13.516   9.966  0.00  0.00    +0.037 A 
ATOM     21  C   UNL     1      -4.784 -14.462   9.108  0.00  0.00    +0.013 A 
ATOM     22  C   UNL     1      -5.130 -13.605  11.340  0.00  0.00    +0.013 A 
ATOM     25  C   UNL     1      -4.015 -15.504   9.627  0.00  0.00    +0.001 A 
ATOM     26  C   UNL     1      -4.361 -14.647  11.859  0.00  0.00    +0.001 A 
ATOM     27  C   UNL     1      -3.804 -15.596  11.002  0.00  0.00    +0.000 A 
ENDBRANCH  15  18
TORSDOF 2
ENDMDL
