MODEL 1
REMARK VINA RESULT:      -7.7      0.000      0.000
REMARK  Name = 56774794
REMARK  9 active torsions:
REMARK  status: ('A' for Active; 'I' for Inactive)
REMARK    1  A    between atoms: O_2  and  C_10
REMARK    2  A    between atoms: O_5  and  C_27
REMARK    3  A    between atoms: O_5  and  C_28
REMARK    4  A    between atoms: N_6  and  C_12
REMARK    5  A    between atoms: N_7  and  C_21
REMARK    6  A    between atoms: C_9  and  C_10
REMARK    7  A    between atoms: C_10  and  C_14
REMARK    8  A    between atoms: C_12  and  C_16
REMARK    9  A    between atoms: C_26  and  C_27
REMARK                            x       y       z     vdW  Elec       q    Type
REMARK                         _______ _______ _______ _____ _____    ______ ____
ROOT
ATOM     10  C   UNL     1      14.207   6.724  19.943  0.00  0.00    +0.167 C 
ENDROOT
BRANCH  10   9
ATOM      1  O   UNL     1      14.347   8.341  17.499  0.00  0.00    -0.369 OA
ATOM      3  O   UNL     1      10.755   8.358  17.875  0.00  0.00    -0.273 OA
ATOM      6  N   UNL     1      12.403   8.352  19.519  0.00  0.00    -0.287 N 
ATOM      9  C   UNL     1      13.830   8.204  19.828  0.00  0.00    +0.135 C 
ATOM     11  C   UNL     1      14.669   8.903  18.765  0.00  0.00    +0.185 C 
ATOM     13  C   UNL     1      11.942   8.408  18.205  0.00  0.00    +0.242 C 
ATOM     15  C   UNL     1      13.013   8.628  17.143  0.00  0.00    +0.255 C 
BRANCH   6  12
ATOM     12  C   UNL     1      11.461   8.254  20.625  0.00  0.00    +0.145 C 
BRANCH  12  16
ATOM      8  N   UNL     1      10.943  10.589  23.555  0.00  0.00    -0.263 NA
ATOM     16  C   UNL     1      11.424   9.512  21.445  0.00  0.00    -0.012 A 
ATOM     22  C   UNL     1      11.814  10.731  20.903  0.00  0.00    +0.008 A 
ATOM     23  C   UNL     1      11.001   9.494  22.764  0.00  0.00    +0.115 A 
ATOM     24  C   UNL     1      11.770  11.880  21.685  0.00  0.00    +0.020 A 
ATOM     25  C   UNL     1      11.330  11.756  22.994  0.00  0.00    +0.111 A 
ENDBRANCH  12  16
ENDBRANCH   6  12
ENDBRANCH  10   9
BRANCH  10  14
ATOM     14  C   UNL     1      15.699   6.532  20.037  0.00  0.00    -0.017 A 
ATOM     17  C   UNL     1      16.377   6.888  21.203  0.00  0.00    +0.008 A 
ATOM     18  C   UNL     1      16.403   5.997  18.957  0.00  0.00    +0.008 A 
ATOM     19  C   UNL     1      17.758   6.709  21.289  0.00  0.00    +0.023 A 
ATOM     20  C   UNL     1      17.783   5.818  19.044  0.00  0.00    +0.023 A 
ATOM     21  C   UNL     1      18.461   6.174  20.211  0.00  0.00    +0.033 A 
BRANCH  21   7
ATOM      4  O   UNL     1      20.645   8.131  20.887  0.00  0.00    -0.273 OA
ATOM      7  N   UNL     1      19.842   5.995  20.297  0.00  0.00    -0.284 N 
ATOM     26  C   UNL     1      20.819   6.945  20.621  0.00  0.00    +0.243 C 
ATOM     30  H   UNL     1      20.170   5.052  20.100  0.00  0.00    +0.155 HD
BRANCH  26  27
ATOM     27  C   UNL     1      22.214   6.357  20.609  0.00  0.00    +0.255 C 
BRANCH  27   5
ATOM      5  O   UNL     1      22.144   5.029  20.134  0.00  0.00    -0.374 OA
ATOM     28  C   UNL     1      22.757   4.111  21.035  0.00  0.00    +0.194 C 
ENDBRANCH  27   5
ENDBRANCH  26  27
ENDBRANCH  21   7
ENDBRANCH  10  14
BRANCH  10   2
ATOM      2  O   UNL     1      13.583   6.167  21.095  0.00  0.00    -0.385 OA
ATOM     29  H   UNL     1      12.818   6.715  21.341  0.00  0.00    +0.210 HD
ENDBRANCH  10   2
TORSDOF 8
ENDMDL
MODEL 2
REMARK VINA RESULT:      -6.5     26.293     29.335
REMARK  Name = 56774794
REMARK  9 active torsions:
REMARK  status: ('A' for Active; 'I' for Inactive)
REMARK    1  A    between atoms: O_2  and  C_10
REMARK    2  A    between atoms: O_5  and  C_27
REMARK    3  A    between atoms: O_5  and  C_28
REMARK    4  A    between atoms: N_6  and  C_12
REMARK    5  A    between atoms: N_7  and  C_21
REMARK    6  A    between atoms: C_9  and  C_10
REMARK    7  A    between atoms: C_10  and  C_14
REMARK    8  A    between atoms: C_12  and  C_16
REMARK    9  A    between atoms: C_26  and  C_27
REMARK                            x       y       z     vdW  Elec       q    Type
REMARK                         _______ _______ _______ _____ _____    ______ ____
ROOT
ATOM     10  C   UNL     1     -11.113   9.684  19.705  0.00  0.00    +0.167 C 
ENDROOT
BRANCH  10   9
ATOM      1  O   UNL     1     -10.145  11.818  17.939  0.00  0.00    -0.369 OA
ATOM      3  O   UNL     1     -10.354   9.204  15.456  0.00  0.00    -0.273 OA
ATOM      6  N   UNL     1     -11.707   9.575  17.313  0.00  0.00    -0.287 N 
ATOM      9  C   UNL     1     -11.904  10.324  18.560  0.00  0.00    +0.135 C 
ATOM     11  C   UNL     1     -11.502  11.781  18.363  0.00  0.00    +0.185 C 
ATOM     13  C   UNL     1     -10.680   9.892  16.425  0.00  0.00    +0.242 C 
ATOM     15  C   UNL     1      -9.998  11.233  16.664  0.00  0.00    +0.255 C 
BRANCH   6  12
ATOM     12  C   UNL     1     -12.503   8.371  17.118  0.00  0.00    +0.145 C 
BRANCH  12  16
ATOM      8  N   UNL     1     -15.912   9.838  16.392  0.00  0.00    -0.263 NA
ATOM     16  C   UNL     1     -13.976   8.650  17.217  0.00  0.00    -0.012 A 
ATOM     22  C   UNL     1     -14.760   8.020  18.176  0.00  0.00    +0.008 A 
ATOM     23  C   UNL     1     -14.593   9.542  16.356  0.00  0.00    +0.115 A 
ATOM     24  C   UNL     1     -16.121   8.299  18.245  0.00  0.00    +0.020 A 
ATOM     25  C   UNL     1     -16.644   9.207  17.338  0.00  0.00    +0.111 A 
ENDBRANCH  12  16
ENDBRANCH   6  12
ENDBRANCH  10   9
BRANCH  10  14
ATOM     14  C   UNL     1     -11.945   8.691  20.475  0.00  0.00    -0.017 A 
ATOM     17  C   UNL     1     -11.585   7.344  20.494  0.00  0.00    +0.008 A 
ATOM     18  C   UNL     1     -13.076   9.120  21.170  0.00  0.00    +0.008 A 
ATOM     19  C   UNL     1     -12.355   6.425  21.207  0.00  0.00    +0.023 A 
ATOM     20  C   UNL     1     -13.846   8.202  21.884  0.00  0.00    +0.023 A 
ATOM     21  C   UNL     1     -13.485   6.854  21.902  0.00  0.00    +0.033 A 
BRANCH  21   7
ATOM      4  O   UNL     1     -15.710   5.044  20.990  0.00  0.00    -0.273 OA
ATOM      7  N   UNL     1     -14.256   5.936  22.616  0.00  0.00    -0.284 N 
ATOM     26  C   UNL     1     -15.283   5.112  22.139  0.00  0.00    +0.243 C 
ATOM     30  H   UNL     1     -14.035   5.862  23.607  0.00  0.00    +0.155 HD
BRANCH  26  27
ATOM     27  C   UNL     1     -15.879   4.250  23.231  0.00  0.00    +0.255 C 
BRANCH  27   5
ATOM      5  O   UNL     1     -16.159   2.971  22.699  0.00  0.00    -0.374 OA
ATOM     28  C   UNL     1     -17.385   2.446  23.200  0.00  0.00    +0.194 C 
ENDBRANCH  27   5
ENDBRANCH  26  27
ENDBRANCH  21   7
ENDBRANCH  10  14
BRANCH  10   2
ATOM      2  O   UNL     1      -9.964   9.031  19.175  0.00  0.00    -0.385 OA
ATOM     29  H   UNL     1     -10.239   8.218  18.719  0.00  0.00    +0.210 HD
ENDBRANCH  10   2
TORSDOF 8
ENDMDL
MODEL 3
REMARK VINA RESULT:      -6.4      2.664      9.981
REMARK  Name = 56774794
REMARK  9 active torsions:
REMARK  status: ('A' for Active; 'I' for Inactive)
REMARK    1  A    between atoms: O_2  and  C_10
REMARK    2  A    between atoms: O_5  and  C_27
REMARK    3  A    between atoms: O_5  and  C_28
REMARK    4  A    between atoms: N_6  and  C_12
REMARK    5  A    between atoms: N_7  and  C_21
REMARK    6  A    between atoms: C_9  and  C_10
REMARK    7  A    between atoms: C_10  and  C_14
REMARK    8  A    between atoms: C_12  and  C_16
REMARK    9  A    between atoms: C_26  and  C_27
REMARK                            x       y       z     vdW  Elec       q    Type
REMARK                         _______ _______ _______ _____ _____    ______ ____
ROOT
ATOM     10  C   UNL     1      19.772   7.271  22.116  0.00  0.00    +0.167 C 
ENDROOT
BRANCH  10   9
ATOM      1  O   UNL     1      22.097   9.034  21.819  0.00  0.00    -0.369 OA
ATOM      3  O   UNL     1      23.741   6.383  23.638  0.00  0.00    -0.273 OA
ATOM      6  N   UNL     1      22.015   6.244  22.083  0.00  0.00    -0.287 N 
ATOM      9  C   UNL     1      21.020   6.969  21.283  0.00  0.00    +0.135 C 
ATOM     11  C   UNL     1      21.632   8.250  20.727  0.00  0.00    +0.185 C 
ATOM     13  C   UNL     1      22.992   6.915  22.817  0.00  0.00    +0.242 C 
ATOM     15  C   UNL     1      23.162   8.392  22.484  0.00  0.00    +0.255 C 
BRANCH   6  12
ATOM     12  C   UNL     1      21.837   4.807  22.237  0.00  0.00    +0.145 C 
BRANCH  12  16
ATOM      8  N   UNL     1      24.492   3.978  19.674  0.00  0.00    -0.263 NA
ATOM     16  C   UNL     1      22.851   4.028  21.449  0.00  0.00    -0.012 A 
ATOM     22  C   UNL     1      23.101   2.689  21.729  0.00  0.00    +0.008 A 
ATOM     23  C   UNL     1      23.567   4.622  20.422  0.00  0.00    +0.115 A 
ATOM     24  C   UNL     1      24.046   1.994  20.982  0.00  0.00    +0.020 A 
ATOM     25  C   UNL     1      24.707   2.677  19.975  0.00  0.00    +0.111 A 
ENDBRANCH  12  16
ENDBRANCH   6  12
ENDBRANCH  10   9
BRANCH  10  14
ATOM     14  C   UNL     1      18.516   7.215  21.285  0.00  0.00    -0.017 A 
ATOM     17  C   UNL     1      18.372   6.238  20.301  0.00  0.00    +0.008 A 
ATOM     18  C   UNL     1      17.496   8.144  21.500  0.00  0.00    +0.008 A 
ATOM     19  C   UNL     1      17.209   6.187  19.532  0.00  0.00    +0.023 A 
ATOM     20  C   UNL     1      16.334   8.093  20.731  0.00  0.00    +0.023 A 
ATOM     21  C   UNL     1      16.190   7.114  19.748  0.00  0.00    +0.033 A 
BRANCH  21   7
ATOM      4  O   UNL     1      14.757   9.281  18.228  0.00  0.00    -0.273 OA
ATOM      7  N   UNL     1      15.027   7.064  18.979  0.00  0.00    -0.284 N 
ATOM     26  C   UNL     1      14.401   8.108  18.286  0.00  0.00    +0.243 C 
ATOM     30  H   UNL     1      14.585   6.148  18.919  0.00  0.00    +0.155 HD
BRANCH  26  27
ATOM     27  C   UNL     1      13.151   7.649  17.566  0.00  0.00    +0.255 C 
BRANCH  27   5
ATOM      5  O   UNL     1      12.177   7.296  18.525  0.00  0.00    -0.374 OA
ATOM     28  C   UNL     1      11.511   8.440  19.050  0.00  0.00    +0.194 C 
ENDBRANCH  27   5
ENDBRANCH  26  27
ENDBRANCH  21   7
ENDBRANCH  10  14
BRANCH  10   2
ATOM      2  O   UNL     1      19.678   6.330  23.181  0.00  0.00    -0.385 OA
ATOM     29  H   UNL     1      19.934   6.762  24.014  0.00  0.00    +0.210 HD
ENDBRANCH  10   2
TORSDOF 8
ENDMDL
MODEL 4
REMARK VINA RESULT:      -6.2     27.392     29.882
REMARK  Name = 56774794
REMARK  9 active torsions:
REMARK  status: ('A' for Active; 'I' for Inactive)
REMARK    1  A    between atoms: O_2  and  C_10
REMARK    2  A    between atoms: O_5  and  C_27
REMARK    3  A    between atoms: O_5  and  C_28
REMARK    4  A    between atoms: N_6  and  C_12
REMARK    5  A    between atoms: N_7  and  C_21
REMARK    6  A    between atoms: C_9  and  C_10
REMARK    7  A    between atoms: C_10  and  C_14
REMARK    8  A    between atoms: C_12  and  C_16
REMARK    9  A    between atoms: C_26  and  C_27
REMARK                            x       y       z     vdW  Elec       q    Type
REMARK                         _______ _______ _______ _____ _____    ______ ____
ROOT
ATOM     10  C   UNL     1      -7.892 -11.440  19.208  0.00  0.00    +0.167 C 
ENDROOT
BRANCH  10   9
ATOM      1  O   UNL     1      -9.365 -13.971  19.027  0.00  0.00    -0.369 OA
ATOM      3  O   UNL     1     -11.923 -12.051  20.705  0.00  0.00    -0.273 OA
ATOM      6  N   UNL     1     -10.356 -11.350  19.133  0.00  0.00    -0.287 N 
ATOM      9  C   UNL     1      -9.149 -11.683  18.367  0.00  0.00    +0.135 C 
ATOM     11  C   UNL     1      -9.217 -13.130  17.890  0.00  0.00    +0.185 C 
ATOM     13  C   UNL     1     -11.015 -12.301  19.910  0.00  0.00    +0.242 C 
ATOM     15  C   UNL     1     -10.604 -13.747  19.663  0.00  0.00    +0.255 C 
BRANCH   6  12
ATOM     12  C   UNL     1     -10.742  -9.947  19.203  0.00  0.00    +0.145 C 
BRANCH  12  16
ATOM      8  N   UNL     1     -11.705  -9.172  15.629  0.00  0.00    -0.263 NA
ATOM     16  C   UNL     1     -10.754  -9.300  17.848  0.00  0.00    -0.012 A 
ATOM     22  C   UNL     1      -9.873  -8.270  17.539  0.00  0.00    +0.008 A 
ATOM     23  C   UNL     1     -11.643  -9.710  16.868  0.00  0.00    +0.115 A 
ATOM     24  C   UNL     1      -9.907  -7.689  16.275  0.00  0.00    +0.020 A 
ATOM     25  C   UNL     1     -10.833  -8.173  15.364  0.00  0.00    +0.111 A 
ENDBRANCH  12  16
ENDBRANCH   6  12
ENDBRANCH  10   9
BRANCH  10  14
ATOM     14  C   UNL     1      -6.695 -11.122  18.348  0.00  0.00    -0.017 A 
ATOM     17  C   UNL     1      -6.833 -10.287  17.241  0.00  0.00    +0.008 A 
ATOM     18  C   UNL     1      -5.449 -11.666  18.661  0.00  0.00    +0.008 A 
ATOM     19  C   UNL     1      -5.724  -9.993  16.446  0.00  0.00    +0.023 A 
ATOM     20  C   UNL     1      -4.341 -11.373  17.867  0.00  0.00    +0.023 A 
ATOM     21  C   UNL     1      -4.479 -10.536  16.759  0.00  0.00    +0.033 A 
BRANCH  21   7
ATOM      4  O   UNL     1      -2.827 -12.313  14.978  0.00  0.00    -0.273 OA
ATOM      7  N   UNL     1      -3.370 -10.243  15.964  0.00  0.00    -0.284 N 
ATOM     26  C   UNL     1      -2.636 -11.112  15.147  0.00  0.00    +0.243 C 
ATOM     30  H   UNL     1      -3.065  -9.272  15.986  0.00  0.00    +0.155 HD
BRANCH  26  27
ATOM     27  C   UNL     1      -1.498 -10.409  14.440  0.00  0.00    +0.255 C 
BRANCH  27   5
ATOM      5  O   UNL     1      -1.972  -9.896  13.213  0.00  0.00    -0.374 OA
ATOM     28  C   UNL     1      -1.858 -10.849  12.161  0.00  0.00    +0.194 C 
ENDBRANCH  27   5
ENDBRANCH  26  27
ENDBRANCH  21   7
ENDBRANCH  10  14
BRANCH  10   2
ATOM      2  O   UNL     1      -8.130 -10.362  20.108  0.00  0.00    -0.385 OA
ATOM     29  H   UNL     1      -8.986 -10.495  20.548  0.00  0.00    +0.210 HD
ENDBRANCH  10   2
TORSDOF 8
ENDMDL
MODEL 5
REMARK VINA RESULT:      -6.1     14.453     17.891
REMARK  Name = 56774794
REMARK  9 active torsions:
REMARK  status: ('A' for Active; 'I' for Inactive)
REMARK    1  A    between atoms: O_2  and  C_10
REMARK    2  A    between atoms: O_5  and  C_27
REMARK    3  A    between atoms: O_5  and  C_28
REMARK    4  A    between atoms: N_6  and  C_12
REMARK    5  A    between atoms: N_7  and  C_21
REMARK    6  A    between atoms: C_9  and  C_10
REMARK    7  A    between atoms: C_10  and  C_14
REMARK    8  A    between atoms: C_12  and  C_16
REMARK    9  A    between atoms: C_26  and  C_27
REMARK                            x       y       z     vdW  Elec       q    Type
REMARK                         _______ _______ _______ _____ _____    ______ ____
ROOT
ATOM     10  C   UNL     1       9.142   6.364   4.807  0.00  0.00    +0.167 C 
ENDROOT
BRANCH  10   9
ATOM      1  O   UNL     1       8.050   7.619   7.224  0.00  0.00    -0.369 OA
ATOM      3  O   UNL     1      10.802   5.884   8.792  0.00  0.00    -0.273 OA
ATOM      6  N   UNL     1      10.686   6.839   6.672  0.00  0.00    -0.287 N 
ATOM      9  C   UNL     1       9.834   7.445   5.642  0.00  0.00    +0.135 C 
ATOM     11  C   UNL     1       8.813   8.374   6.291  0.00  0.00    +0.185 C 
ATOM     13  C   UNL     1      10.198   6.544   7.944  0.00  0.00    +0.242 C 
ATOM     15  C   UNL     1       8.855   7.174   8.293  0.00  0.00    +0.255 C 
BRANCH   6  12
ATOM     12  C   UNL     1      12.009   6.382   6.268  0.00  0.00    +0.145 C 
BRANCH  12  16
ATOM      8  N   UNL     1      14.085   9.544   6.275  0.00  0.00    -0.263 NA
ATOM     16  C   UNL     1      12.868   7.514   5.780  0.00  0.00    -0.012 A 
ATOM     22  C   UNL     1      13.243   7.605   4.445  0.00  0.00    +0.008 A 
ATOM     23  C   UNL     1      13.311   8.499   6.648  0.00  0.00    +0.115 A 
ATOM     24  C   UNL     1      14.039   8.664   4.023  0.00  0.00    +0.020 A 
ATOM     25  C   UNL     1      14.429   9.599   4.968  0.00  0.00    +0.111 A 
ENDBRANCH  12  16
ENDBRANCH   6  12
ENDBRANCH  10   9
BRANCH  10  14
ATOM     14  C   UNL     1       9.960   5.978   3.601  0.00  0.00    -0.017 A 
ATOM     17  C   UNL     1      10.091   6.866   2.533  0.00  0.00    +0.008 A 
ATOM     18  C   UNL     1      10.585   4.732   3.553  0.00  0.00    +0.008 A 
ATOM     19  C   UNL     1      10.848   6.508   1.417  0.00  0.00    +0.023 A 
ATOM     20  C   UNL     1      11.342   4.374   2.437  0.00  0.00    +0.023 A 
ATOM     21  C   UNL     1      11.473   5.263   1.369  0.00  0.00    +0.033 A 
BRANCH  21   7
ATOM      4  O   UNL     1      10.704   3.726  -1.101  0.00  0.00    -0.273 OA
ATOM      7  N   UNL     1      12.230   4.905   0.253  0.00  0.00    -0.284 N 
ATOM     26  C   UNL     1      11.820   4.187  -0.877  0.00  0.00    +0.243 C 
ATOM     30  H   UNL     1      13.202   5.210   0.272  0.00  0.00    +0.155 HD
BRANCH  26  27
ATOM     27  C   UNL     1      12.942   4.002  -1.876  0.00  0.00    +0.255 C 
BRANCH  27   5
ATOM      5  O   UNL     1      14.146   3.781  -1.171  0.00  0.00    -0.374 OA
ATOM     28  C   UNL     1      15.238   4.485  -1.754  0.00  0.00    +0.194 C 
ENDBRANCH  27   5
ENDBRANCH  26  27
ENDBRANCH  21   7
ENDBRANCH  10  14
BRANCH  10   2
ATOM      2  O   UNL     1       8.920   5.214   5.618  0.00  0.00    -0.385 OA
ATOM     29  H   UNL     1       9.644   4.581   5.479  0.00  0.00    +0.210 HD
ENDBRANCH  10   2
TORSDOF 8
ENDMDL
MODEL 6
REMARK VINA RESULT:      -6.1     27.202     30.170
REMARK  Name = 56774794
REMARK  9 active torsions:
REMARK  status: ('A' for Active; 'I' for Inactive)
REMARK    1  A    between atoms: O_2  and  C_10
REMARK    2  A    between atoms: O_5  and  C_27
REMARK    3  A    between atoms: O_5  and  C_28
REMARK    4  A    between atoms: N_6  and  C_12
REMARK    5  A    between atoms: N_7  and  C_21
REMARK    6  A    between atoms: C_9  and  C_10
REMARK    7  A    between atoms: C_10  and  C_14
REMARK    8  A    between atoms: C_12  and  C_16
REMARK    9  A    between atoms: C_26  and  C_27
REMARK                            x       y       z     vdW  Elec       q    Type
REMARK                         _______ _______ _______ _____ _____    ______ ____
ROOT
ATOM     10  C   UNL     1      -3.613 -10.627  15.865  0.00  0.00    +0.167 C 
ENDROOT
BRANCH  10   9
ATOM      1  O   UNL     1      -1.807 -10.827  13.562  0.00  0.00    -0.369 OA
ATOM      3  O   UNL     1      -2.028 -14.355  14.299  0.00  0.00    -0.273 OA
ATOM      6  N   UNL     1      -3.651 -12.703  14.532  0.00  0.00    -0.287 N 
ATOM      9  C   UNL     1      -3.954 -11.267  14.516  0.00  0.00    +0.135 C 
ATOM     11  C   UNL     1      -3.197 -10.587  13.380  0.00  0.00    +0.185 C 
ATOM     13  C   UNL     1      -2.403 -13.191  14.147  0.00  0.00    +0.242 C 
ATOM     15  C   UNL     1      -1.508 -12.198  13.418  0.00  0.00    +0.255 C 
BRANCH   6  12
ATOM     12  C   UNL     1      -4.633 -13.591  15.140  0.00  0.00    +0.145 C 
BRANCH  12  16
ATOM      8  N   UNL     1      -7.488 -13.217  12.688  0.00  0.00    -0.263 NA
ATOM     16  C   UNL     1      -6.014 -13.354  14.599  0.00  0.00    -0.012 A 
ATOM     22  C   UNL     1      -7.074 -13.059  15.449  0.00  0.00    +0.008 A 
ATOM     23  C   UNL     1      -6.271 -13.422  13.240  0.00  0.00    +0.115 A 
ATOM     24  C   UNL     1      -8.342 -12.843  14.920  0.00  0.00    +0.020 A 
ATOM     25  C   UNL     1      -8.495 -12.933  13.545  0.00  0.00    +0.111 A 
ENDBRANCH  12  16
ENDBRANCH   6  12
ENDBRANCH  10   9
BRANCH  10  14
ATOM     14  C   UNL     1      -4.826 -10.510  16.753  0.00  0.00    -0.017 A 
ATOM     17  C   UNL     1      -5.925  -9.759  16.338  0.00  0.00    +0.008 A 
ATOM     18  C   UNL     1      -4.848 -11.154  17.991  0.00  0.00    +0.008 A 
ATOM     19  C   UNL     1      -7.047  -9.651  17.160  0.00  0.00    +0.023 A 
ATOM     20  C   UNL     1      -5.969 -11.046  18.813  0.00  0.00    +0.023 A 
ATOM     21  C   UNL     1      -7.069 -10.295  18.397  0.00  0.00    +0.033 A 
BRANCH  21   7
ATOM      4  O   UNL     1      -9.689 -11.774  18.329  0.00  0.00    -0.273 OA
ATOM      7  N   UNL     1      -8.191 -10.187  19.219  0.00  0.00    -0.284 N 
ATOM     26  C   UNL     1      -9.391 -10.906  19.145  0.00  0.00    +0.243 C 
ATOM     30  H   UNL     1      -8.118  -9.497  19.964  0.00  0.00    +0.155 HD
BRANCH  26  27
ATOM     27  C   UNL     1     -10.371 -10.497  20.224  0.00  0.00    +0.255 C 
BRANCH  27   5
ATOM      5  O   UNL     1     -11.642 -10.312  19.637  0.00  0.00    -0.374 OA
ATOM     28  C   UNL     1     -12.587  -9.797  20.571  0.00  0.00    +0.194 C 
ENDBRANCH  27   5
ENDBRANCH  26  27
ENDBRANCH  21   7
ENDBRANCH  10  14
BRANCH  10   2
ATOM      2  O   UNL     1      -2.620 -11.411  16.519  0.00  0.00    -0.385 OA
ATOM     29  H   UNL     1      -2.096 -11.886  15.852  0.00  0.00    +0.210 HD
ENDBRANCH  10   2
TORSDOF 8
ENDMDL
MODEL 7
REMARK VINA RESULT:      -6.1     27.192     29.323
REMARK  Name = 56774794
REMARK  9 active torsions:
REMARK  status: ('A' for Active; 'I' for Inactive)
REMARK    1  A    between atoms: O_2  and  C_10
REMARK    2  A    between atoms: O_5  and  C_27
REMARK    3  A    between atoms: O_5  and  C_28
REMARK    4  A    between atoms: N_6  and  C_12
REMARK    5  A    between atoms: N_7  and  C_21
REMARK    6  A    between atoms: C_9  and  C_10
REMARK    7  A    between atoms: C_10  and  C_14
REMARK    8  A    between atoms: C_12  and  C_16
REMARK    9  A    between atoms: C_26  and  C_27
REMARK                            x       y       z     vdW  Elec       q    Type
REMARK                         _______ _______ _______ _____ _____    ______ ____
ROOT
ATOM     10  C   UNL     1      -2.978 -11.485  11.303  0.00  0.00    +0.167 C 
ENDROOT
BRANCH  10   9
ATOM      1  O   UNL     1      -1.920 -13.909  12.573  0.00  0.00    -0.369 OA
ATOM      3  O   UNL     1      -1.419 -11.659  15.353  0.00  0.00    -0.273 OA
ATOM      6  N   UNL     1      -3.115 -11.667  13.760  0.00  0.00    -0.287 N 
ATOM      9  C   UNL     1      -3.608 -12.218  12.491  0.00  0.00    +0.135 C 
ATOM     11  C   UNL     1      -3.322 -13.714  12.426  0.00  0.00    +0.185 C 
ATOM     13  C   UNL     1      -1.981 -12.179  14.387  0.00  0.00    +0.242 C 
ATOM     15  C   UNL     1      -1.488 -13.520  13.858  0.00  0.00    +0.255 C 
BRANCH   6  12
ATOM     12  C   UNL     1      -3.741 -10.447  14.252  0.00  0.00    +0.145 C 
BRANCH  12  16
ATOM      8  N   UNL     1      -6.766 -11.601  16.207  0.00  0.00    -0.263 NA
ATOM     16  C   UNL     1      -4.663 -10.715  15.406  0.00  0.00    -0.012 A 
ATOM     22  C   UNL     1      -4.313 -10.353  16.702  0.00  0.00    +0.008 A 
ATOM     23  C   UNL     1      -5.889 -11.332  15.213  0.00  0.00    +0.115 A 
ATOM     24  C   UNL     1      -5.188 -10.613  17.751  0.00  0.00    +0.020 A 
ATOM     25  C   UNL     1      -6.391 -11.233  17.453  0.00  0.00    +0.111 A 
ENDBRANCH  12  16
ENDBRANCH   6  12
ENDBRANCH  10   9
BRANCH  10  14
ATOM     14  C   UNL     1      -3.966 -10.576  10.617  0.00  0.00    -0.017 A 
ATOM     17  C   UNL     1      -3.513  -9.506   9.847  0.00  0.00    +0.008 A 
ATOM     18  C   UNL     1      -5.336 -10.807  10.753  0.00  0.00    +0.008 A 
ATOM     19  C   UNL     1      -4.428  -8.666   9.213  0.00  0.00    +0.023 A 
ATOM     20  C   UNL     1      -6.251  -9.967  10.119  0.00  0.00    +0.023 A 
ATOM     21  C   UNL     1      -5.796  -8.896   9.348  0.00  0.00    +0.033 A 
BRANCH  21   7
ATOM      4  O   UNL     1      -7.491  -9.347   6.902  0.00  0.00    -0.273 OA
ATOM      7  N   UNL     1      -6.712  -8.056   8.713  0.00  0.00    -0.284 N 
ATOM     26  C   UNL     1      -7.481  -8.319   7.572  0.00  0.00    +0.243 C 
ATOM     30  H   UNL     1      -6.830  -7.140   9.141  0.00  0.00    +0.155 HD
BRANCH  26  27
ATOM     27  C   UNL     1      -8.360  -7.147   7.192  0.00  0.00    +0.255 C 
BRANCH  27   5
ATOM      5  O   UNL     1      -8.104  -6.079   8.082  0.00  0.00    -0.374 OA
ATOM     28  C   UNL     1      -9.300  -5.397   8.448  0.00  0.00    +0.194 C 
ENDBRANCH  27   5
ENDBRANCH  26  27
ENDBRANCH  21   7
ENDBRANCH  10  14
BRANCH  10   2
ATOM      2  O   UNL     1      -1.867 -10.720  11.759  0.00  0.00    -0.385 OA
ATOM     29  H   UNL     1      -1.742  -9.956  11.171  0.00  0.00    +0.210 HD
ENDBRANCH  10   2
TORSDOF 8
ENDMDL
MODEL 8
REMARK VINA RESULT:      -6.0     26.383     29.004
REMARK  Name = 56774794
REMARK  9 active torsions:
REMARK  status: ('A' for Active; 'I' for Inactive)
REMARK    1  A    between atoms: O_2  and  C_10
REMARK    2  A    between atoms: O_5  and  C_27
REMARK    3  A    between atoms: O_5  and  C_28
REMARK    4  A    between atoms: N_6  and  C_12
REMARK    5  A    between atoms: N_7  and  C_21
REMARK    6  A    between atoms: C_9  and  C_10
REMARK    7  A    between atoms: C_10  and  C_14
REMARK    8  A    between atoms: C_12  and  C_16
REMARK    9  A    between atoms: C_26  and  C_27
REMARK                            x       y       z     vdW  Elec       q    Type
REMARK                         _______ _______ _______ _____ _____    ______ ____
ROOT
ATOM     10  C   UNL     1     -11.428   9.803  19.939  0.00  0.00    +0.167 C 
ENDROOT
BRANCH  10   9
ATOM      1  O   UNL     1     -11.822  12.503  18.862  0.00  0.00    -0.369 OA
ATOM      3  O   UNL     1      -9.371  11.385  16.456  0.00  0.00    -0.273 OA
ATOM      6  N   UNL     1     -11.036  10.164  17.530  0.00  0.00    -0.287 N 
ATOM      9  C   UNL     1     -12.058  10.141  18.585  0.00  0.00    +0.135 C 
ATOM     11  C   UNL     1     -12.784  11.480  18.636  0.00  0.00    +0.185 C 
ATOM     13  C   UNL     1     -10.351  11.333  17.203  0.00  0.00    +0.242 C 
ATOM     15  C   UNL     1     -10.942  12.619  17.766  0.00  0.00    +0.255 C 
BRANCH   6  12
ATOM     12  C   UNL     1     -10.628   8.887  16.960  0.00  0.00    +0.145 C 
BRANCH  12  16
ATOM      8  N   UNL     1     -13.496   8.159  14.604  0.00  0.00    -0.263 NA
ATOM     16  C   UNL     1     -11.380   8.570  15.699  0.00  0.00    -0.012 A 
ATOM     22  C   UNL     1     -10.712   8.392  14.493  0.00  0.00    +0.008 A 
ATOM     23  C   UNL     1     -12.759   8.445  15.702  0.00  0.00    +0.115 A 
ATOM     24  C   UNL     1     -11.434   8.098  13.342  0.00  0.00    +0.020 A 
ATOM     25  C   UNL     1     -12.812   7.993  13.450  0.00  0.00    +0.111 A 
ENDBRANCH  12  16
ENDBRANCH   6  12
ENDBRANCH  10   9
BRANCH  10  14
ATOM     14  C   UNL     1     -12.186   8.714  20.654  0.00  0.00    -0.017 A 
ATOM     17  C   UNL     1     -11.756   7.391  20.566  0.00  0.00    +0.008 A 
ATOM     18  C   UNL     1     -13.320   9.031  21.404  0.00  0.00    +0.008 A 
ATOM     19  C   UNL     1     -12.458   6.383  21.228  0.00  0.00    +0.023 A 
ATOM     20  C   UNL     1     -14.022   8.024  22.065  0.00  0.00    +0.023 A 
ATOM     21  C   UNL     1     -13.590   6.700  21.978  0.00  0.00    +0.033 A 
BRANCH  21   7
ATOM      4  O   UNL     1     -15.892   4.994  21.057  0.00  0.00    -0.273 OA
ATOM      7  N   UNL     1     -14.293   5.693  22.640  0.00  0.00    -0.284 N 
ATOM     26  C   UNL     1     -15.361   4.923  22.162  0.00  0.00    +0.243 C 
ATOM     30  H   UNL     1     -13.981   5.499  23.590  0.00  0.00    +0.155 HD
BRANCH  26  27
ATOM     27  C   UNL     1     -15.854   3.927  23.189  0.00  0.00    +0.255 C 
BRANCH  27   5
ATOM      5  O   UNL     1     -16.772   3.051  22.568  0.00  0.00    -0.374 OA
ATOM     28  C   UNL     1     -17.455   2.239  23.518  0.00  0.00    +0.194 C 
ENDBRANCH  27   5
ENDBRANCH  26  27
ENDBRANCH  21   7
ENDBRANCH  10  14
BRANCH  10   2
ATOM      2  O   UNL     1     -10.079   9.392  19.741  0.00  0.00    -0.385 OA
ATOM     29  H   UNL     1      -9.820   8.788  20.458  0.00  0.00    +0.210 HD
ENDBRANCH  10   2
TORSDOF 8
ENDMDL
MODEL 9
REMARK VINA RESULT:      -5.9     22.535     26.472
REMARK  Name = 56774794
REMARK  9 active torsions:
REMARK  status: ('A' for Active; 'I' for Inactive)
REMARK    1  A    between atoms: O_2  and  C_10
REMARK    2  A    between atoms: O_5  and  C_27
REMARK    3  A    between atoms: O_5  and  C_28
REMARK    4  A    between atoms: N_6  and  C_12
REMARK    5  A    between atoms: N_7  and  C_21
REMARK    6  A    between atoms: C_9  and  C_10
REMARK    7  A    between atoms: C_10  and  C_14
REMARK    8  A    between atoms: C_12  and  C_16
REMARK    9  A    between atoms: C_26  and  C_27
REMARK                            x       y       z     vdW  Elec       q    Type
REMARK                         _______ _______ _______ _____ _____    ______ ____
ROOT
ATOM     10  C   UNL     1      -2.320   9.453   5.545  0.00  0.00    +0.167 C 
ENDROOT
BRANCH  10   9
ATOM      1  O   UNL     1      -0.590  11.782   5.982  0.00  0.00    -0.369 OA
ATOM      3  O   UNL     1       0.879  10.675   2.874  0.00  0.00    -0.273 OA
ATOM      6  N   UNL     1      -1.338  10.560   3.572  0.00  0.00    -0.287 N 
ATOM      9  C   UNL     1      -2.288  10.716   4.680  0.00  0.00    +0.135 C 
ATOM     11  C   UNL     1      -1.923  11.941   5.511  0.00  0.00    +0.185 C 
ATOM     13  C   UNL     1      -0.001  10.934   3.697  0.00  0.00    +0.242 C 
ATOM     15  C   UNL     1       0.328  11.793   4.911  0.00  0.00    +0.255 C 
BRANCH   6  12
ATOM     12  C   UNL     1      -1.792   9.832   2.394  0.00  0.00    +0.145 C 
BRANCH  12  16
ATOM      8  N   UNL     1      -3.494  12.583   0.437  0.00  0.00    -0.263 NA
ATOM     16  C   UNL     1      -2.846  10.588   1.638  0.00  0.00    -0.012 A 
ATOM     22  C   UNL     1      -4.108  10.043   1.431  0.00  0.00    +0.008 A 
ATOM     23  C   UNL     1      -2.591  11.849   1.125  0.00  0.00    +0.115 A 
ATOM     24  C   UNL     1      -5.064  10.767   0.727  0.00  0.00    +0.020 A 
ATOM     25  C   UNL     1      -4.711  12.022   0.255  0.00  0.00    +0.111 A 
ENDBRANCH  12  16
ENDBRANCH   6  12
ENDBRANCH  10   9
BRANCH  10  14
ATOM     14  C   UNL     1      -3.524   8.597   5.245  0.00  0.00    -0.017 A 
ATOM     17  C   UNL     1      -3.433   7.208   5.333  0.00  0.00    +0.008 A 
ATOM     18  C   UNL     1      -4.730   9.196   4.878  0.00  0.00    +0.008 A 
ATOM     19  C   UNL     1      -4.549   6.418   5.055  0.00  0.00    +0.023 A 
ATOM     20  C   UNL     1      -5.845   8.405   4.600  0.00  0.00    +0.023 A 
ATOM     21  C   UNL     1      -5.754   7.016   4.689  0.00  0.00    +0.033 A 
BRANCH  21   7
ATOM      4  O   UNL     1      -8.168   6.384   6.372  0.00  0.00    -0.273 OA
ATOM      7  N   UNL     1      -6.869   6.225   4.412  0.00  0.00    -0.284 N 
ATOM     26  C   UNL     1      -7.973   5.965   5.234  0.00  0.00    +0.243 C 
ATOM     30  H   UNL     1      -6.872   5.787   3.493  0.00  0.00    +0.155 HD
BRANCH  26  27
ATOM     27  C   UNL     1      -8.981   5.053   4.568  0.00  0.00    +0.255 C 
BRANCH  27   5
ATOM      5  O   UNL     1      -8.859   5.187   3.167  0.00  0.00    -0.374 OA
ATOM     28  C   UNL     1     -10.122   5.094   2.515  0.00  0.00    +0.194 C 
ENDBRANCH  27   5
ENDBRANCH  26  27
ENDBRANCH  21   7
ENDBRANCH  10  14
BRANCH  10   2
ATOM      2  O   UNL     1      -1.133   8.698   5.320  0.00  0.00    -0.385 OA
ATOM     29  H   UNL     1      -1.374   7.795   5.053  0.00  0.00    +0.210 HD
ENDBRANCH  10   2
TORSDOF 8
ENDMDL
MODEL 10
REMARK VINA RESULT:      -5.9     17.117     20.705
REMARK  Name = 56774794
REMARK  9 active torsions:
REMARK  status: ('A' for Active; 'I' for Inactive)
REMARK    1  A    between atoms: O_2  and  C_10
REMARK    2  A    between atoms: O_5  and  C_27
REMARK    3  A    between atoms: O_5  and  C_28
REMARK    4  A    between atoms: N_6  and  C_12
REMARK    5  A    between atoms: N_7  and  C_21
REMARK    6  A    between atoms: C_9  and  C_10
REMARK    7  A    between atoms: C_10  and  C_14
REMARK    8  A    between atoms: C_12  and  C_16
REMARK    9  A    between atoms: C_26  and  C_27
REMARK                            x       y       z     vdW  Elec       q    Type
REMARK                         _______ _______ _______ _____ _____    ______ ____
ROOT
ATOM     10  C   UNL     1       9.906   5.171  -0.463  0.00  0.00    +0.167 C 
ENDROOT
BRANCH  10   9
ATOM      1  O   UNL     1       9.993   4.654  -3.349  0.00  0.00    -0.369 OA
ATOM      3  O   UNL     1      12.234   7.486  -3.305  0.00  0.00    -0.273 OA
ATOM      6  N   UNL     1      11.936   5.826  -1.702  0.00  0.00    -0.287 N 
ATOM      9  C   UNL     1      11.129   4.687  -1.246  0.00  0.00    +0.135 C 
ATOM     11  C   UNL     1      10.713   3.833  -2.439  0.00  0.00    +0.185 C 
ATOM     13  C   UNL     1      11.715   6.430  -2.938  0.00  0.00    +0.242 C 
ATOM     15  C   UNL     1      10.827   5.651  -3.899  0.00  0.00    +0.255 C 
BRANCH   6  12
ATOM     12  C   UNL     1      12.855   6.425  -0.743  0.00  0.00    +0.145 C 
BRANCH  12  16
ATOM      8  N   UNL     1      15.829   4.092  -0.878  0.00  0.00    -0.263 NA
ATOM     16  C   UNL     1      13.918   5.458  -0.306  0.00  0.00    -0.012 A 
ATOM     22  C   UNL     1      13.998   5.031   1.015  0.00  0.00    +0.008 A 
ATOM     23  C   UNL     1      14.848   4.964  -1.205  0.00  0.00    +0.115 A 
ATOM     24  C   UNL     1      14.993   4.135   1.391  0.00  0.00    +0.020 A 
ATOM     25  C   UNL     1      15.875   3.699   0.416  0.00  0.00    +0.111 A 
ENDBRANCH  12  16
ENDBRANCH   6  12
ENDBRANCH  10   9
BRANCH  10  14
ATOM     14  C   UNL     1      10.179   5.240   1.018  0.00  0.00    -0.017 A 
ATOM     17  C   UNL     1       9.998   6.440   1.706  0.00  0.00    +0.008 A 
ATOM     18  C   UNL     1      10.616   4.104   1.700  0.00  0.00    +0.008 A 
ATOM     19  C   UNL     1      10.252   6.503   3.077  0.00  0.00    +0.023 A 
ATOM     20  C   UNL     1      10.869   4.167   3.070  0.00  0.00    +0.023 A 
ATOM     21  C   UNL     1      10.687   5.367   3.758  0.00  0.00    +0.033 A 
BRANCH  21   7
ATOM      4  O   UNL     1       8.798   5.665   6.082  0.00  0.00    -0.273 OA
ATOM      7  N   UNL     1      10.940   5.430   5.129  0.00  0.00    -0.284 N 
ATOM     26  C   UNL     1      10.018   5.567   6.174  0.00  0.00    +0.243 C 
ATOM     30  H   UNL     1      11.922   5.367   5.392  0.00  0.00    +0.155 HD
BRANCH  26  27
ATOM     27  C   UNL     1      10.691   5.596   7.530  0.00  0.00    +0.255 C 
BRANCH  27   5
ATOM      5  O   UNL     1       9.716   5.868   8.516  0.00  0.00    -0.374 OA
ATOM     28  C   UNL     1       9.490   4.745   9.361  0.00  0.00    +0.194 C 
ENDBRANCH  27   5
ENDBRANCH  26  27
ENDBRANCH  21   7
ENDBRANCH  10  14
BRANCH  10   2
ATOM      2  O   UNL     1       9.523   6.459  -0.936  0.00  0.00    -0.385 OA
ATOM     29  H   UNL     1       9.674   7.115  -0.235  0.00  0.00    +0.210 HD
ENDBRANCH  10   2
TORSDOF 8
ENDMDL
