MODEL 1
REMARK VINA RESULT:      -6.2      0.000      0.000
REMARK  Name = 26744664
REMARK  10 active torsions:
REMARK  status: ('A' for Active; 'I' for Inactive)
REMARK    1  A    between atoms: O_2  and  C_8
REMARK    2  A    between atoms: O_3  and  C_10
REMARK    3  A    between atoms: O_5  and  C_21
REMARK    4  A    between atoms: O_5  and  C_22
REMARK    5  A    between atoms: N_6  and  C_13
REMARK    6  A    between atoms: N_7  and  C_15
REMARK    7  A    between atoms: C_9  and  C_12
REMARK    8  A    between atoms: C_11  and  C_13
REMARK    9  A    between atoms: C_12  and  C_14
REMARK   10  A    between atoms: C_15  and  C_16
REMARK                            x       y       z     vdW  Elec       q    Type
REMARK                         _______ _______ _______ _____ _____    ______ ____
ROOT
ATOM     12  C   UNL     1      14.528   8.239  22.174  0.00  0.00    +0.130 C 
ENDROOT
BRANCH  12   9
ATOM      1  O   UNL     1      13.200   6.919  20.644  0.00  0.00    -0.366 OA
ATOM      8  C   UNL     1      12.104   8.758  21.631  0.00  0.00    +0.175 C 
ATOM      9  C   UNL     1      13.150   7.682  21.863  0.00  0.00    +0.158 C 
ATOM     10  C   UNL     1      11.096   8.023  20.772  0.00  0.00    +0.175 C 
ATOM     11  C   UNL     1      11.998   7.175  19.881  0.00  0.00    +0.163 C 
BRANCH   8   2
ATOM      2  O   UNL     1      11.560   9.239  22.842  0.00  0.00    -0.387 OA
ATOM     23  H   UNL     1      10.607   9.046  22.831  0.00  0.00    +0.210 HD
ENDBRANCH   8   2
BRANCH  10   3
ATOM      3  O   UNL     1      10.311   7.142  21.574  0.00  0.00    -0.387 OA
ATOM     24  H   UNL     1      10.368   6.257  21.173  0.00  0.00    +0.210 HD
ENDBRANCH  10   3
BRANCH  11  13
ATOM     13  C   UNL     1      12.405   7.884  18.596  0.00  0.00    +0.112 C 
BRANCH  13   6
ATOM      6  N   UNL     1      11.961   7.140  17.425  0.00  0.00    -0.328 NA
ATOM     25  H   UNL     1      12.607   7.296  16.653  0.00  0.00    +0.118 HD
ATOM     26  H   UNL     1      11.058   7.500  17.119  0.00  0.00    +0.118 HD
ENDBRANCH  13   6
ENDBRANCH  11  13
ENDBRANCH  12   9
BRANCH  12  14
ATOM      4  O   UNL     1      15.655   9.087  20.208  0.00  0.00    -0.276 OA
ATOM      7  N   UNL     1      16.080   6.912  20.906  0.00  0.00    -0.311 N 
ATOM     14  C   UNL     1      15.471   8.156  20.987  0.00  0.00    +0.216 C 
ATOM     27  H   UNL     1      15.846   6.200  21.593  0.00  0.00    +0.149 HD
BRANCH   7  15
ATOM     15  C   UNL     1      17.022   6.561  19.871  0.00  0.00    +0.139 C 
BRANCH  15  16
ATOM     16  C   UNL     1      18.360   6.172  20.435  0.00  0.00    -0.030 A 
ATOM     17  C   UNL     1      18.856   6.823  21.564  0.00  0.00    +0.009 A 
ATOM     18  C   UNL     1      19.104   5.160  19.829  0.00  0.00    +0.009 A 
ATOM     19  C   UNL     1      20.097   6.461  22.088  0.00  0.00    +0.046 A 
ATOM     20  C   UNL     1      20.345   4.799  20.353  0.00  0.00    +0.046 A 
ATOM     21  C   UNL     1      20.841   5.450  21.482  0.00  0.00    +0.120 A 
BRANCH  21   5
ATOM      5  O   UNL     1      22.052   5.097  21.993  0.00  0.00    -0.495 OA
ATOM     22  C   UNL     1      22.525   3.784  21.697  0.00  0.00    +0.277 C 
ENDBRANCH  21   5
ENDBRANCH  15  16
ENDBRANCH   7  15
ENDBRANCH  12  14
TORSDOF 9
ENDMDL
MODEL 2
REMARK VINA RESULT:      -6.1      1.635      2.192
REMARK  Name = 26744664
REMARK  10 active torsions:
REMARK  status: ('A' for Active; 'I' for Inactive)
REMARK    1  A    between atoms: O_2  and  C_8
REMARK    2  A    between atoms: O_3  and  C_10
REMARK    3  A    between atoms: O_5  and  C_21
REMARK    4  A    between atoms: O_5  and  C_22
REMARK    5  A    between atoms: N_6  and  C_13
REMARK    6  A    between atoms: N_7  and  C_15
REMARK    7  A    between atoms: C_9  and  C_12
REMARK    8  A    between atoms: C_11  and  C_13
REMARK    9  A    between atoms: C_12  and  C_14
REMARK   10  A    between atoms: C_15  and  C_16
REMARK                            x       y       z     vdW  Elec       q    Type
REMARK                         _______ _______ _______ _____ _____    ______ ____
ROOT
ATOM     12  C   UNL     1      13.167  10.017  21.977  0.00  0.00    +0.130 C 
ENDROOT
BRANCH  12   9
ATOM      1  O   UNL     1      13.576   8.172  20.469  0.00  0.00    -0.366 OA
ATOM      8  C   UNL     1      11.462   8.194  21.513  0.00  0.00    +0.175 C 
ATOM      9  C   UNL     1      12.929   8.543  21.699  0.00  0.00    +0.158 C 
ATOM     10  C   UNL     1      11.553   6.937  20.674  0.00  0.00    +0.175 C 
ATOM     11  C   UNL     1      12.720   7.258  19.746  0.00  0.00    +0.163 C 
BRANCH   8   2
ATOM      2  O   UNL     1      10.804   7.996  22.746  0.00  0.00    -0.387 OA
ATOM     23  H   UNL     1      10.648   7.042  22.843  0.00  0.00    +0.210 HD
ENDBRANCH   8   2
BRANCH  10   3
ATOM      3  O   UNL     1      11.928   5.825  21.486  0.00  0.00    -0.387 OA
ATOM     24  H   UNL     1      11.648   5.018  21.020  0.00  0.00    +0.210 HD
ENDBRANCH  10   3
BRANCH  11  13
ATOM     13  C   UNL     1      12.285   7.948  18.459  0.00  0.00    +0.112 C 
BRANCH  13   6
ATOM      6  N   UNL     1      11.914   6.973  17.442  0.00  0.00    -0.328 NA
ATOM     25  H   UNL     1      12.683   6.853  16.784  0.00  0.00    +0.118 HD
ATOM     26  H   UNL     1      11.128   7.332  16.902  0.00  0.00    +0.118 HD
ENDBRANCH  13   6
ENDBRANCH  11  13
ENDBRANCH  12   9
BRANCH  12  14
ATOM      4  O   UNL     1      14.774  11.522  20.975  0.00  0.00    -0.276 OA
ATOM      7  N   UNL     1      15.525   9.550  21.948  0.00  0.00    -0.311 N 
ATOM     14  C   UNL     1      14.558  10.469  21.568  0.00  0.00    +0.216 C 
ATOM     27  H   UNL     1      15.238   8.697  22.421  0.00  0.00    +0.149 HD
BRANCH   7  15
ATOM     15  C   UNL     1      16.932   9.729  21.681  0.00  0.00    +0.139 C 
BRANCH  15  16
ATOM     16  C   UNL     1      17.588   8.455  21.233  0.00  0.00    -0.030 A 
ATOM     17  C   UNL     1      18.851   8.113  21.714  0.00  0.00    +0.009 A 
ATOM     18  C   UNL     1      16.931   7.611  20.337  0.00  0.00    +0.009 A 
ATOM     19  C   UNL     1      19.460   6.929  21.299  0.00  0.00    +0.046 A 
ATOM     20  C   UNL     1      17.540   6.427  19.921  0.00  0.00    +0.046 A 
ATOM     21  C   UNL     1      18.804   6.087  20.402  0.00  0.00    +0.120 A 
BRANCH  21   5
ATOM      5  O   UNL     1      19.397   4.930  19.997  0.00  0.00    -0.495 OA
ATOM     22  C   UNL     1      20.707   4.663  20.494  0.00  0.00    +0.277 C 
ENDBRANCH  21   5
ENDBRANCH  15  16
ENDBRANCH   7  15
ENDBRANCH  12  14
TORSDOF 9
ENDMDL
MODEL 3
REMARK VINA RESULT:      -6.0      4.774      7.102
REMARK  Name = 26744664
REMARK  10 active torsions:
REMARK  status: ('A' for Active; 'I' for Inactive)
REMARK    1  A    between atoms: O_2  and  C_8
REMARK    2  A    between atoms: O_3  and  C_10
REMARK    3  A    between atoms: O_5  and  C_21
REMARK    4  A    between atoms: O_5  and  C_22
REMARK    5  A    between atoms: N_6  and  C_13
REMARK    6  A    between atoms: N_7  and  C_15
REMARK    7  A    between atoms: C_9  and  C_12
REMARK    8  A    between atoms: C_11  and  C_13
REMARK    9  A    between atoms: C_12  and  C_14
REMARK   10  A    between atoms: C_15  and  C_16
REMARK                            x       y       z     vdW  Elec       q    Type
REMARK                         _______ _______ _______ _____ _____    ______ ____
ROOT
ATOM     12  C   UNL     1      13.688   7.796  18.350  0.00  0.00    +0.130 C 
ENDROOT
BRANCH  12   9
ATOM      1  O   UNL     1      11.507   7.642  19.382  0.00  0.00    -0.366 OA
ATOM      8  C   UNL     1      13.340   7.126  20.774  0.00  0.00    +0.175 C 
ATOM      9  C   UNL     1      12.819   7.052  19.348  0.00  0.00    +0.158 C 
ATOM     10  C   UNL     1      12.072   6.903  21.572  0.00  0.00    +0.175 C 
ATOM     11  C   UNL     1      11.041   7.669  20.751  0.00  0.00    +0.163 C 
BRANCH   8   2
ATOM      2  O   UNL     1      14.336   6.158  21.025  0.00  0.00    -0.387 OA
ATOM     23  H   UNL     1      13.885   5.320  21.223  0.00  0.00    +0.210 HD
ENDBRANCH   8   2
BRANCH  10   3
ATOM      3  O   UNL     1      11.713   5.522  21.555  0.00  0.00    -0.387 OA
ATOM     24  H   UNL     1      11.166   5.355  22.342  0.00  0.00    +0.210 HD
ENDBRANCH  10   3
BRANCH  11  13
ATOM     13  C   UNL     1      10.911   9.128  21.169  0.00  0.00    +0.112 C 
BRANCH  13   6
ATOM      6  N   UNL     1      10.127   9.254  22.390  0.00  0.00    -0.328 NA
ATOM     25  H   UNL     1      10.451  10.059  22.925  0.00  0.00    +0.118 HD
ATOM     26  H   UNL     1      10.285   8.437  22.979  0.00  0.00    +0.118 HD
ENDBRANCH  13   6
ENDBRANCH  11  13
ENDBRANCH  12   9
BRANCH  12  14
ATOM      4  O   UNL     1      15.468   8.995  19.468  0.00  0.00    -0.276 OA
ATOM      7  N   UNL     1      13.542  10.142  18.852  0.00  0.00    -0.311 N 
ATOM     14  C   UNL     1      14.352   9.020  18.955  0.00  0.00    +0.216 C 
ATOM     27  H   UNL     1      12.625  10.053  18.425  0.00  0.00    +0.149 HD
BRANCH   7  15
ATOM     15  C   UNL     1      13.928  11.441  19.349  0.00  0.00    +0.139 C 
BRANCH  15  16
ATOM     16  C   UNL     1      13.237  11.779  20.639  0.00  0.00    -0.030 A 
ATOM     17  C   UNL     1      13.718  11.266  21.843  0.00  0.00    +0.009 A 
ATOM     18  C   UNL     1      12.115  12.607  20.632  0.00  0.00    +0.009 A 
ATOM     19  C   UNL     1      13.076  11.581  23.041  0.00  0.00    +0.046 A 
ATOM     20  C   UNL     1      11.473  12.922  21.830  0.00  0.00    +0.046 A 
ATOM     21  C   UNL     1      11.954  12.408  23.034  0.00  0.00    +0.120 A 
BRANCH  21   5
ATOM      5  O   UNL     1      11.327  12.715  24.203  0.00  0.00    -0.495 OA
ATOM     22  C   UNL     1      11.147  11.656  25.141  0.00  0.00    +0.277 C 
ENDBRANCH  21   5
ENDBRANCH  15  16
ENDBRANCH   7  15
ENDBRANCH  12  14
TORSDOF 9
ENDMDL
MODEL 4
REMARK VINA RESULT:      -5.9     16.042     18.316
REMARK  Name = 26744664
REMARK  10 active torsions:
REMARK  status: ('A' for Active; 'I' for Inactive)
REMARK    1  A    between atoms: O_2  and  C_8
REMARK    2  A    between atoms: O_3  and  C_10
REMARK    3  A    between atoms: O_5  and  C_21
REMARK    4  A    between atoms: O_5  and  C_22
REMARK    5  A    between atoms: N_6  and  C_13
REMARK    6  A    between atoms: N_7  and  C_15
REMARK    7  A    between atoms: C_9  and  C_12
REMARK    8  A    between atoms: C_11  and  C_13
REMARK    9  A    between atoms: C_12  and  C_14
REMARK   10  A    between atoms: C_15  and  C_16
REMARK                            x       y       z     vdW  Elec       q    Type
REMARK                         _______ _______ _______ _____ _____    ______ ____
ROOT
ATOM     12  C   UNL     1      11.431   6.631   4.724  0.00  0.00    +0.130 C 
ENDROOT
BRANCH  12   9
ATOM      1  O   UNL     1       9.562   5.940   6.092  0.00  0.00    -0.366 OA
ATOM      8  C   UNL     1      11.572   6.373   7.246  0.00  0.00    +0.175 C 
ATOM      9  C   UNL     1      10.989   5.845   5.946  0.00  0.00    +0.158 C 
ATOM     10  C   UNL     1      10.552   5.888   8.255  0.00  0.00    +0.175 C 
ATOM     11  C   UNL     1       9.242   6.073   7.497  0.00  0.00    +0.163 C 
BRANCH   8   2
ATOM      2  O   UNL     1      12.872   5.878   7.483  0.00  0.00    -0.387 OA
ATOM     23  H   UNL     1      12.785   4.950   7.759  0.00  0.00    +0.210 HD
ENDBRANCH   8   2
BRANCH  10   3
ATOM      3  O   UNL     1      10.726   4.494   8.503  0.00  0.00    -0.387 OA
ATOM     24  H   UNL     1       9.994   4.208   9.078  0.00  0.00    +0.210 HD
ENDBRANCH  10   3
BRANCH  11  13
ATOM     13  C   UNL     1       8.623   7.450   7.704  0.00  0.00    +0.112 C 
BRANCH  13   6
ATOM      6  N   UNL     1       7.780   7.819   6.575  0.00  0.00    -0.328 NA
ATOM     25  H   UNL     1       7.362   8.733   6.742  0.00  0.00    +0.118 HD
ATOM     26  H   UNL     1       7.006   7.160   6.501  0.00  0.00    +0.118 HD
ENDBRANCH  13   6
ENDBRANCH  11  13
ENDBRANCH  12   9
BRANCH  12  14
ATOM      4  O   UNL     1      10.480   6.500   2.503  0.00  0.00    -0.276 OA
ATOM      7  N   UNL     1      11.483   4.614   3.419  0.00  0.00    -0.311 N 
ATOM     14  C   UNL     1      11.069   5.938   3.423  0.00  0.00    +0.216 C 
ATOM     27  H   UNL     1      11.948   4.238   4.241  0.00  0.00    +0.149 HD
BRANCH   7  15
ATOM     15  C   UNL     1      11.264   3.722   2.305  0.00  0.00    +0.139 C 
BRANCH  15  16
ATOM     16  C   UNL     1      12.357   3.822   1.280  0.00  0.00    -0.030 A 
ATOM     17  C   UNL     1      12.046   4.128  -0.044  0.00  0.00    +0.009 A 
ATOM     18  C   UNL     1      13.684   3.611   1.654  0.00  0.00    +0.009 A 
ATOM     19  C   UNL     1      13.062   4.222  -0.996  0.00  0.00    +0.046 A 
ATOM     20  C   UNL     1      14.700   3.705   0.703  0.00  0.00    +0.046 A 
ATOM     21  C   UNL     1      14.388   4.010  -0.622  0.00  0.00    +0.120 A 
BRANCH  21   5
ATOM      5  O   UNL     1      15.380   4.102  -1.550  0.00  0.00    -0.495 OA
ATOM     22  C   UNL     1      16.700   4.350  -1.068  0.00  0.00    +0.277 C 
ENDBRANCH  21   5
ENDBRANCH  15  16
ENDBRANCH   7  15
ENDBRANCH  12  14
TORSDOF 9
ENDMDL
MODEL 5
REMARK VINA RESULT:      -5.9      2.129      2.929
REMARK  Name = 26744664
REMARK  10 active torsions:
REMARK  status: ('A' for Active; 'I' for Inactive)
REMARK    1  A    between atoms: O_2  and  C_8
REMARK    2  A    between atoms: O_3  and  C_10
REMARK    3  A    between atoms: O_5  and  C_21
REMARK    4  A    between atoms: O_5  and  C_22
REMARK    5  A    between atoms: N_6  and  C_13
REMARK    6  A    between atoms: N_7  and  C_15
REMARK    7  A    between atoms: C_9  and  C_12
REMARK    8  A    between atoms: C_11  and  C_13
REMARK    9  A    between atoms: C_12  and  C_14
REMARK   10  A    between atoms: C_15  and  C_16
REMARK                            x       y       z     vdW  Elec       q    Type
REMARK                         _______ _______ _______ _____ _____    ______ ____
ROOT
ATOM     12  C   UNL     1      13.035  10.345  20.347  0.00  0.00    +0.130 C 
ENDROOT
BRANCH  12   9
ATOM      1  O   UNL     1      14.005   8.937  18.638  0.00  0.00    -0.366 OA
ATOM      8  C   UNL     1      11.653   8.882  18.801  0.00  0.00    +0.175 C 
ATOM      9  C   UNL     1      12.938   9.028  19.599  0.00  0.00    +0.158 C 
ATOM     10  C   UNL     1      12.069   7.890  17.735  0.00  0.00    +0.175 C 
ATOM     11  C   UNL     1      13.495   8.333  17.427  0.00  0.00    +0.163 C 
BRANCH   8   2
ATOM      2  O   UNL     1      10.582   8.428  19.599  0.00  0.00    -0.387 OA
ATOM     23  H   UNL     1      10.364   7.525  19.310  0.00  0.00    +0.210 HD
ENDBRANCH   8   2
BRANCH  10   3
ATOM      3  O   UNL     1      12.124   6.572  18.280  0.00  0.00    -0.387 OA
ATOM     24  H   UNL     1      11.792   6.621  19.193  0.00  0.00    +0.210 HD
ENDBRANCH  10   3
BRANCH  11  13
ATOM     13  C   UNL     1      13.569   9.378  16.321  0.00  0.00    +0.112 C 
BRANCH  13   6
ATOM      6  N   UNL     1      12.516   9.171  15.336  0.00  0.00    -0.328 NA
ATOM     25  H   UNL     1      12.552   8.214  14.989  0.00  0.00    +0.118 HD
ATOM     26  H   UNL     1      12.684   9.773  14.530  0.00  0.00    +0.118 HD
ENDBRANCH  13   6
ENDBRANCH  11  13
ENDBRANCH  12   9
BRANCH  12  14
ATOM      4  O   UNL     1      14.906  11.842  20.689  0.00  0.00    -0.276 OA
ATOM      7  N   UNL     1      15.181   9.571  21.103  0.00  0.00    -0.311 N 
ATOM     14  C   UNL     1      14.463  10.697  20.724  0.00  0.00    +0.216 C 
ATOM     27  H   UNL     1      14.727   8.663  21.080  0.00  0.00    +0.149 HD
BRANCH   7  15
ATOM     15  C   UNL     1      16.566   9.619  21.508  0.00  0.00    +0.139 C 
BRANCH  15  16
ATOM     16  C   UNL     1      17.309   8.372  21.122  0.00  0.00    -0.030 A 
ATOM     17  C   UNL     1      18.520   8.062  21.740  0.00  0.00    +0.009 A 
ATOM     18  C   UNL     1      16.787   7.524  20.146  0.00  0.00    +0.009 A 
ATOM     19  C   UNL     1      19.210   6.903  21.382  0.00  0.00    +0.046 A 
ATOM     20  C   UNL     1      17.477   6.366  19.787  0.00  0.00    +0.046 A 
ATOM     21  C   UNL     1      18.688   6.056  20.406  0.00  0.00    +0.120 A 
BRANCH  21   5
ATOM      5  O   UNL     1      19.360   4.926  20.056  0.00  0.00    -0.495 OA
ATOM     22  C   UNL     1      20.736   4.846  20.428  0.00  0.00    +0.277 C 
ENDBRANCH  21   5
ENDBRANCH  15  16
ENDBRANCH   7  15
ENDBRANCH  12  14
TORSDOF 9
ENDMDL
MODEL 6
REMARK VINA RESULT:      -5.9      2.368      3.390
REMARK  Name = 26744664
REMARK  10 active torsions:
REMARK  status: ('A' for Active; 'I' for Inactive)
REMARK    1  A    between atoms: O_2  and  C_8
REMARK    2  A    between atoms: O_3  and  C_10
REMARK    3  A    between atoms: O_5  and  C_21
REMARK    4  A    between atoms: O_5  and  C_22
REMARK    5  A    between atoms: N_6  and  C_13
REMARK    6  A    between atoms: N_7  and  C_15
REMARK    7  A    between atoms: C_9  and  C_12
REMARK    8  A    between atoms: C_11  and  C_13
REMARK    9  A    between atoms: C_12  and  C_14
REMARK   10  A    between atoms: C_15  and  C_16
REMARK                            x       y       z     vdW  Elec       q    Type
REMARK                         _______ _______ _______ _____ _____    ______ ____
ROOT
ATOM     12  C   UNL     1      14.482  10.283  17.863  0.00  0.00    +0.130 C 
ENDROOT
BRANCH  12   9
ATOM      1  O   UNL     1      12.664   9.262  19.088  0.00  0.00    -0.366 OA
ATOM      8  C   UNL     1      12.943   8.528  16.865  0.00  0.00    +0.175 C 
ATOM      9  C   UNL     1      13.071   9.727  17.788  0.00  0.00    +0.158 C 
ATOM     10  C   UNL     1      11.723   7.835  17.433  0.00  0.00    +0.175 C 
ATOM     11  C   UNL     1      11.915   8.035  18.933  0.00  0.00    +0.163 C 
BRANCH   8   2
ATOM      2  O   UNL     1      12.789   8.913  15.515  0.00  0.00    -0.387 OA
ATOM     23  H   UNL     1      12.331   9.771  15.507  0.00  0.00    +0.210 HD
ENDBRANCH   8   2
BRANCH  10   3
ATOM      3  O   UNL     1      10.536   8.522  17.043  0.00  0.00    -0.387 OA
ATOM     24  H   UNL     1      10.473   9.326  17.589  0.00  0.00    +0.210 HD
ENDBRANCH  10   3
BRANCH  11  13
ATOM     13  C   UNL     1      12.715   6.916  19.587  0.00  0.00    +0.112 C 
BRANCH  13   6
ATOM      6  N   UNL     1      11.845   6.026  20.345  0.00  0.00    -0.328 NA
ATOM     25  H   UNL     1      10.942   6.473  20.494  0.00  0.00    +0.118 HD
ATOM     26  H   UNL     1      12.244   5.873  21.271  0.00  0.00    +0.118 HD
ENDBRANCH  13   6
ENDBRANCH  11  13
ENDBRANCH  12   9
BRANCH  12  14
ATOM      4  O   UNL     1      15.182  11.180  19.998  0.00  0.00    -0.276 OA
ATOM      7  N   UNL     1      15.442   8.908  19.584  0.00  0.00    -0.311 N 
ATOM     14  C   UNL     1      15.066  10.204  19.262  0.00  0.00    +0.216 C 
ATOM     27  H   UNL     1      15.319   8.171  18.895  0.00  0.00    +0.149 HD
BRANCH   7  15
ATOM     15  C   UNL     1      16.028   8.549  20.854  0.00  0.00    +0.139 C 
BRANCH  15  16
ATOM     16  C   UNL     1      17.169   7.585  20.694  0.00  0.00    -0.030 A 
ATOM     17  C   UNL     1      17.100   6.574  19.735  0.00  0.00    +0.009 A 
ATOM     18  C   UNL     1      18.298   7.701  21.505  0.00  0.00    +0.009 A 
ATOM     19  C   UNL     1      18.159   5.679  19.587  0.00  0.00    +0.046 A 
ATOM     20  C   UNL     1      19.358   6.806  21.356  0.00  0.00    +0.046 A 
ATOM     21  C   UNL     1      19.287   5.796  20.398  0.00  0.00    +0.120 A 
BRANCH  21   5
ATOM      5  O   UNL     1      20.322   4.922  20.253  0.00  0.00    -0.495 OA
ATOM     22  C   UNL     1      21.621   5.389  20.613  0.00  0.00    +0.277 C 
ENDBRANCH  21   5
ENDBRANCH  15  16
ENDBRANCH   7  15
ENDBRANCH  12  14
TORSDOF 9
ENDMDL
MODEL 7
REMARK VINA RESULT:      -5.7     26.259     28.314
REMARK  Name = 26744664
REMARK  10 active torsions:
REMARK  status: ('A' for Active; 'I' for Inactive)
REMARK    1  A    between atoms: O_2  and  C_8
REMARK    2  A    between atoms: O_3  and  C_10
REMARK    3  A    between atoms: O_5  and  C_21
REMARK    4  A    between atoms: O_5  and  C_22
REMARK    5  A    between atoms: N_6  and  C_13
REMARK    6  A    between atoms: N_7  and  C_15
REMARK    7  A    between atoms: C_9  and  C_12
REMARK    8  A    between atoms: C_11  and  C_13
REMARK    9  A    between atoms: C_12  and  C_14
REMARK   10  A    between atoms: C_15  and  C_16
REMARK                            x       y       z     vdW  Elec       q    Type
REMARK                         _______ _______ _______ _____ _____    ______ ____
ROOT
ATOM     12  C   UNL     1      -3.183 -10.418  16.759  0.00  0.00    +0.130 C 
ENDROOT
BRANCH  12   9
ATOM      1  O   UNL     1      -5.509 -11.068  16.656  0.00  0.00    -0.366 OA
ATOM      8  C   UNL     1      -4.351 -11.708  18.607  0.00  0.00    +0.175 C 
ATOM      9  C   UNL     1      -4.209 -11.481  17.112  0.00  0.00    +0.158 C 
ATOM     10  C   UNL     1      -5.757 -12.264  18.698  0.00  0.00    +0.175 C 
ATOM     11  C   UNL     1      -6.493 -11.436  17.649  0.00  0.00    +0.163 C 
BRANCH   8   2
ATOM      2  O   UNL     1      -3.368 -12.590  19.105  0.00  0.00    -0.387 OA
ATOM     23  H   UNL     1      -3.701 -13.496  18.983  0.00  0.00    +0.210 HD
ENDBRANCH   8   2
BRANCH  10   3
ATOM      3  O   UNL     1      -5.778 -13.628  18.279  0.00  0.00    -0.387 OA
ATOM     24  H   UNL     1      -6.691 -13.948  18.380  0.00  0.00    +0.210 HD
ENDBRANCH  10   3
BRANCH  11  13
ATOM     13  C   UNL     1      -7.088 -10.152  18.213  0.00  0.00    +0.112 C 
BRANCH  13   6
ATOM      6  N   UNL     1      -7.448 -10.314  19.615  0.00  0.00    -0.328 NA
ATOM     25  H   UNL     1      -6.605 -10.435  20.175  0.00  0.00    +0.118 HD
ATOM     26  H   UNL     1      -7.991 -11.170  19.728  0.00  0.00    +0.118 HD
ENDBRANCH  13   6
ENDBRANCH  11  13
ENDBRANCH  12   9
BRANCH  12  14
ATOM      4  O   UNL     1      -1.237 -11.205  15.555  0.00  0.00    -0.276 OA
ATOM      7  N   UNL     1      -3.113 -10.533  14.360  0.00  0.00    -0.311 N 
ATOM     14  C   UNL     1      -2.384 -10.769  15.516  0.00  0.00    +0.216 C 
ATOM     27  H   UNL     1      -4.052 -10.153  14.435  0.00  0.00    +0.149 HD
BRANCH   7  15
ATOM     15  C   UNL     1      -2.593 -10.779  13.036  0.00  0.00    +0.139 C 
BRANCH  15  16
ATOM     16  C   UNL     1      -3.454 -10.165  11.969  0.00  0.00    -0.030 A 
ATOM     17  C   UNL     1      -2.885  -9.748  10.766  0.00  0.00    +0.009 A 
ATOM     18  C   UNL     1      -4.824 -10.013  12.182  0.00  0.00    +0.009 A 
ATOM     19  C   UNL     1      -3.685  -9.179   9.775  0.00  0.00    +0.046 A 
ATOM     20  C   UNL     1      -5.624  -9.444  11.191  0.00  0.00    +0.046 A 
ATOM     21  C   UNL     1      -5.054  -9.027   9.989  0.00  0.00    +0.120 A 
BRANCH  21   5
ATOM      5  O   UNL     1      -5.836  -8.472   9.022  0.00  0.00    -0.495 OA
ATOM     22  C   UNL     1      -7.239  -8.412   9.275  0.00  0.00    +0.277 C 
ENDBRANCH  21   5
ENDBRANCH  15  16
ENDBRANCH   7  15
ENDBRANCH  12  14
TORSDOF 9
ENDMDL
MODEL 8
REMARK VINA RESULT:      -5.6     31.644     32.728
REMARK  Name = 26744664
REMARK  10 active torsions:
REMARK  status: ('A' for Active; 'I' for Inactive)
REMARK    1  A    between atoms: O_2  and  C_8
REMARK    2  A    between atoms: O_3  and  C_10
REMARK    3  A    between atoms: O_5  and  C_21
REMARK    4  A    between atoms: O_5  and  C_22
REMARK    5  A    between atoms: N_6  and  C_13
REMARK    6  A    between atoms: N_7  and  C_15
REMARK    7  A    between atoms: C_9  and  C_12
REMARK    8  A    between atoms: C_11  and  C_13
REMARK    9  A    between atoms: C_12  and  C_14
REMARK   10  A    between atoms: C_15  and  C_16
REMARK                            x       y       z     vdW  Elec       q    Type
REMARK                         _______ _______ _______ _____ _____    ______ ____
ROOT
ATOM     12  C   UNL     1     -14.893   1.755  33.101  0.00  0.00    +0.130 C 
ENDROOT
BRANCH  12   9
ATOM      1  O   UNL     1     -13.831   1.931  30.937  0.00  0.00    -0.366 OA
ATOM      8  C   UNL     1     -15.183   0.028  31.264  0.00  0.00    +0.175 C 
ATOM      9  C   UNL     1     -14.243   1.001  31.954  0.00  0.00    +0.158 C 
ATOM     10  C   UNL     1     -14.555  -0.080  29.891  0.00  0.00    +0.175 C 
ATOM     11  C   UNL     1     -14.098   1.353  29.638  0.00  0.00    +0.163 C 
BRANCH   8   2
ATOM      2  O   UNL     1     -15.257  -1.208  31.943  0.00  0.00    -0.387 OA
ATOM     23  H   UNL     1     -15.577  -1.871  31.307  0.00  0.00    +0.210 HD
ENDBRANCH   8   2
BRANCH  10   3
ATOM      3  O   UNL     1     -13.396  -0.911  29.940  0.00  0.00    -0.387 OA
ATOM     24  H   UNL     1     -13.537  -1.643  29.313  0.00  0.00    +0.210 HD
ENDBRANCH  10   3
BRANCH  11  13
ATOM     13  C   UNL     1     -15.161   2.207  28.959  0.00  0.00    +0.112 C 
BRANCH  13   6
ATOM      6  N   UNL     1     -14.840   3.624  29.065  0.00  0.00    -0.328 NA
ATOM     25  H   UNL     1     -15.593   4.179  28.662  0.00  0.00    +0.118 HD
ATOM     26  H   UNL     1     -14.009   3.824  28.509  0.00  0.00    +0.118 HD
ENDBRANCH  13   6
ENDBRANCH  11  13
ENDBRANCH  12   9
BRANCH  12  14
ATOM      4  O   UNL     1     -16.523   3.387  32.372  0.00  0.00    -0.276 OA
ATOM      7  N   UNL     1     -14.330   4.063  32.738  0.00  0.00    -0.311 N 
ATOM     14  C   UNL     1     -15.365   3.140  32.695  0.00  0.00    +0.216 C 
ATOM     27  H   UNL     1     -13.400   3.752  33.003  0.00  0.00    +0.149 HD
BRANCH   7  15
ATOM     15  C   UNL     1     -14.501   5.456  32.398  0.00  0.00    +0.139 C 
BRANCH  15  16
ATOM     16  C   UNL     1     -13.839   6.364  33.393  0.00  0.00    -0.030 A 
ATOM     17  C   UNL     1     -13.220   7.538  32.963  0.00  0.00    +0.009 A 
ATOM     18  C   UNL     1     -13.844   6.034  34.748  0.00  0.00    +0.009 A 
ATOM     19  C   UNL     1     -12.606   8.382  33.889  0.00  0.00    +0.046 A 
ATOM     20  C   UNL     1     -13.229   6.878  35.674  0.00  0.00    +0.046 A 
ATOM     21  C   UNL     1     -12.610   8.051  35.243  0.00  0.00    +0.120 A 
BRANCH  21   5
ATOM      5  O   UNL     1     -12.011   8.875  36.146  0.00  0.00    -0.495 OA
ATOM     22  C   UNL     1     -11.023   8.297  36.998  0.00  0.00    +0.277 C 
ENDBRANCH  21   5
ENDBRANCH  15  16
ENDBRANCH   7  15
ENDBRANCH  12  14
TORSDOF 9
ENDMDL
MODEL 9
REMARK VINA RESULT:      -5.6     30.542     32.220
REMARK  Name = 26744664
REMARK  10 active torsions:
REMARK  status: ('A' for Active; 'I' for Inactive)
REMARK    1  A    between atoms: O_2  and  C_8
REMARK    2  A    between atoms: O_3  and  C_10
REMARK    3  A    between atoms: O_5  and  C_21
REMARK    4  A    between atoms: O_5  and  C_22
REMARK    5  A    between atoms: N_6  and  C_13
REMARK    6  A    between atoms: N_7  and  C_15
REMARK    7  A    between atoms: C_9  and  C_12
REMARK    8  A    between atoms: C_11  and  C_13
REMARK    9  A    between atoms: C_12  and  C_14
REMARK   10  A    between atoms: C_15  and  C_16
REMARK                            x       y       z     vdW  Elec       q    Type
REMARK                         _______ _______ _______ _____ _____    ______ ____
ROOT
ATOM     12  C   UNL     1     -14.003   5.237  32.439  0.00  0.00    +0.130 C 
ENDROOT
BRANCH  12   9
ATOM      1  O   UNL     1     -13.108   2.991  32.410  0.00  0.00    -0.366 OA
ATOM      8  C   UNL     1     -15.400   3.176  32.931  0.00  0.00    +0.175 C 
ATOM      9  C   UNL     1     -14.049   3.857  33.069  0.00  0.00    +0.158 C 
ATOM     10  C   UNL     1     -15.016   1.715  33.034  0.00  0.00    +0.175 C 
ATOM     11  C   UNL     1     -13.697   1.678  32.269  0.00  0.00    +0.163 C 
BRANCH   8   2
ATOM      2  O   UNL     1     -16.306   3.587  33.932  0.00  0.00    -0.387 OA
ATOM     23  H   UNL     1     -16.964   4.166  33.510  0.00  0.00    +0.210 HD
ENDBRANCH   8   2
BRANCH  10   3
ATOM      3  O   UNL     1     -14.749   1.368  34.392  0.00  0.00    -0.387 OA
ATOM     24  H   UNL     1     -15.564   0.984  34.760  0.00  0.00    +0.210 HD
ENDBRANCH  10   3
BRANCH  11  13
ATOM     13  C   UNL     1     -13.879   1.407  30.781  0.00  0.00    +0.112 C 
BRANCH  13   6
ATOM      6  N   UNL     1     -13.050   2.300  29.982  0.00  0.00    -0.328 NA
ATOM     25  H   UNL     1     -12.284   2.658  30.550  0.00  0.00    +0.118 HD
ATOM     26  H   UNL     1     -13.601   3.110  29.701  0.00  0.00    +0.118 HD
ENDBRANCH  13   6
ENDBRANCH  11  13
ENDBRANCH  12   9
BRANCH  12  14
ATOM      4  O   UNL     1     -15.108   6.285  34.319  0.00  0.00    -0.276 OA
ATOM      7  N   UNL     1     -13.382   7.413  33.247  0.00  0.00    -0.311 N 
ATOM     14  C   UNL     1     -14.246   6.346  33.446  0.00  0.00    +0.216 C 
ATOM     27  H   UNL     1     -12.715   7.374  32.482  0.00  0.00    +0.149 HD
BRANCH   7  15
ATOM     15  C   UNL     1     -13.398   8.604  34.063  0.00  0.00    +0.139 C 
BRANCH  15  16
ATOM     16  C   UNL     1     -12.304   8.596  35.092  0.00  0.00    -0.030 A 
ATOM     17  C   UNL     1     -12.375   7.727  36.180  0.00  0.00    +0.009 A 
ATOM     18  C   UNL     1     -11.215   9.457  34.958  0.00  0.00    +0.009 A 
ATOM     19  C   UNL     1     -11.358   7.719  37.135  0.00  0.00    +0.046 A 
ATOM     20  C   UNL     1     -10.198   9.449  35.912  0.00  0.00    +0.046 A 
ATOM     21  C   UNL     1     -10.271   8.580  37.000  0.00  0.00    +0.120 A 
BRANCH  21   5
ATOM      5  O   UNL     1      -9.277   8.572  37.932  0.00  0.00    -0.495 OA
ATOM     22  C   UNL     1      -9.649   8.268  39.275  0.00  0.00    +0.277 C 
ENDBRANCH  21   5
ENDBRANCH  15  16
ENDBRANCH   7  15
ENDBRANCH  12  14
TORSDOF 9
ENDMDL
MODEL 10
REMARK VINA RESULT:      -5.5     16.867     19.496
REMARK  Name = 26744664
REMARK  10 active torsions:
REMARK  status: ('A' for Active; 'I' for Inactive)
REMARK    1  A    between atoms: O_2  and  C_8
REMARK    2  A    between atoms: O_3  and  C_10
REMARK    3  A    between atoms: O_5  and  C_21
REMARK    4  A    between atoms: O_5  and  C_22
REMARK    5  A    between atoms: N_6  and  C_13
REMARK    6  A    between atoms: N_7  and  C_15
REMARK    7  A    between atoms: C_9  and  C_12
REMARK    8  A    between atoms: C_11  and  C_13
REMARK    9  A    between atoms: C_12  and  C_14
REMARK   10  A    between atoms: C_15  and  C_16
REMARK                            x       y       z     vdW  Elec       q    Type
REMARK                         _______ _______ _______ _____ _____    ______ ____
ROOT
ATOM     12  C   UNL     1      10.055   5.207   4.481  0.00  0.00    +0.130 C 
ENDROOT
BRANCH  12   9
ATOM      1  O   UNL     1      10.665   5.976   6.690  0.00  0.00    -0.366 OA
ATOM      8  C   UNL     1       8.476   6.501   5.990  0.00  0.00    +0.175 C 
ATOM      9  C   UNL     1       9.906   6.310   5.515  0.00  0.00    +0.158 C 
ATOM     10  C   UNL     1       8.690   7.124   7.353  0.00  0.00    +0.175 C 
ATOM     11  C   UNL     1       9.911   6.365   7.861  0.00  0.00    +0.163 C 
BRANCH   8   2
ATOM      2  O   UNL     1       7.731   7.318   5.113  0.00  0.00    -0.387 OA
ATOM     23  H   UNL     1       6.814   7.335   5.437  0.00  0.00    +0.210 HD
ENDBRANCH   8   2
BRANCH  10   3
ATOM      3  O   UNL     1       9.047   8.499   7.219  0.00  0.00    -0.387 OA
ATOM     24  H   UNL     1       9.635   8.572   6.446  0.00  0.00    +0.210 HD
ENDBRANCH  10   3
BRANCH  11  13
ATOM     13  C   UNL     1       9.550   5.097   8.624  0.00  0.00    +0.112 C 
BRANCH  13   6
ATOM      6  N   UNL     1      10.388   3.980   8.208  0.00  0.00    -0.328 NA
ATOM     25  H   UNL     1       9.809   3.254   7.788  0.00  0.00    +0.118 HD
ATOM     26  H   UNL     1      10.823   3.560   9.029  0.00  0.00    +0.118 HD
ENDBRANCH  13   6
ENDBRANCH  11  13
ENDBRANCH  12   9
BRANCH  12  14
ATOM      4  O   UNL     1      12.006   6.378   3.658  0.00  0.00    -0.276 OA
ATOM      7  N   UNL     1      11.517   4.265   2.822  0.00  0.00    -0.311 N 
ATOM     14  C   UNL     1      11.298   5.375   3.626  0.00  0.00    +0.216 C 
ATOM     27  H   UNL     1      10.859   3.491   2.857  0.00  0.00    +0.149 HD
BRANCH   7  15
ATOM     15  C   UNL     1      12.629   4.160   1.907  0.00  0.00    +0.139 C 
BRANCH  15  16
ATOM     16  C   UNL     1      12.175   3.996   0.485  0.00  0.00    -0.030 A 
ATOM     17  C   UNL     1      12.880   3.161  -0.381  0.00  0.00    +0.009 A 
ATOM     18  C   UNL     1      11.047   4.679   0.031  0.00  0.00    +0.009 A 
ATOM     19  C   UNL     1      12.458   3.008  -1.701  0.00  0.00    +0.046 A 
ATOM     20  C   UNL     1      10.624   4.526  -1.290  0.00  0.00    +0.046 A 
ATOM     21  C   UNL     1      11.330   3.691  -2.155  0.00  0.00    +0.120 A 
BRANCH  21   5
ATOM      5  O   UNL     1      10.918   3.542  -3.444  0.00  0.00    -0.495 OA
ATOM     22  C   UNL     1       9.818   2.662  -3.676  0.00  0.00    +0.277 C 
ENDBRANCH  21   5
ENDBRANCH  15  16
ENDBRANCH   7  15
ENDBRANCH  12  14
TORSDOF 9
ENDMDL
