MODEL 1
REMARK VINA RESULT:      -7.2      0.000      0.000
REMARK  Name = 7142825
REMARK  2 active torsions:
REMARK  status: ('A' for Active; 'I' for Inactive)
REMARK    1  A    between atoms: N_7  and  C_19
REMARK    2  A    between atoms: C_23  and  C_25
REMARK                            x       y       z     vdW  Elec       q    Type
REMARK                         _______ _______ _______ _____ _____    ______ ____
ROOT
ATOM      1  O   UNL     1     -10.568  -9.656  14.251  0.00  0.00    -0.266 OA
ATOM      3  N   UNL     1     -13.164  -6.008  11.956  0.00  0.00    -0.299 N 
ATOM      4  N   UNL     1     -12.150  -7.936  14.299  0.00  0.00    -0.310 N 
ATOM      5  N   UNL     1     -12.100  -4.096  11.074  0.00  0.00    -0.223 NA
ATOM      6  N   UNL     1     -12.038  -6.194   9.891  0.00  0.00    -0.223 NA
ATOM      9  C   UNL     1     -14.307  -7.997  12.922  0.00  0.00    +0.027 C 
ATOM     10  C   UNL     1     -13.825  -6.056  14.343  0.00  0.00    +0.054 C 
ATOM     11  C   UNL     1     -14.876  -7.112  14.021  0.00  0.00    +0.018 C 
ATOM     12  C   UNL     1     -14.002  -7.173  11.655  0.00  0.00    +0.113 C 
ATOM     13  C   UNL     1     -13.063  -8.718  13.458  0.00  0.00    +0.130 C 
ATOM     14  C   UNL     1     -13.574  -5.180  13.100  0.00  0.00    +0.117 C 
ATOM     15  C   UNL     1     -12.524  -6.687  14.803  0.00  0.00    +0.027 A 
ATOM     16  C   UNL     1     -11.724  -6.040  15.667  0.00  0.00    +0.024 A 
ATOM     17  C   UNL     1     -10.932  -8.550  14.655  0.00  0.00    +0.273 A 
ATOM     18  C   UNL     1     -12.410  -5.413  10.941  0.00  0.00    +0.218 A 
ATOM     19  C   UNL     1     -10.057  -7.785  15.598  0.00  0.00    +0.099 A 
ATOM     20  C   UNL     1     -10.465  -6.601  16.069  0.00  0.00    +0.030 A 
ATOM     21  C   UNL     1     -11.371  -3.554  10.078  0.00  0.00    +0.116 A 
ATOM     22  C   UNL     1     -11.310  -5.587   8.930  0.00  0.00    +0.116 A 
ATOM     24  C   UNL     1     -10.944  -4.257   8.970  0.00  0.00    +0.039 A 
ENDROOT
BRANCH  19   7
ATOM      2  O   UNL     1      -9.567  -9.384  17.910  0.00  0.00    -0.270 OA
ATOM      7  N   UNL     1      -8.863  -8.338  15.956  0.00  0.00    -0.277 N 
ATOM     23  C   UNL     1      -8.688  -9.109  17.097  0.00  0.00    +0.248 C 
ATOM     30  H   UNL     1      -8.064  -8.028  15.414  0.00  0.00    +0.155 HD
BRANCH  23  25
ATOM      8  N   UNL     1      -4.772 -10.644  17.700  0.00  0.00    -0.263 NA
ATOM     25  C   UNL     1      -7.319  -9.646  17.308  0.00  0.00    +0.040 A 
ATOM     26  C   UNL     1      -7.009 -10.228  18.514  0.00  0.00    +0.033 A 
ATOM     27  C   UNL     1      -6.400  -9.545  16.291  0.00  0.00    +0.033 A 
ATOM     28  C   UNL     1      -5.720 -10.713  18.661  0.00  0.00    +0.111 A 
ATOM     29  C   UNL     1      -5.137 -10.060  16.537  0.00  0.00    +0.111 A 
ENDBRANCH  23  25
ENDBRANCH  19   7
TORSDOF 2
ENDMDL
MODEL 2
REMARK VINA RESULT:      -7.1     28.962     31.619
REMARK  Name = 7142825
REMARK  2 active torsions:
REMARK  status: ('A' for Active; 'I' for Inactive)
REMARK    1  A    between atoms: N_7  and  C_19
REMARK    2  A    between atoms: C_23  and  C_25
REMARK                            x       y       z     vdW  Elec       q    Type
REMARK                         _______ _______ _______ _____ _____    ______ ____
ROOT
ATOM      1  O   UNL     1      13.352  11.666  18.579  0.00  0.00    -0.266 OA
ATOM      3  N   UNL     1      14.964   7.624  21.104  0.00  0.00    -0.299 N 
ATOM      4  N   UNL     1      13.016   9.503  19.397  0.00  0.00    -0.310 N 
ATOM      5  N   UNL     1      16.784   6.332  20.342  0.00  0.00    -0.223 NA
ATOM      6  N   UNL     1      17.151   8.436  21.457  0.00  0.00    -0.223 NA
ATOM      9  C   UNL     1      13.012   8.950  21.896  0.00  0.00    +0.027 C 
ATOM     10  C   UNL     1      12.684   7.158  20.253  0.00  0.00    +0.054 C 
ATOM     11  C   UNL     1      12.096   7.801  21.505  0.00  0.00    +0.018 C 
ATOM     12  C   UNL     1      14.434   8.441  22.201  0.00  0.00    +0.113 C 
ATOM     13  C   UNL     1      12.999  10.001  20.777  0.00  0.00    +0.130 C 
ATOM     14  C   UNL     1      14.076   6.578  20.575  0.00  0.00    +0.117 C 
ATOM     15  C   UNL     1      12.789   8.154  19.113  0.00  0.00    +0.027 A 
ATOM     16  C   UNL     1      12.690   7.739  17.839  0.00  0.00    +0.024 A 
ATOM     17  C   UNL     1      13.168  10.465  18.378  0.00  0.00    +0.273 A 
ATOM     18  C   UNL     1      16.344   7.458  20.964  0.00  0.00    +0.218 A 
ATOM     19  C   UNL     1      13.078   9.958  16.972  0.00  0.00    +0.099 A 
ATOM     20  C   UNL     1      12.840   8.661  16.748  0.00  0.00    +0.030 A 
ATOM     21  C   UNL     1      18.121   6.203  20.223  0.00  0.00    +0.116 A 
ATOM     22  C   UNL     1      18.478   8.243  21.304  0.00  0.00    +0.116 A 
ATOM     24  C   UNL     1      19.026   7.135  20.690  0.00  0.00    +0.039 A 
ENDROOT
BRANCH  19   7
ATOM      2  O   UNL     1      15.417  10.307  15.376  0.00  0.00    -0.270 OA
ATOM      7  N   UNL     1      13.233  10.855  15.956  0.00  0.00    -0.277 N 
ATOM     23  C   UNL     1      14.400  10.977  15.215  0.00  0.00    +0.248 C 
ATOM     30  H   UNL     1      12.491  11.541  15.868  0.00  0.00    +0.155 HD
BRANCH  23  25
ATOM      8  N   UNL     1      14.323  13.888  12.121  0.00  0.00    -0.263 NA
ATOM     25  C   UNL     1      14.373  11.995  14.134  0.00  0.00    +0.040 A 
ATOM     26  C   UNL     1      13.161  12.483  13.708  0.00  0.00    +0.033 A 
ATOM     27  C   UNL     1      15.562  12.419  13.588  0.00  0.00    +0.033 A 
ATOM     28  C   UNL     1      13.189  13.431  12.698  0.00  0.00    +0.111 A 
ATOM     29  C   UNL     1      15.483  13.369  12.582  0.00  0.00    +0.111 A 
ENDBRANCH  23  25
ENDBRANCH  19   7
TORSDOF 2
ENDMDL
MODEL 3
REMARK VINA RESULT:      -7.0     15.486     17.062
REMARK  Name = 7142825
REMARK  2 active torsions:
REMARK  status: ('A' for Active; 'I' for Inactive)
REMARK    1  A    between atoms: N_7  and  C_19
REMARK    2  A    between atoms: C_23  and  C_25
REMARK                            x       y       z     vdW  Elec       q    Type
REMARK                         _______ _______ _______ _____ _____    ______ ____
ROOT
ATOM      1  O   UNL     1     -15.023   8.352  19.956  0.00  0.00    -0.266 OA
ATOM      3  N   UNL     1     -11.439   9.667  16.679  0.00  0.00    -0.299 N 
ATOM      4  N   UNL     1     -12.891   9.186  19.489  0.00  0.00    -0.310 N 
ATOM      5  N   UNL     1     -10.390   8.078  15.286  0.00  0.00    -0.223 NA
ATOM      6  N   UNL     1     -12.592   8.906  14.765  0.00  0.00    -0.223 NA
ATOM      9  C   UNL     1     -12.505  11.348  18.174  0.00  0.00    +0.027 C 
ATOM     10  C   UNL     1     -10.582  10.048  18.971  0.00  0.00    +0.054 C 
ATOM     11  C   UNL     1     -11.207  11.440  18.964  0.00  0.00    +0.018 C 
ATOM     12  C   UNL     1     -12.236  10.898  16.725  0.00  0.00    +0.113 C 
ATOM     13  C   UNL     1     -13.467  10.403  18.906  0.00  0.00    +0.130 C 
ATOM     14  C   UNL     1     -10.240   9.627  17.528  0.00  0.00    +0.117 C 
ATOM     15  C   UNL     1     -11.507   9.026  19.604  0.00  0.00    +0.027 A 
ATOM     16  C   UNL     1     -11.002   7.960  20.248  0.00  0.00    +0.024 A 
ATOM     17  C   UNL     1     -13.798   8.245  20.017  0.00  0.00    +0.273 A 
ATOM     18  C   UNL     1     -11.474   8.859  15.540  0.00  0.00    +0.218 A 
ATOM     19  C   UNL     1     -13.195   7.059  20.703  0.00  0.00    +0.099 A 
ATOM     20  C   UNL     1     -11.865   6.957  20.806  0.00  0.00    +0.030 A 
ATOM     21  C   UNL     1     -10.457   7.310  14.180  0.00  0.00    +0.116 A 
ATOM     22  C   UNL     1     -12.592   8.112  13.674  0.00  0.00    +0.116 A 
ATOM     24  C   UNL     1     -11.543   7.285  13.328  0.00  0.00    +0.039 A 
ENDROOT
BRANCH  19   7
ATOM      2  O   UNL     1     -14.582   7.215  23.191  0.00  0.00    -0.270 OA
ATOM      7  N   UNL     1     -14.038   6.117  21.215  0.00  0.00    -0.277 N 
ATOM     23  C   UNL     1     -14.686   6.252  22.435  0.00  0.00    +0.248 C 
ATOM     30  H   UNL     1     -14.052   5.234  20.717  0.00  0.00    +0.155 HD
BRANCH  23  25
ATOM      8  N   UNL     1     -17.255   3.048  23.523  0.00  0.00    -0.263 NA
ATOM     25  C   UNL     1     -15.584   5.132  22.815  0.00  0.00    +0.040 A 
ATOM     26  C   UNL     1     -16.762   4.960  22.128  0.00  0.00    +0.033 A 
ATOM     27  C   UNL     1     -15.212   4.299  23.844  0.00  0.00    +0.033 A 
ATOM     28  C   UNL     1     -17.565   3.901  22.521  0.00  0.00    +0.111 A 
ATOM     29  C   UNL     1     -16.084   3.270  24.160  0.00  0.00    +0.111 A 
ENDBRANCH  23  25
ENDBRANCH  19   7
TORSDOF 2
ENDMDL
MODEL 4
REMARK VINA RESULT:      -6.9      6.024      9.935
REMARK  Name = 7142825
REMARK  2 active torsions:
REMARK  status: ('A' for Active; 'I' for Inactive)
REMARK    1  A    between atoms: N_7  and  C_19
REMARK    2  A    between atoms: C_23  and  C_25
REMARK                            x       y       z     vdW  Elec       q    Type
REMARK                         _______ _______ _______ _____ _____    ______ ____
ROOT
ATOM      1  O   UNL     1      -6.630 -10.182  14.246  0.00  0.00    -0.266 OA
ATOM      3  N   UNL     1      -2.643 -13.078  13.228  0.00  0.00    -0.299 N 
ATOM      4  N   UNL     1      -4.321 -10.538  14.215  0.00  0.00    -0.310 N 
ATOM      5  N   UNL     1      -2.264 -15.109  14.366  0.00  0.00    -0.223 NA
ATOM      6  N   UNL     1      -3.897 -14.975  12.599  0.00  0.00    -0.223 NA
ATOM      9  C   UNL     1      -3.005 -10.915  12.051  0.00  0.00    +0.027 C 
ATOM     10  C   UNL     1      -1.836 -10.951  14.208  0.00  0.00    +0.054 C 
ATOM     11  C   UNL     1      -1.832 -10.323  12.818  0.00  0.00    +0.018 C 
ATOM     12  C   UNL     1      -2.864 -12.444  11.924  0.00  0.00    +0.113 C 
ATOM     13  C   UNL     1      -4.311 -10.508  12.747  0.00  0.00    +0.130 C 
ATOM     14  C   UNL     1      -1.617 -12.472  14.089  0.00  0.00    +0.117 C 
ATOM     15  C   UNL     1      -3.135 -10.670  14.942  0.00  0.00    +0.027 A 
ATOM     16  C   UNL     1      -3.150 -10.575  16.282  0.00  0.00    +0.024 A 
ATOM     17  C   UNL     1      -5.563 -10.322  14.845  0.00  0.00    +0.273 A 
ATOM     18  C   UNL     1      -2.944 -14.431  13.403  0.00  0.00    +0.218 A 
ATOM     19  C   UNL     1      -5.541 -10.250  16.341  0.00  0.00    +0.099 A 
ATOM     20  C   UNL     1      -4.379 -10.363  16.993  0.00  0.00    +0.030 A 
ATOM     21  C   UNL     1      -2.579 -16.413  14.509  0.00  0.00    +0.116 A 
ATOM     22  C   UNL     1      -4.162 -16.284  12.796  0.00  0.00    +0.116 A 
ATOM     24  C   UNL     1      -3.528 -17.060  13.745  0.00  0.00    +0.039 A 
ENDROOT
BRANCH  19   7
ATOM      2  O   UNL     1      -7.162 -12.277  17.526  0.00  0.00    -0.270 OA
ATOM      7  N   UNL     1      -6.725 -10.057  16.990  0.00  0.00    -0.277 N 
ATOM     23  C   UNL     1      -7.469 -11.088  17.547  0.00  0.00    +0.248 C 
ATOM     30  H   UNL     1      -7.112  -9.122  16.913  0.00  0.00    +0.155 HD
BRANCH  23  25
ATOM      8  N   UNL     1     -11.050  -9.921  19.513  0.00  0.00    -0.263 NA
ATOM     25  C   UNL     1      -8.721 -10.680  18.234  0.00  0.00    +0.040 A 
ATOM     26  C   UNL     1      -8.984 -11.175  19.489  0.00  0.00    +0.033 A 
ATOM     27  C   UNL     1      -9.581  -9.818  17.596  0.00  0.00    +0.033 A 
ATOM     28  C   UNL     1     -10.164 -10.764  20.088  0.00  0.00    +0.111 A 
ATOM     29  C   UNL     1     -10.735  -9.468  18.279  0.00  0.00    +0.111 A 
ENDBRANCH  23  25
ENDBRANCH  19   7
TORSDOF 2
ENDMDL
MODEL 5
REMARK VINA RESULT:      -6.7      6.245     11.056
REMARK  Name = 7142825
REMARK  2 active torsions:
REMARK  status: ('A' for Active; 'I' for Inactive)
REMARK    1  A    between atoms: N_7  and  C_19
REMARK    2  A    between atoms: C_23  and  C_25
REMARK                            x       y       z     vdW  Elec       q    Type
REMARK                         _______ _______ _______ _____ _____    ______ ____
ROOT
ATOM      1  O   UNL     1      -4.952 -12.644  10.090  0.00  0.00    -0.266 OA
ATOM      3  N   UNL     1      -3.476 -12.440  14.895  0.00  0.00    -0.299 N 
ATOM      4  N   UNL     1      -3.279 -12.400  11.702  0.00  0.00    -0.310 N 
ATOM      5  N   UNL     1      -4.182 -10.710  16.336  0.00  0.00    -0.223 NA
ATOM      6  N   UNL     1      -5.650 -12.545  15.804  0.00  0.00    -0.223 NA
ATOM      9  C   UNL     1      -2.685 -14.245  13.375  0.00  0.00    +0.027 C 
ATOM     10  C   UNL     1      -1.491 -12.102  13.451  0.00  0.00    +0.054 C 
ATOM     11  C   UNL     1      -1.300 -13.613  13.377  0.00  0.00    +0.018 C 
ATOM     12  C   UNL     1      -3.454 -13.887  14.661  0.00  0.00    +0.113 C 
ATOM     13  C   UNL     1      -3.432 -13.801  12.110  0.00  0.00    +0.130 C 
ATOM     14  C   UNL     1      -2.192 -11.734  14.774  0.00  0.00    +0.117 C 
ATOM     15  C   UNL     1      -2.299 -11.585  12.276  0.00  0.00    +0.027 A 
ATOM     16  C   UNL     1      -2.095 -10.342  11.806  0.00  0.00    +0.024 A 
ATOM     17  C   UNL     1      -4.090 -11.957  10.638  0.00  0.00    +0.273 A 
ATOM     18  C   UNL     1      -4.468 -11.881  15.705  0.00  0.00    +0.218 A 
ATOM     19  C   UNL     1      -3.849 -10.557  10.162  0.00  0.00    +0.099 A 
ATOM     20  C   UNL     1      -2.888  -9.820  10.729  0.00  0.00    +0.030 A 
ATOM     21  C   UNL     1      -5.161 -10.198  17.109  0.00  0.00    +0.116 A 
ATOM     22  C   UNL     1      -6.586 -11.977  16.594  0.00  0.00    +0.116 A 
ATOM     24  C   UNL     1      -6.395 -10.793  17.278  0.00  0.00    +0.039 A 
ENDROOT
BRANCH  19   7
ATOM      2  O   UNL     1      -6.373  -9.254  10.432  0.00  0.00    -0.270 OA
ATOM      7  N   UNL     1      -4.624 -10.085   9.144  0.00  0.00    -0.277 N 
ATOM     23  C   UNL     1      -5.847  -9.458   9.341  0.00  0.00    +0.248 C 
ATOM     30  H   UNL     1      -4.324 -10.353   8.213  0.00  0.00    +0.155 HD
BRANCH  23  25
ATOM      8  N   UNL     1      -7.818  -8.119   5.823  0.00  0.00    -0.263 NA
ATOM     25  C   UNL     1      -6.535  -8.989   8.111  0.00  0.00    +0.040 A 
ATOM     26  C   UNL     1      -7.454  -7.971   8.208  0.00  0.00    +0.033 A 
ATOM     27  C   UNL     1      -6.236  -9.589   6.911  0.00  0.00    +0.033 A 
ATOM     28  C   UNL     1      -8.068  -7.571   7.033  0.00  0.00    +0.111 A 
ATOM     29  C   UNL     1      -6.905  -9.116   5.793  0.00  0.00    +0.111 A 
ENDBRANCH  23  25
ENDBRANCH  19   7
TORSDOF 2
ENDMDL
MODEL 6
REMARK VINA RESULT:      -6.7     16.886     20.836
REMARK  Name = 7142825
REMARK  2 active torsions:
REMARK  status: ('A' for Active; 'I' for Inactive)
REMARK    1  A    between atoms: N_7  and  C_19
REMARK    2  A    between atoms: C_23  and  C_25
REMARK                            x       y       z     vdW  Elec       q    Type
REMARK                         _______ _______ _______ _____ _____    ______ ____
ROOT
ATOM      1  O   UNL     1      -6.910   9.552   4.874  0.00  0.00    -0.266 OA
ATOM      3  N   UNL     1      -2.008  10.356   4.074  0.00  0.00    -0.299 N 
ATOM      4  N   UNL     1      -4.667   9.193   5.421  0.00  0.00    -0.310 N 
ATOM      5  N   UNL     1      -0.943   9.644   2.093  0.00  0.00    -0.223 NA
ATOM      6  N   UNL     1      -2.306  11.630   2.110  0.00  0.00    -0.223 NA
ATOM      9  C   UNL     1      -3.108  11.073   6.188  0.00  0.00    +0.027 C 
ATOM     10  C   UNL     1      -2.244   8.786   5.975  0.00  0.00    +0.054 C 
ATOM     11  C   UNL     1      -2.362   9.972   6.927  0.00  0.00    +0.018 C 
ATOM     12  C   UNL     1      -2.341  11.504   4.924  0.00  0.00    +0.113 C 
ATOM     13  C   UNL     1      -4.527  10.584   5.868  0.00  0.00    +0.130 C 
ATOM     14  C   UNL     1      -1.410   9.192   4.744  0.00  0.00    +0.117 C 
ATOM     15  C   UNL     1      -3.608   8.288   5.536  0.00  0.00    +0.027 A 
ATOM     16  C   UNL     1      -3.792   6.991   5.233  0.00  0.00    +0.024 A 
ATOM     17  C   UNL     1      -5.943   8.796   4.974  0.00  0.00    +0.273 A 
ATOM     18  C   UNL     1      -1.743  10.550   2.715  0.00  0.00    +0.218 A 
ATOM     19  C   UNL     1      -6.099   7.349   4.622  0.00  0.00    +0.099 A 
ATOM     20  C   UNL     1      -5.063   6.515   4.765  0.00  0.00    +0.030 A 
ATOM     21  C   UNL     1      -0.708   9.860   0.783  0.00  0.00    +0.116 A 
ATOM     22  C   UNL     1      -2.029  11.786   0.799  0.00  0.00    +0.116 A 
ATOM     24  C   UNL     1      -1.229  10.924   0.076  0.00  0.00    +0.039 A 
ENDROOT
BRANCH  19   7
ATOM      2  O   UNL     1      -8.111   6.046   6.171  0.00  0.00    -0.270 OA
ATOM      7  N   UNL     1      -7.315   6.927   4.171  0.00  0.00    -0.277 N 
ATOM     23  C   UNL     1      -8.254   6.297   4.977  0.00  0.00    +0.248 C 
ATOM     30  H   UNL     1      -7.440   6.965   3.165  0.00  0.00    +0.155 HD
BRANCH  23  25
ATOM      8  N   UNL     1     -11.907   5.250   3.077  0.00  0.00    -0.263 NA
ATOM     25  C   UNL     1      -9.531   5.931   4.313  0.00  0.00    +0.040 A 
ATOM     26  C   UNL     1      -9.531   5.678   2.961  0.00  0.00    +0.033 A 
ATOM     27  C   UNL     1     -10.677   5.856   5.068  0.00  0.00    +0.033 A 
ATOM     28  C   UNL     1     -10.747   5.340   2.389  0.00  0.00    +0.111 A 
ATOM     29  C   UNL     1     -11.842   5.511   4.401  0.00  0.00    +0.111 A 
ENDBRANCH  23  25
ENDBRANCH  19   7
TORSDOF 2
ENDMDL
MODEL 7
REMARK VINA RESULT:      -6.6     26.079     28.675
REMARK  Name = 7142825
REMARK  2 active torsions:
REMARK  status: ('A' for Active; 'I' for Inactive)
REMARK    1  A    between atoms: N_7  and  C_19
REMARK    2  A    between atoms: C_23  and  C_25
REMARK                            x       y       z     vdW  Elec       q    Type
REMARK                         _______ _______ _______ _____ _____    ______ ____
ROOT
ATOM      1  O   UNL     1      10.286   4.608   2.739  0.00  0.00    -0.266 OA
ATOM      3  N   UNL     1       9.363   8.255   6.080  0.00  0.00    -0.299 N 
ATOM      4  N   UNL     1      10.879   5.834   4.638  0.00  0.00    -0.310 N 
ATOM      5  N   UNL     1       9.314  10.529   5.451  0.00  0.00    -0.223 NA
ATOM      6  N   UNL     1       7.443   9.083   4.986  0.00  0.00    -0.223 NA
ATOM      9  C   UNL     1       9.458   5.865   6.767  0.00  0.00    +0.027 C 
ATOM     10  C   UNL     1      11.521   7.188   6.662  0.00  0.00    +0.054 C 
ATOM     11  C   UNL     1      10.773   6.142   7.481  0.00  0.00    +0.018 C 
ATOM     12  C   UNL     1       8.606   7.145   6.667  0.00  0.00    +0.113 C 
ATOM     13  C   UNL     1       9.757   5.258   5.390  0.00  0.00    +0.130 C 
ATOM     14  C   UNL     1      10.707   8.496   6.625  0.00  0.00    +0.117 C 
ATOM     15  C   UNL     1      11.787   6.703   5.249  0.00  0.00    +0.027 A 
ATOM     16  C   UNL     1      12.873   7.125   4.580  0.00  0.00    +0.024 A 
ATOM     17  C   UNL     1      11.049   5.387   3.313  0.00  0.00    +0.273 A 
ATOM     18  C   UNL     1       8.685   9.324   5.487  0.00  0.00    +0.218 A 
ATOM     19  C   UNL     1      12.257   5.901   2.592  0.00  0.00    +0.099 A 
ATOM     20  C   UNL     1      13.109   6.716   3.224  0.00  0.00    +0.030 A 
ATOM     21  C   UNL     1       8.632  11.537   4.872  0.00  0.00    +0.116 A 
ATOM     22  C   UNL     1       6.817  10.136   4.421  0.00  0.00    +0.116 A 
ATOM     24  C   UNL     1       7.368  11.399   4.335  0.00  0.00    +0.039 A 
ENDROOT
BRANCH  19   7
ATOM      2  O   UNL     1      13.557   3.506   1.745  0.00  0.00    -0.270 OA
ATOM      7  N   UNL     1      12.451   5.504   1.302  0.00  0.00    -0.277 N 
ATOM     23  C   UNL     1      13.093   4.323   0.953  0.00  0.00    +0.248 C 
ATOM     30  H   UNL     1      12.229   6.199   0.598  0.00  0.00    +0.155 HD
BRANCH  23  25
ATOM      8  N   UNL     1      13.368   3.538  -3.214  0.00  0.00    -0.263 NA
ATOM     25  C   UNL     1      13.189   4.049  -0.503  0.00  0.00    +0.040 A 
ATOM     26  C   UNL     1      14.111   4.741  -1.253  0.00  0.00    +0.033 A 
ATOM     27  C   UNL     1      12.353   3.111  -1.061  0.00  0.00    +0.033 A 
ATOM     28  C   UNL     1      14.161   4.448  -2.606  0.00  0.00    +0.111 A 
ATOM     29  C   UNL     1      12.482   2.891  -2.424  0.00  0.00    +0.111 A 
ENDBRANCH  23  25
ENDBRANCH  19   7
TORSDOF 2
ENDMDL
MODEL 8
REMARK VINA RESULT:      -6.6     15.670     17.220
REMARK  Name = 7142825
REMARK  2 active torsions:
REMARK  status: ('A' for Active; 'I' for Inactive)
REMARK    1  A    between atoms: N_7  and  C_19
REMARK    2  A    between atoms: C_23  and  C_25
REMARK                            x       y       z     vdW  Elec       q    Type
REMARK                         _______ _______ _______ _____ _____    ______ ____
ROOT
ATOM      1  O   UNL     1     -14.735   8.657  22.138  0.00  0.00    -0.266 OA
ATOM      3  N   UNL     1     -12.928   9.672  17.553  0.00  0.00    -0.299 N 
ATOM      4  N   UNL     1     -12.941   8.952  20.671  0.00  0.00    -0.310 N 
ATOM      5  N   UNL     1     -13.319   8.238  15.721  0.00  0.00    -0.223 NA
ATOM      6  N   UNL     1     -15.034   9.745  16.491  0.00  0.00    -0.223 NA
ATOM      9  C   UNL     1     -12.468  11.172  19.486  0.00  0.00    +0.027 C 
ATOM     10  C   UNL     1     -11.018   9.237  19.069  0.00  0.00    +0.054 C 
ATOM     11  C   UNL     1     -11.020  10.706  19.478  0.00  0.00    +0.018 C 
ATOM     12  C   UNL     1     -13.100  11.027  18.088  0.00  0.00    +0.113 C 
ATOM     13  C   UNL     1     -13.238  10.384  20.555  0.00  0.00    +0.130 C 
ATOM     14  C   UNL     1     -11.578   9.097  17.640  0.00  0.00    +0.117 C 
ATOM     15  C   UNL     1     -11.833   8.391  20.030  0.00  0.00    +0.027 A 
ATOM     16  C   UNL     1     -11.508   7.105  20.244  0.00  0.00    +0.024 A 
ATOM     17  C   UNL     1     -13.761   8.202  21.538  0.00  0.00    +0.273 A 
ATOM     18  C   UNL     1     -13.787   9.204  16.556  0.00  0.00    +0.218 A 
ATOM     19  C   UNL     1     -13.382   6.766  21.728  0.00  0.00    +0.099 A 
ATOM     20  C   UNL     1     -12.301   6.277  21.109  0.00  0.00    +0.030 A 
ATOM     21  C   UNL     1     -14.174   7.808  14.771  0.00  0.00    +0.116 A 
ATOM     22  C   UNL     1     -15.837   9.269  15.517  0.00  0.00    +0.116 A 
ATOM     24  C   UNL     1     -15.457   8.292  14.619  0.00  0.00    +0.039 A 
ENDROOT
BRANCH  19   7
ATOM      2  O   UNL     1     -15.551   5.098  20.919  0.00  0.00    -0.270 OA
ATOM      7  N   UNL     1     -14.158   6.002  22.548  0.00  0.00    -0.277 N 
ATOM     23  C   UNL     1     -15.203   5.209  22.092  0.00  0.00    +0.248 C 
ATOM     30  H   UNL     1     -14.025   6.161  23.541  0.00  0.00    +0.155 HD
BRANCH  23  25
ATOM      8  N   UNL     1     -17.257   2.978  25.068  0.00  0.00    -0.263 NA
ATOM     25  C   UNL     1     -15.921   4.429  23.133  0.00  0.00    +0.040 A 
ATOM     26  C   UNL     1     -15.232   4.011  24.247  0.00  0.00    +0.033 A 
ATOM     27  C   UNL     1     -17.254   4.146  22.952  0.00  0.00    +0.033 A 
ATOM     28  C   UNL     1     -15.947   3.288  25.188  0.00  0.00    +0.111 A 
ATOM     29  C   UNL     1     -17.878   3.416  23.951  0.00  0.00    +0.111 A 
ENDBRANCH  23  25
ENDBRANCH  19   7
TORSDOF 2
ENDMDL
MODEL 9
REMARK VINA RESULT:      -6.6     27.883     29.918
REMARK  Name = 7142825
REMARK  2 active torsions:
REMARK  status: ('A' for Active; 'I' for Inactive)
REMARK    1  A    between atoms: N_7  and  C_19
REMARK    2  A    between atoms: C_23  and  C_25
REMARK                            x       y       z     vdW  Elec       q    Type
REMARK                         _______ _______ _______ _____ _____    ______ ____
ROOT
ATOM      1  O   UNL     1      14.270   6.511   7.233  0.00  0.00    -0.266 OA
ATOM      3  N   UNL     1       9.909   6.453   4.724  0.00  0.00    -0.299 N 
ATOM      4  N   UNL     1      12.182   7.441   6.747  0.00  0.00    -0.310 N 
ATOM      5  N   UNL     1       9.823   6.718   2.381  0.00  0.00    -0.223 NA
ATOM      6  N   UNL     1      10.458   4.609   3.358  0.00  0.00    -0.223 NA
ATOM      9  C   UNL     1       9.979   6.219   7.201  0.00  0.00    +0.027 C 
ATOM     10  C   UNL     1       9.945   8.452   6.186  0.00  0.00    +0.054 C 
ATOM     11  C   UNL     1       9.386   7.614   7.331  0.00  0.00    +0.018 C 
ATOM     12  C   UNL     1       9.587   5.577   5.856  0.00  0.00    +0.113 C 
ATOM     13  C   UNL     1      11.501   6.306   7.381  0.00  0.00    +0.130 C 
ATOM     14  C   UNL     1       9.490   7.858   4.839  0.00  0.00    +0.117 C 
ATOM     15  C   UNL     1      11.460   8.523   6.236  0.00  0.00    +0.027 A 
ATOM     16  C   UNL     1      12.104   9.605   5.768  0.00  0.00    +0.024 A 
ATOM     17  C   UNL     1      13.591   7.432   6.777  0.00  0.00    +0.273 A 
ATOM     18  C   UNL     1      10.068   5.909   3.447  0.00  0.00    +0.218 A 
ATOM     19  C   UNL     1      14.272   8.645   6.222  0.00  0.00    +0.099 A 
ATOM     20  C   UNL     1      13.539   9.664   5.760  0.00  0.00    +0.030 A 
ATOM     21  C   UNL     1       9.987   6.162   1.164  0.00  0.00    +0.116 A 
ATOM     22  C   UNL     1      10.602   4.117   2.110  0.00  0.00    +0.116 A 
ATOM     24  C   UNL     1      10.378   4.853   0.965  0.00  0.00    +0.039 A 
ENDROOT
BRANCH  19   7
ATOM      2  O   UNL     1      15.964   7.869   4.059  0.00  0.00    -0.270 OA
ATOM      7  N   UNL     1      15.635   8.669   6.218  0.00  0.00    -0.277 N 
ATOM     23  C   UNL     1      16.405   8.277   5.131  0.00  0.00    +0.248 C 
ATOM     30  H   UNL     1      16.066   8.850   7.118  0.00  0.00    +0.155 HD
BRANCH  23  25
ATOM      8  N   UNL     1      20.611   8.614   5.634  0.00  0.00    -0.263 NA
ATOM     25  C   UNL     1      17.875   8.395   5.307  0.00  0.00    +0.040 A 
ATOM     26  C   UNL     1      18.698   8.113   4.243  0.00  0.00    +0.033 A 
ATOM     27  C   UNL     1      18.371   8.782   6.529  0.00  0.00    +0.033 A 
ATOM     28  C   UNL     1      20.061   8.238   4.458  0.00  0.00    +0.111 A 
ATOM     29  C   UNL     1      19.749   8.877   6.642  0.00  0.00    +0.111 A 
ENDBRANCH  23  25
ENDBRANCH  19   7
TORSDOF 2
ENDMDL
MODEL 10
REMARK VINA RESULT:      -6.4      5.537      7.826
REMARK  Name = 7142825
REMARK  2 active torsions:
REMARK  status: ('A' for Active; 'I' for Inactive)
REMARK    1  A    between atoms: N_7  and  C_19
REMARK    2  A    between atoms: C_23  and  C_25
REMARK                            x       y       z     vdW  Elec       q    Type
REMARK                         _______ _______ _______ _____ _____    ______ ____
ROOT
ATOM      1  O   UNL     1     -11.589  -7.587   9.508  0.00  0.00    -0.266 OA
ATOM      3  N   UNL     1     -14.958  -4.366  11.402  0.00  0.00    -0.299 N 
ATOM      4  N   UNL     1     -12.112  -5.662  10.725  0.00  0.00    -0.310 N 
ATOM      5  N   UNL     1     -16.330  -3.046  10.010  0.00  0.00    -0.223 NA
ATOM      6  N   UNL     1     -16.832  -5.372  10.382  0.00  0.00    -0.223 NA
ATOM      9  C   UNL     1     -13.486  -5.718  12.885  0.00  0.00    +0.027 C 
ATOM     10  C   UNL     1     -12.691  -3.571  12.004  0.00  0.00    +0.054 C 
ATOM     11  C   UNL     1     -12.721  -4.454  13.247  0.00  0.00    +0.018 C 
ATOM     12  C   UNL     1     -14.928  -5.385  12.457  0.00  0.00    +0.113 C 
ATOM     13  C   UNL     1     -12.715  -6.471  11.792  0.00  0.00    +0.130 C 
ATOM     14  C   UNL     1     -14.128  -3.172  11.618  0.00  0.00    +0.117 C 
ATOM     15  C   UNL     1     -12.017  -4.273  10.839  0.00  0.00    +0.027 A 
ATOM     16  C   UNL     1     -11.357  -3.563   9.909  0.00  0.00    +0.024 A 
ATOM     17  C   UNL     1     -11.547  -6.363   9.641  0.00  0.00    +0.273 A 
ATOM     18  C   UNL     1     -16.077  -4.257  10.572  0.00  0.00    +0.218 A 
ATOM     19  C   UNL     1     -10.842  -5.533   8.613  0.00  0.00    +0.099 A 
ATOM     20  C   UNL     1     -10.760  -4.207   8.773  0.00  0.00    +0.030 A 
ATOM     21  C   UNL     1     -17.416  -2.976   9.213  0.00  0.00    +0.116 A 
ATOM     22  C   UNL     1     -17.904  -5.232   9.573  0.00  0.00    +0.116 A 
ATOM     24  C   UNL     1     -18.248  -4.046   8.956  0.00  0.00    +0.039 A 
ENDROOT
BRANCH  19   7
ATOM      2  O   UNL     1      -8.173  -6.524   8.427  0.00  0.00    -0.270 OA
ATOM      7  N   UNL     1     -10.294  -6.172   7.540  0.00  0.00    -0.277 N 
ATOM     23  C   UNL     1      -8.984  -6.632   7.511  0.00  0.00    +0.248 C 
ATOM     30  H   UNL     1     -10.857  -6.160   6.697  0.00  0.00    +0.155 HD
BRANCH  23  25
ATOM      8  N   UNL     1      -7.807  -8.613   3.941  0.00  0.00    -0.263 NA
ATOM     25  C   UNL     1      -8.573  -7.324   6.263  0.00  0.00    +0.040 A 
ATOM     26  C   UNL     1      -9.333  -7.162   5.129  0.00  0.00    +0.033 A 
ATOM     27  C   UNL     1      -7.444  -8.109   6.278  0.00  0.00    +0.033 A 
ATOM     28  C   UNL     1      -8.907  -7.828   3.991  0.00  0.00    +0.111 A 
ATOM     29  C   UNL     1      -7.103  -8.733   5.089  0.00  0.00    +0.111 A 
ENDBRANCH  23  25
ENDBRANCH  19   7
TORSDOF 2
ENDMDL
