MODEL 1
REMARK VINA RESULT:      -7.8      0.000      0.000
REMARK  Name = 11886002
REMARK  8 active torsions:
REMARK  status: ('A' for Active; 'I' for Inactive)
REMARK    1  A    between atoms: S_1  and  C_18
REMARK    2  A    between atoms: S_1  and  C_20
REMARK    3  A    between atoms: O_4  and  C_15
REMARK    4  A    between atoms: O_4  and  C_19
REMARK    5  A    between atoms: O_6  and  C_30
REMARK    6  A    between atoms: O_6  and  C_32
REMARK    7  A    between atoms: N_7  and  C_14
REMARK    8  A    between atoms: N_11  and  C_21
REMARK                            x       y       z     vdW  Elec       q    Type
REMARK                         _______ _______ _______ _____ _____    ______ ____
ROOT
ATOM      2  O   UNL     1      -5.251 -10.252  17.607  0.00  0.00    -0.368 OA
ATOM      3  O   UNL     1      -6.404 -12.239  15.539  0.00  0.00    -0.368 OA
ATOM     12  C   UNL     1      -5.424 -11.183  15.428  0.00  0.00    +0.177 C 
ATOM     13  C   UNL     1      -5.887 -10.059  16.334  0.00  0.00    +0.192 C 
ATOM     14  C   UNL     1      -4.112 -11.642  16.032  0.00  0.00    +0.168 C 
ATOM     15  C   UNL     1      -7.377 -10.289  16.415  0.00  0.00    +0.235 C 
ATOM     16  C   UNL     1      -4.288 -11.312  17.511  0.00  0.00    +0.190 C 
ATOM     17  C   UNL     1      -7.467 -11.797  16.394  0.00  0.00    +0.207 C 
ENDROOT
BRANCH  14   7
ATOM      7  N   UNL     1      -2.950 -11.028  15.386  0.00  0.00    -0.212 N 
ATOM      8  N   UNL     1      -2.095 -10.282  16.098  0.00  0.00    -0.043 NA
ATOM      9  N   UNL     1      -1.446 -10.372  13.968  0.00  0.00    -0.101 NA
ATOM     10  N   UNL     1      -1.177  -9.884  15.226  0.00  0.00    -0.022 NA
ATOM     18  C   UNL     1      -2.547 -11.078  14.090  0.00  0.00    +0.214 A 
BRANCH  18   1
ATOM      1  S   UNL     1      -3.382 -11.940  12.858  0.00  0.00    -0.049 S 
BRANCH   1  20
ATOM     20  C   UNL     1      -3.876 -10.567  11.814  0.00  0.00    +0.016 A 
ATOM     22  C   UNL     1      -3.063 -10.172  10.749  0.00  0.00    +0.015 A 
ATOM     23  C   UNL     1      -5.072  -9.895  12.064  0.00  0.00    +0.015 A 
ATOM     26  C   UNL     1      -3.448  -9.105   9.938  0.00  0.00    +0.001 A 
ATOM     27  C   UNL     1      -5.456  -8.828  11.252  0.00  0.00    +0.001 A 
ATOM     31  C   UNL     1      -4.644  -8.433  10.189  0.00  0.00    +0.000 A 
ENDBRANCH   1  20
ENDBRANCH  18   1
ENDBRANCH  14   7
BRANCH  15   4
ATOM      4  O   UNL     1      -7.972  -9.736  17.567  0.00  0.00    -0.442 OA
BRANCH   4  19
ATOM      5  O   UNL     1     -10.124  -9.334  18.228  0.00  0.00    -0.226 OA
ATOM     11  N   UNL     1      -9.259  -8.442  16.244  0.00  0.00    -0.251 N 
ATOM     19  C   UNL     1      -9.222  -9.174  17.415  0.00  0.00    +0.405 C 
ATOM     38  H   UNL     1      -8.402  -8.426  15.695  0.00  0.00    +0.158 HD
BRANCH  11  21
ATOM     21  C   UNL     1     -10.344  -7.708  15.710  0.00  0.00    +0.037 A 
ATOM     24  C   UNL     1     -10.992  -8.160  14.560  0.00  0.00    +0.027 A 
ATOM     25  C   UNL     1     -10.767  -6.535  16.335  0.00  0.00    +0.027 A 
ATOM     28  C   UNL     1     -12.062  -7.437  14.035  0.00  0.00    +0.048 A 
ATOM     29  C   UNL     1     -11.837  -5.812  15.809  0.00  0.00    +0.048 A 
ATOM     30  C   UNL     1     -12.486  -6.263  14.659  0.00  0.00    +0.129 A 
BRANCH  30   6
ATOM      6  O   UNL     1     -13.531  -5.559  14.147  0.00  0.00    -0.456 OA
BRANCH   6  32
ATOM     32  C   UNL     1     -13.360  -4.957  12.911  0.00  0.00    +0.128 A 
ATOM     33  C   UNL     1     -14.186  -5.306  11.844  0.00  0.00    +0.046 A 
ATOM     34  C   UNL     1     -12.358  -4.003  12.734  0.00  0.00    +0.046 A 
ATOM     35  C   UNL     1     -14.013  -4.702  10.599  0.00  0.00    +0.004 A 
ATOM     36  C   UNL     1     -12.185  -3.397  11.489  0.00  0.00    +0.004 A 
ATOM     37  C   UNL     1     -13.012  -3.748  10.422  0.00  0.00    +0.000 A 
ENDBRANCH   6  32
ENDBRANCH  30   6
ENDBRANCH  11  21
ENDBRANCH   4  19
ENDBRANCH  15   4
TORSDOF 8
ENDMDL
MODEL 2
REMARK VINA RESULT:      -7.4      1.571      2.179
REMARK  Name = 11886002
REMARK  8 active torsions:
REMARK  status: ('A' for Active; 'I' for Inactive)
REMARK    1  A    between atoms: S_1  and  C_18
REMARK    2  A    between atoms: S_1  and  C_20
REMARK    3  A    between atoms: O_4  and  C_15
REMARK    4  A    between atoms: O_4  and  C_19
REMARK    5  A    between atoms: O_6  and  C_30
REMARK    6  A    between atoms: O_6  and  C_32
REMARK    7  A    between atoms: N_7  and  C_14
REMARK    8  A    between atoms: N_11  and  C_21
REMARK                            x       y       z     vdW  Elec       q    Type
REMARK                         _______ _______ _______ _____ _____    ______ ____
ROOT
ATOM      2  O   UNL     1      -5.610  -9.878  16.239  0.00  0.00    -0.368 OA
ATOM      3  O   UNL     1      -5.452 -11.526  18.850  0.00  0.00    -0.368 OA
ATOM     12  C   UNL     1      -5.578 -11.914  17.464  0.00  0.00    +0.177 C 
ATOM     13  C   UNL     1      -6.470 -10.884  16.800  0.00  0.00    +0.192 C 
ATOM     14  C   UNL     1      -4.239 -11.761  16.770  0.00  0.00    +0.168 C 
ATOM     15  C   UNL     1      -7.276 -10.346  17.957  0.00  0.00    +0.235 C 
ATOM     16  C   UNL     1      -4.242 -10.295  16.351  0.00  0.00    +0.190 C 
ATOM     17  C   UNL     1      -6.269 -10.371  19.084  0.00  0.00    +0.207 C 
ENDROOT
BRANCH  14   7
ATOM      7  N   UNL     1      -4.057 -12.724  15.682  0.00  0.00    -0.212 N 
ATOM      8  N   UNL     1      -4.842 -13.806  15.596  0.00  0.00    -0.043 NA
ATOM      9  N   UNL     1      -3.370 -13.791  13.923  0.00  0.00    -0.101 NA
ATOM     10  N   UNL     1      -4.418 -14.455  14.519  0.00  0.00    -0.022 NA
ATOM     18  C   UNL     1      -3.163 -12.723  14.659  0.00  0.00    +0.214 A 
BRANCH  18   1
ATOM      1  S   UNL     1      -1.981 -11.497  14.418  0.00  0.00    -0.049 S 
BRANCH   1  20
ATOM     20  C   UNL     1      -2.669 -10.697  12.968  0.00  0.00    +0.016 A 
ATOM     22  C   UNL     1      -4.049 -10.518  12.858  0.00  0.00    +0.015 A 
ATOM     23  C   UNL     1      -1.826 -10.254  11.950  0.00  0.00    +0.015 A 
ATOM     26  C   UNL     1      -4.583  -9.896  11.731  0.00  0.00    +0.001 A 
ATOM     27  C   UNL     1      -2.361  -9.630  10.822  0.00  0.00    +0.001 A 
ATOM     31  C   UNL     1      -3.740  -9.452  10.712  0.00  0.00    +0.000 A 
ENDBRANCH   1  20
ENDBRANCH  18   1
ENDBRANCH  14   7
BRANCH  15   4
ATOM      4  O   UNL     1      -7.792  -9.053  17.734  0.00  0.00    -0.442 OA
BRANCH   4  19
ATOM      5  O   UNL     1      -9.995  -9.648  17.881  0.00  0.00    -0.226 OA
ATOM     11  N   UNL     1      -9.258  -8.022  16.366  0.00  0.00    -0.251 N 
ATOM     19  C   UNL     1      -9.118  -8.966  17.365  0.00  0.00    +0.405 C 
ATOM     38  H   UNL     1      -8.406  -7.555  16.065  0.00  0.00    +0.158 HD
BRANCH  11  21
ATOM     21  C   UNL     1     -10.443  -7.623  15.706  0.00  0.00    +0.037 A 
ATOM     24  C   UNL     1     -10.999  -8.438  14.719  0.00  0.00    +0.027 A 
ATOM     25  C   UNL     1     -11.058  -6.417  16.044  0.00  0.00    +0.027 A 
ATOM     28  C   UNL     1     -12.169  -8.045  14.068  0.00  0.00    +0.048 A 
ATOM     29  C   UNL     1     -12.227  -6.025  15.393  0.00  0.00    +0.048 A 
ATOM     30  C   UNL     1     -12.783  -6.838  14.405  0.00  0.00    +0.129 A 
BRANCH  30   6
ATOM      6  O   UNL     1     -13.925  -6.456  13.772  0.00  0.00    -0.456 OA
BRANCH   6  32
ATOM     32  C   UNL     1     -13.862  -5.351  12.940  0.00  0.00    +0.128 A 
ATOM     33  C   UNL     1     -12.859  -5.261  11.975  0.00  0.00    +0.046 A 
ATOM     34  C   UNL     1     -14.800  -4.327  13.068  0.00  0.00    +0.046 A 
ATOM     35  C   UNL     1     -12.794  -4.148  11.137  0.00  0.00    +0.004 A 
ATOM     36  C   UNL     1     -14.735  -3.213  12.230  0.00  0.00    +0.004 A 
ATOM     37  C   UNL     1     -13.731  -3.124  11.265  0.00  0.00    +0.000 A 
ENDBRANCH   6  32
ENDBRANCH  30   6
ENDBRANCH  11  21
ENDBRANCH   4  19
ENDBRANCH  15   4
TORSDOF 8
ENDMDL
MODEL 3
REMARK VINA RESULT:      -7.4     28.522     32.527
REMARK  Name = 11886002
REMARK  8 active torsions:
REMARK  status: ('A' for Active; 'I' for Inactive)
REMARK    1  A    between atoms: S_1  and  C_18
REMARK    2  A    between atoms: S_1  and  C_20
REMARK    3  A    between atoms: O_4  and  C_15
REMARK    4  A    between atoms: O_4  and  C_19
REMARK    5  A    between atoms: O_6  and  C_30
REMARK    6  A    between atoms: O_6  and  C_32
REMARK    7  A    between atoms: N_7  and  C_14
REMARK    8  A    between atoms: N_11  and  C_21
REMARK                            x       y       z     vdW  Elec       q    Type
REMARK                         _______ _______ _______ _____ _____    ______ ____
ROOT
ATOM      2  O   UNL     1      16.554   8.316  20.812  0.00  0.00    -0.368 OA
ATOM      3  O   UNL     1      16.504   5.836  18.967  0.00  0.00    -0.368 OA
ATOM     12  C   UNL     1      15.599   6.300  19.993  0.00  0.00    +0.177 C 
ATOM     13  C   UNL     1      16.453   6.909  21.087  0.00  0.00    +0.192 C 
ATOM     14  C   UNL     1      14.779   7.459  19.461  0.00  0.00    +0.168 C 
ATOM     15  C   UNL     1      17.778   6.209  20.904  0.00  0.00    +0.235 C 
ATOM     16  C   UNL     1      15.681   8.659  19.726  0.00  0.00    +0.190 C 
ATOM     17  C   UNL     1      17.852   6.058  19.402  0.00  0.00    +0.207 C 
ENDROOT
BRANCH  14   7
ATOM      7  N   UNL     1      13.447   7.529  20.067  0.00  0.00    -0.212 N 
ATOM      8  N   UNL     1      13.283   7.281  21.373  0.00  0.00    -0.043 NA
ATOM      9  N   UNL     1      11.322   7.764  20.430  0.00  0.00    -0.101 NA
ATOM     10  N   UNL     1      11.982   7.427  21.590  0.00  0.00    -0.022 NA
ATOM     18  C   UNL     1      12.248   7.822  19.501  0.00  0.00    +0.214 A 
BRANCH  18   1
ATOM      1  S   UNL     1      12.039   8.200  17.835  0.00  0.00    -0.049 S 
BRANCH   1  20
ATOM     20  C   UNL     1      12.910   9.768  17.773  0.00  0.00    +0.016 A 
ATOM     22  C   UNL     1      12.763  10.689  18.812  0.00  0.00    +0.015 A 
ATOM     23  C   UNL     1      13.732  10.066  16.688  0.00  0.00    +0.015 A 
ATOM     26  C   UNL     1      13.441  11.907  18.762  0.00  0.00    +0.001 A 
ATOM     27  C   UNL     1      14.410  11.284  16.639  0.00  0.00    +0.001 A 
ATOM     31  C   UNL     1      14.264  12.205  17.676  0.00  0.00    +0.000 A 
ENDBRANCH   1  20
ENDBRANCH  18   1
ENDBRANCH  14   7
BRANCH  15   4
ATOM      4  O   UNL     1      18.874   6.931  21.421  0.00  0.00    -0.442 OA
BRANCH   4  19
ATOM      5  O   UNL     1      20.233   6.079  23.050  0.00  0.00    -0.226 OA
ATOM     11  N   UNL     1      20.613   5.645  20.781  0.00  0.00    -0.251 N 
ATOM     19  C   UNL     1      19.952   6.194  21.864  0.00  0.00    +0.405 C 
ATOM     38  H   UNL     1      20.225   5.855  19.864  0.00  0.00    +0.158 HD
BRANCH  11  21
ATOM     21  C   UNL     1      21.764   4.826  20.789  0.00  0.00    +0.037 A 
ATOM     24  C   UNL     1      23.010   5.371  20.476  0.00  0.00    +0.027 A 
ATOM     25  C   UNL     1      21.656   3.473  21.111  0.00  0.00    +0.027 A 
ATOM     28  C   UNL     1      24.146   4.562  20.484  0.00  0.00    +0.048 A 
ATOM     29  C   UNL     1      22.793   2.665  21.119  0.00  0.00    +0.048 A 
ATOM     30  C   UNL     1      24.039   3.209  20.806  0.00  0.00    +0.129 A 
BRANCH  30   6
ATOM      6  O   UNL     1      25.147   2.421  20.816  0.00  0.00    -0.456 OA
BRANCH   6  32
ATOM     32  C   UNL     1      25.481   1.793  22.004  0.00  0.00    +0.128 A 
ATOM     33  C   UNL     1      25.808   2.552  23.126  0.00  0.00    +0.046 A 
ATOM     34  C   UNL     1      25.491   0.400  22.076  0.00  0.00    +0.046 A 
ATOM     35  C   UNL     1      26.145   1.919  24.323  0.00  0.00    +0.004 A 
ATOM     36  C   UNL     1      25.828  -0.233  23.273  0.00  0.00    +0.004 A 
ATOM     37  C   UNL     1      26.156   0.527  24.396  0.00  0.00    +0.000 A 
ENDBRANCH   6  32
ENDBRANCH  30   6
ENDBRANCH  11  21
ENDBRANCH   4  19
ENDBRANCH  15   4
TORSDOF 8
ENDMDL
MODEL 4
REMARK VINA RESULT:      -7.3      3.992      7.715
REMARK  Name = 11886002
REMARK  8 active torsions:
REMARK  status: ('A' for Active; 'I' for Inactive)
REMARK    1  A    between atoms: S_1  and  C_18
REMARK    2  A    between atoms: S_1  and  C_20
REMARK    3  A    between atoms: O_4  and  C_15
REMARK    4  A    between atoms: O_4  and  C_19
REMARK    5  A    between atoms: O_6  and  C_30
REMARK    6  A    between atoms: O_6  and  C_32
REMARK    7  A    between atoms: N_7  and  C_14
REMARK    8  A    between atoms: N_11  and  C_21
REMARK                            x       y       z     vdW  Elec       q    Type
REMARK                         _______ _______ _______ _____ _____    ______ ____
ROOT
ATOM      2  O   UNL     1      -4.875 -10.035  15.477  0.00  0.00    -0.368 OA
ATOM      3  O   UNL     1      -4.196 -13.039  15.739  0.00  0.00    -0.368 OA
ATOM     12  C   UNL     1      -4.481 -12.019  16.722  0.00  0.00    +0.177 C 
ATOM     13  C   UNL     1      -3.859 -10.734  16.213  0.00  0.00    +0.192 C 
ATOM     14  C   UNL     1      -5.970 -11.738  16.745  0.00  0.00    +0.168 C 
ATOM     15  C   UNL     1      -2.758 -11.232  15.308  0.00  0.00    +0.235 C 
ATOM     16  C   UNL     1      -6.134 -10.703  15.637  0.00  0.00    +0.190 C 
ATOM     17  C   UNL     1      -3.379 -12.471  14.706  0.00  0.00    +0.207 C 
ENDROOT
BRANCH  14   7
ATOM      7  N   UNL     1      -6.443 -11.322  18.068  0.00  0.00    -0.212 N 
ATOM      8  N   UNL     1      -5.576 -10.883  18.990  0.00  0.00    -0.043 NA
ATOM      9  N   UNL     1      -7.649 -10.849  19.807  0.00  0.00    -0.101 NA
ATOM     10  N   UNL     1      -6.319 -10.595  20.051  0.00  0.00    -0.022 NA
ATOM     18  C   UNL     1      -7.703 -11.297  18.574  0.00  0.00    +0.214 A 
BRANCH  18   1
ATOM      1  S   UNL     1      -9.100 -11.785  17.695  0.00  0.00    -0.049 S 
BRANCH   1  20
ATOM     20  C   UNL     1      -9.877 -10.186  17.456  0.00  0.00    +0.016 A 
ATOM     22  C   UNL     1     -11.252 -10.043  17.648  0.00  0.00    +0.015 A 
ATOM     23  C   UNL     1      -9.107  -9.086  17.081  0.00  0.00    +0.015 A 
ATOM     26  C   UNL     1     -11.855  -8.799  17.462  0.00  0.00    +0.001 A 
ATOM     27  C   UNL     1      -9.711  -7.841  16.895  0.00  0.00    +0.001 A 
ATOM     31  C   UNL     1     -11.085  -7.698  17.086  0.00  0.00    +0.000 A 
ENDBRANCH   1  20
ENDBRANCH  18   1
ENDBRANCH  14   7
BRANCH  15   4
ATOM      4  O   UNL     1      -2.370 -10.300  14.325  0.00  0.00    -0.442 OA
BRANCH   4  19
ATOM      5  O   UNL     1      -1.781 -11.421  12.421  0.00  0.00    -0.226 OA
ATOM     11  N   UNL     1      -3.692 -10.072  12.513  0.00  0.00    -0.251 N 
ATOM     19  C   UNL     1      -2.550 -10.671  13.009  0.00  0.00    +0.405 C 
ATOM     38  H   UNL     1      -4.205  -9.477  13.159  0.00  0.00    +0.158 HD
BRANCH  11  21
ATOM     21  C   UNL     1      -4.239 -10.183  11.214  0.00  0.00    +0.037 A 
ATOM     24  C   UNL     1      -5.123 -11.221  10.917  0.00  0.00    +0.027 A 
ATOM     25  C   UNL     1      -3.896  -9.255  10.231  0.00  0.00    +0.027 A 
ATOM     28  C   UNL     1      -5.663 -11.331   9.635  0.00  0.00    +0.048 A 
ATOM     29  C   UNL     1      -4.437  -9.365   8.949  0.00  0.00    +0.048 A 
ATOM     30  C   UNL     1      -5.320 -10.403   8.651  0.00  0.00    +0.129 A 
BRANCH  30   6
ATOM      6  O   UNL     1      -5.848 -10.509   7.402  0.00  0.00    -0.456 OA
BRANCH   6  32
ATOM     32  C   UNL     1      -6.689  -9.497   6.969  0.00  0.00    +0.128 A 
ATOM     33  C   UNL     1      -7.516  -8.841   7.880  0.00  0.00    +0.046 A 
ATOM     34  C   UNL     1      -6.709  -9.135   5.623  0.00  0.00    +0.046 A 
ATOM     35  C   UNL     1      -8.364  -7.822   7.445  0.00  0.00    +0.004 A 
ATOM     36  C   UNL     1      -7.557  -8.116   5.188  0.00  0.00    +0.004 A 
ATOM     37  C   UNL     1      -8.385  -7.460   6.099  0.00  0.00    +0.000 A 
ENDBRANCH   6  32
ENDBRANCH  30   6
ENDBRANCH  11  21
ENDBRANCH   4  19
ENDBRANCH  15   4
TORSDOF 8
ENDMDL
MODEL 5
REMARK VINA RESULT:      -7.3      4.237      4.988
REMARK  Name = 11886002
REMARK  8 active torsions:
REMARK  status: ('A' for Active; 'I' for Inactive)
REMARK    1  A    between atoms: S_1  and  C_18
REMARK    2  A    between atoms: S_1  and  C_20
REMARK    3  A    between atoms: O_4  and  C_15
REMARK    4  A    between atoms: O_4  and  C_19
REMARK    5  A    between atoms: O_6  and  C_30
REMARK    6  A    between atoms: O_6  and  C_32
REMARK    7  A    between atoms: N_7  and  C_14
REMARK    8  A    between atoms: N_11  and  C_21
REMARK                            x       y       z     vdW  Elec       q    Type
REMARK                         _______ _______ _______ _____ _____    ______ ____
ROOT
ATOM      2  O   UNL     1      -5.892 -12.115  17.616  0.00  0.00    -0.368 OA
ATOM      3  O   UNL     1      -6.625  -9.327  16.499  0.00  0.00    -0.368 OA
ATOM     12  C   UNL     1      -5.356  -9.945  16.811  0.00  0.00    +0.177 C 
ATOM     13  C   UNL     1      -5.573 -10.785  18.055  0.00  0.00    +0.192 C 
ATOM     14  C   UNL     1      -5.000 -10.948  15.732  0.00  0.00    +0.168 C 
ATOM     15  C   UNL     1      -6.757 -10.114  18.708  0.00  0.00    +0.235 C 
ATOM     16  C   UNL     1      -5.719 -12.210  16.195  0.00  0.00    +0.190 C 
ATOM     17  C   UNL     1      -7.575  -9.680  17.513  0.00  0.00    +0.207 C 
ENDROOT
BRANCH  14   7
ATOM      7  N   UNL     1      -3.553 -11.082  15.546  0.00  0.00    -0.212 N 
ATOM      8  N   UNL     1      -2.704 -10.573  16.449  0.00  0.00    -0.043 NA
ATOM      9  N   UNL     1      -1.573 -11.551  14.795  0.00  0.00    -0.101 NA
ATOM     10  N   UNL     1      -1.495 -10.863  15.985  0.00  0.00    -0.022 NA
ATOM     18  C   UNL     1      -2.856 -11.675  14.542  0.00  0.00    +0.214 A 
BRANCH  18   1
ATOM      1  S   UNL     1      -3.588 -12.447  13.191  0.00  0.00    -0.049 S 
BRANCH   1  20
ATOM     20  C   UNL     1      -3.753 -11.038  12.093  0.00  0.00    +0.016 A 
ATOM     22  C   UNL     1      -4.990 -10.408  11.947  0.00  0.00    +0.015 A 
ATOM     23  C   UNL     1      -2.645 -10.570  11.388  0.00  0.00    +0.015 A 
ATOM     26  C   UNL     1      -5.117  -9.312  11.094  0.00  0.00    +0.001 A 
ATOM     27  C   UNL     1      -2.772  -9.473  10.535  0.00  0.00    +0.001 A 
ATOM     31  C   UNL     1      -4.009  -8.844  10.388  0.00  0.00    +0.000 A 
ENDBRANCH   1  20
ENDBRANCH  18   1
ENDBRANCH  14   7
BRANCH  15   4
ATOM      4  O   UNL     1      -7.482 -10.962  19.569  0.00  0.00    -0.442 OA
BRANCH   4  19
ATOM      5  O   UNL     1      -9.110 -12.175  18.517  0.00  0.00    -0.226 OA
ATOM     11  N   UNL     1      -9.620 -10.281  19.797  0.00  0.00    -0.251 N 
ATOM     19  C   UNL     1      -8.791 -11.228  19.225  0.00  0.00    +0.405 C 
ATOM     38  H   UNL     1      -9.165  -9.565  20.358  0.00  0.00    +0.158 HD
BRANCH  11  21
ATOM     21  C   UNL     1     -11.026 -10.184  19.698  0.00  0.00    +0.037 A 
ATOM     24  C   UNL     1     -11.606  -9.565  18.589  0.00  0.00    +0.027 A 
ATOM     25  C   UNL     1     -11.835 -10.707  20.707  0.00  0.00    +0.027 A 
ATOM     28  C   UNL     1     -12.994  -9.469  18.491  0.00  0.00    +0.048 A 
ATOM     29  C   UNL     1     -13.223 -10.611  20.608  0.00  0.00    +0.048 A 
ATOM     30  C   UNL     1     -13.803  -9.993  19.500  0.00  0.00    +0.129 A 
BRANCH  30   6
ATOM      6  O   UNL     1     -15.157  -9.901  19.404  0.00  0.00    -0.456 OA
BRANCH   6  32
ATOM     32  C   UNL     1     -15.752  -8.713  19.796  0.00  0.00    +0.128 A 
ATOM     33  C   UNL     1     -16.375  -7.900  18.850  0.00  0.00    +0.046 A 
ATOM     34  C   UNL     1     -15.726  -8.331  21.137  0.00  0.00    +0.046 A 
ATOM     35  C   UNL     1     -16.973  -6.703  19.245  0.00  0.00    +0.004 A 
ATOM     36  C   UNL     1     -16.325  -7.134  21.531  0.00  0.00    +0.004 A 
ATOM     37  C   UNL     1     -16.948  -6.320  20.585  0.00  0.00    +0.000 A 
ENDBRANCH   6  32
ENDBRANCH  30   6
ENDBRANCH  11  21
ENDBRANCH   4  19
ENDBRANCH  15   4
TORSDOF 8
ENDMDL
MODEL 6
REMARK VINA RESULT:      -7.1     29.469     32.393
REMARK  Name = 11886002
REMARK  8 active torsions:
REMARK  status: ('A' for Active; 'I' for Inactive)
REMARK    1  A    between atoms: S_1  and  C_18
REMARK    2  A    between atoms: S_1  and  C_20
REMARK    3  A    between atoms: O_4  and  C_15
REMARK    4  A    between atoms: O_4  and  C_19
REMARK    5  A    between atoms: O_6  and  C_30
REMARK    6  A    between atoms: O_6  and  C_32
REMARK    7  A    between atoms: N_7  and  C_14
REMARK    8  A    between atoms: N_11  and  C_21
REMARK                            x       y       z     vdW  Elec       q    Type
REMARK                         _______ _______ _______ _____ _____    ______ ____
ROOT
ATOM      2  O   UNL     1      22.404   3.458  21.242  0.00  0.00    -0.368 OA
ATOM      3  O   UNL     1      24.899   5.021  22.182  0.00  0.00    -0.368 OA
ATOM     12  C   UNL     1      23.869   4.311  22.905  0.00  0.00    +0.177 C 
ATOM     13  C   UNL     1      22.569   4.548  22.162  0.00  0.00    +0.192 C 
ATOM     14  C   UNL     1      24.106   2.818  22.792  0.00  0.00    +0.168 C 
ATOM     15  C   UNL     1      22.829   5.850  21.443  0.00  0.00    +0.235 C 
ATOM     16  C   UNL     1      23.414   2.467  21.479  0.00  0.00    +0.190 C 
ATOM     17  C   UNL     1      24.295   5.732  21.093  0.00  0.00    +0.207 C 
ENDROOT
BRANCH  14   7
ATOM      7  N   UNL     1      23.632   2.084  23.967  0.00  0.00    -0.212 N 
ATOM      8  N   UNL     1      22.322   2.013  24.239  0.00  0.00    -0.043 NA
ATOM      9  N   UNL     1      23.488   0.904  25.781  0.00  0.00    -0.101 NA
ATOM     10  N   UNL     1      22.240   1.290  25.349  0.00  0.00    -0.022 NA
ATOM     18  C   UNL     1      24.335   1.405  24.912  0.00  0.00    +0.214 A 
BRANCH  18   1
ATOM      1  S   UNL     1      26.049   1.262  24.913  0.00  0.00    -0.049 S 
BRANCH   1  20
ATOM     20  C   UNL     1      26.214  -0.361  24.166  0.00  0.00    +0.016 A 
ATOM     22  C   UNL     1      26.127  -1.506  24.960  0.00  0.00    +0.015 A 
ATOM     23  C   UNL     1      26.429  -0.478  22.794  0.00  0.00    +0.015 A 
ATOM     26  C   UNL     1      26.255  -2.767  24.378  0.00  0.00    +0.001 A 
ATOM     27  C   UNL     1      26.557  -1.740  22.213  0.00  0.00    +0.001 A 
ATOM     31  C   UNL     1      26.470  -2.885  23.005  0.00  0.00    +0.000 A 
ENDBRANCH   1  20
ENDBRANCH  18   1
ENDBRANCH  14   7
BRANCH  15   4
ATOM      4  O   UNL     1      22.023   6.035  20.302  0.00  0.00    -0.442 OA
BRANCH   4  19
ATOM      5  O   UNL     1      20.704   7.789  20.947  0.00  0.00    -0.226 OA
ATOM     11  N   UNL     1      19.789   5.807  20.098  0.00  0.00    -0.251 N 
ATOM     19  C   UNL     1      20.806   6.656  20.492  0.00  0.00    +0.405 C 
ATOM     38  H   UNL     1      20.074   4.898  19.743  0.00  0.00    +0.158 HD
BRANCH  11  21
ATOM     21  C   UNL     1      18.396   6.047  20.126  0.00  0.00    +0.037 A 
ATOM     24  C   UNL     1      17.789   6.488  21.302  0.00  0.00    +0.027 A 
ATOM     25  C   UNL     1      17.630   5.846  18.978  0.00  0.00    +0.027 A 
ATOM     28  C   UNL     1      16.414   6.725  21.330  0.00  0.00    +0.048 A 
ATOM     29  C   UNL     1      16.256   6.084  19.006  0.00  0.00    +0.048 A 
ATOM     30  C   UNL     1      15.648   6.524  20.182  0.00  0.00    +0.129 A 
BRANCH  30   6
ATOM      6  O   UNL     1      14.308   6.757  20.209  0.00  0.00    -0.456 OA
BRANCH   6  32
ATOM     32  C   UNL     1      13.802   7.709  19.339  0.00  0.00    +0.128 A 
ATOM     33  C   UNL     1      12.751   7.383  18.483  0.00  0.00    +0.046 A 
ATOM     34  C   UNL     1      14.345   8.993  19.319  0.00  0.00    +0.046 A 
ATOM     35  C   UNL     1      12.242   8.341  17.606  0.00  0.00    +0.004 A 
ATOM     36  C   UNL     1      13.836   9.952  18.442  0.00  0.00    +0.004 A 
ATOM     37  C   UNL     1      12.785   9.625  17.585  0.00  0.00    +0.000 A 
ENDBRANCH   6  32
ENDBRANCH  30   6
ENDBRANCH  11  21
ENDBRANCH   4  19
ENDBRANCH  15   4
TORSDOF 8
ENDMDL
MODEL 7
REMARK VINA RESULT:      -7.0     26.400     29.511
REMARK  Name = 11886002
REMARK  8 active torsions:
REMARK  status: ('A' for Active; 'I' for Inactive)
REMARK    1  A    between atoms: S_1  and  C_18
REMARK    2  A    between atoms: S_1  and  C_20
REMARK    3  A    between atoms: O_4  and  C_15
REMARK    4  A    between atoms: O_4  and  C_19
REMARK    5  A    between atoms: O_6  and  C_30
REMARK    6  A    between atoms: O_6  and  C_32
REMARK    7  A    between atoms: N_7  and  C_14
REMARK    8  A    between atoms: N_11  and  C_21
REMARK                            x       y       z     vdW  Elec       q    Type
REMARK                         _______ _______ _______ _____ _____    ______ ____
ROOT
ATOM      2  O   UNL     1      11.626  13.824  12.962  0.00  0.00    -0.368 OA
ATOM      3  O   UNL     1      13.556  12.699  10.825  0.00  0.00    -0.368 OA
ATOM     12  C   UNL     1      12.171  12.417  11.127  0.00  0.00    +0.177 C 
ATOM     13  C   UNL     1      12.029  12.485  12.635  0.00  0.00    +0.192 C 
ATOM     14  C   UNL     1      11.299  13.545  10.611  0.00  0.00    +0.168 C 
ATOM     15  C   UNL     1      13.429  12.191  13.115  0.00  0.00    +0.235 C 
ATOM     16  C   UNL     1      11.335  14.549  11.758  0.00  0.00    +0.190 C 
ATOM     17  C   UNL     1      14.275  12.859  12.055  0.00  0.00    +0.207 C 
ENDROOT
BRANCH  14   7
ATOM      7  N   UNL     1       9.964  13.088  10.219  0.00  0.00    -0.212 N 
ATOM      8  N   UNL     1       8.898  13.379  10.978  0.00  0.00    -0.043 NA
ATOM      9  N   UNL     1       8.274  12.188   9.201  0.00  0.00    -0.101 NA
ATOM     10  N   UNL     1       7.868  12.827  10.350  0.00  0.00    -0.022 NA
ATOM     18  C   UNL     1       9.574  12.363   9.139  0.00  0.00    +0.214 A 
BRANCH  18   1
ATOM      1  S   UNL     1      10.652  11.796   7.924  0.00  0.00    -0.049 S 
BRANCH   1  20
ATOM     20  C   UNL     1       9.746  10.349   7.372  0.00  0.00    +0.016 A 
ATOM     22  C   UNL     1       9.042  10.384   6.168  0.00  0.00    +0.015 A 
ATOM     23  C   UNL     1       9.748   9.188   8.145  0.00  0.00    +0.015 A 
ATOM     26  C   UNL     1       8.339   9.259   5.739  0.00  0.00    +0.001 A 
ATOM     27  C   UNL     1       9.044   8.062   7.716  0.00  0.00    +0.001 A 
ATOM     31  C   UNL     1       8.339   8.098   6.513  0.00  0.00    +0.000 A 
ENDBRANCH   1  20
ENDBRANCH  18   1
ENDBRANCH  14   7
BRANCH  15   4
ATOM      4  O   UNL     1      13.700  12.690  14.405  0.00  0.00    -0.442 OA
BRANCH   4  19
ATOM      5  O   UNL     1      15.579  11.950  15.479  0.00  0.00    -0.226 OA
ATOM     11  N   UNL     1      13.492  10.943  15.815  0.00  0.00    -0.251 N 
ATOM     19  C   UNL     1      14.376  11.854  15.268  0.00  0.00    +0.405 C 
ATOM     38  H   UNL     1      12.523  11.021  15.516  0.00  0.00    +0.158 HD
BRANCH  11  21
ATOM     21  C   UNL     1      13.767   9.913  16.743  0.00  0.00    +0.037 A 
ATOM     24  C   UNL     1      13.917   8.598  16.300  0.00  0.00    +0.027 A 
ATOM     25  C   UNL     1      13.890  10.211  18.100  0.00  0.00    +0.027 A 
ATOM     28  C   UNL     1      14.190   7.582  17.215  0.00  0.00    +0.048 A 
ATOM     29  C   UNL     1      14.163   9.193  19.015  0.00  0.00    +0.048 A 
ATOM     30  C   UNL     1      14.313   7.878  18.573  0.00  0.00    +0.129 A 
BRANCH  30   6
ATOM      6  O   UNL     1      14.581   6.887  19.465  0.00  0.00    -0.456 OA
BRANCH   6  32
ATOM     32  C   UNL     1      15.906   6.659  19.796  0.00  0.00    +0.128 A 
ATOM     33  C   UNL     1      16.438   7.210  20.961  0.00  0.00    +0.046 A 
ATOM     34  C   UNL     1      16.708   5.879  18.964  0.00  0.00    +0.046 A 
ATOM     35  C   UNL     1      17.773   6.981  21.295  0.00  0.00    +0.004 A 
ATOM     36  C   UNL     1      18.043   5.650  19.298  0.00  0.00    +0.004 A 
ATOM     37  C   UNL     1      18.575   6.202  20.463  0.00  0.00    +0.000 A 
ENDBRANCH   6  32
ENDBRANCH  30   6
ENDBRANCH  11  21
ENDBRANCH   4  19
ENDBRANCH  15   4
TORSDOF 8
ENDMDL
MODEL 8
REMARK VINA RESULT:      -7.0     29.099     31.956
REMARK  Name = 11886002
REMARK  8 active torsions:
REMARK  status: ('A' for Active; 'I' for Inactive)
REMARK    1  A    between atoms: S_1  and  C_18
REMARK    2  A    between atoms: S_1  and  C_20
REMARK    3  A    between atoms: O_4  and  C_15
REMARK    4  A    between atoms: O_4  and  C_19
REMARK    5  A    between atoms: O_6  and  C_30
REMARK    6  A    between atoms: O_6  and  C_32
REMARK    7  A    between atoms: N_7  and  C_14
REMARK    8  A    between atoms: N_11  and  C_21
REMARK                            x       y       z     vdW  Elec       q    Type
REMARK                         _______ _______ _______ _____ _____    ______ ____
ROOT
ATOM      2  O   UNL     1      23.483   5.813  22.058  0.00  0.00    -0.368 OA
ATOM      3  O   UNL     1      22.304   4.883  24.760  0.00  0.00    -0.368 OA
ATOM     12  C   UNL     1      22.494   4.204  23.499  0.00  0.00    +0.177 C 
ATOM     13  C   UNL     1      22.222   5.221  22.408  0.00  0.00    +0.192 C 
ATOM     14  C   UNL     1      23.957   3.846  23.329  0.00  0.00    +0.168 C 
ATOM     15  C   UNL     1      21.313   6.212  23.095  0.00  0.00    +0.235 C 
ATOM     16  C   UNL     1      24.546   5.116  22.724  0.00  0.00    +0.190 C 
ATOM     17  C   UNL     1      21.863   6.224  24.503  0.00  0.00    +0.207 C 
ENDROOT
BRANCH  14   7
ATOM      7  N   UNL     1      24.150   2.628  22.540  0.00  0.00    -0.212 N 
ATOM      8  N   UNL     1      23.814   2.600  21.244  0.00  0.00    -0.043 NA
ATOM      9  N   UNL     1      24.631   0.623  21.869  0.00  0.00    -0.101 NA
ATOM     10  N   UNL     1      24.110   1.372  20.838  0.00  0.00    -0.022 NA
ATOM     18  C   UNL     1      24.647   1.419  22.912  0.00  0.00    +0.214 A 
BRANCH  18   1
ATOM      1  S   UNL     1      25.191   1.054  24.503  0.00  0.00    -0.049 S 
BRANCH   1  20
ATOM     20  C   UNL     1      23.792   0.096  25.086  0.00  0.00    +0.016 A 
ATOM     22  C   UNL     1      23.994  -1.172  25.635  0.00  0.00    +0.015 A 
ATOM     23  C   UNL     1      22.502   0.617  24.993  0.00  0.00    +0.015 A 
ATOM     26  C   UNL     1      22.905  -1.916  26.088  0.00  0.00    +0.001 A 
ATOM     27  C   UNL     1      21.413  -0.128  25.447  0.00  0.00    +0.001 A 
ATOM     31  C   UNL     1      21.615  -1.394  25.995  0.00  0.00    +0.000 A 
ENDBRANCH   1  20
ENDBRANCH  18   1
ENDBRANCH  14   7
BRANCH  15   4
ATOM      4  O   UNL     1      21.327   7.493  22.508  0.00  0.00    -0.442 OA
BRANCH   4  19
ATOM      5  O   UNL     1      20.730   8.320  20.461  0.00  0.00    -0.226 OA
ATOM     11  N   UNL     1      19.204   7.177  21.819  0.00  0.00    -0.251 N 
ATOM     19  C   UNL     1      20.430   7.720  21.486  0.00  0.00    +0.405 C 
ATOM     38  H   UNL     1      19.148   6.712  22.722  0.00  0.00    +0.158 HD
BRANCH  11  21
ATOM     21  C   UNL     1      18.013   7.185  21.057  0.00  0.00    +0.037 A 
ATOM     24  C   UNL     1      17.794   6.199  20.095  0.00  0.00    +0.027 A 
ATOM     25  C   UNL     1      17.056   8.178  21.270  0.00  0.00    +0.027 A 
ATOM     28  C   UNL     1      16.618   6.207  19.344  0.00  0.00    +0.048 A 
ATOM     29  C   UNL     1      15.881   8.186  20.519  0.00  0.00    +0.048 A 
ATOM     30  C   UNL     1      15.661   7.200  19.556  0.00  0.00    +0.129 A 
BRANCH  30   6
ATOM      6  O   UNL     1      14.514   7.206  18.825  0.00  0.00    -0.456 OA
BRANCH   6  32
ATOM     32  C   UNL     1      13.326   7.453  19.492  0.00  0.00    +0.128 A 
ATOM     33  C   UNL     1      12.559   8.569  19.162  0.00  0.00    +0.046 A 
ATOM     34  C   UNL     1      12.897   6.584  20.496  0.00  0.00    +0.046 A 
ATOM     35  C   UNL     1      11.363   8.819  19.835  0.00  0.00    +0.004 A 
ATOM     36  C   UNL     1      11.700   6.834  21.168  0.00  0.00    +0.004 A 
ATOM     37  C   UNL     1      10.934   7.951  20.838  0.00  0.00    +0.000 A 
ENDBRANCH   6  32
ENDBRANCH  30   6
ENDBRANCH  11  21
ENDBRANCH   4  19
ENDBRANCH  15   4
TORSDOF 8
ENDMDL
MODEL 9
REMARK VINA RESULT:      -6.9     26.321     28.747
REMARK  Name = 11886002
REMARK  8 active torsions:
REMARK  status: ('A' for Active; 'I' for Inactive)
REMARK    1  A    between atoms: S_1  and  C_18
REMARK    2  A    between atoms: S_1  and  C_20
REMARK    3  A    between atoms: O_4  and  C_15
REMARK    4  A    between atoms: O_4  and  C_19
REMARK    5  A    between atoms: O_6  and  C_30
REMARK    6  A    between atoms: O_6  and  C_32
REMARK    7  A    between atoms: N_7  and  C_14
REMARK    8  A    between atoms: N_11  and  C_21
REMARK                            x       y       z     vdW  Elec       q    Type
REMARK                         _______ _______ _______ _____ _____    ______ ____
ROOT
ATOM      2  O   UNL     1      14.161  10.593  14.734  0.00  0.00    -0.368 OA
ATOM      3  O   UNL     1      15.421  11.875  17.249  0.00  0.00    -0.368 OA
ATOM     12  C   UNL     1      14.183  11.161  17.041  0.00  0.00    +0.177 C 
ATOM     13  C   UNL     1      13.669  11.564  15.673  0.00  0.00    +0.192 C 
ATOM     14  C   UNL     1      14.466   9.676  16.919  0.00  0.00    +0.168 C 
ATOM     15  C   UNL     1      14.307  12.916  15.462  0.00  0.00    +0.235 C 
ATOM     16  C   UNL     1      14.796   9.517  15.439  0.00  0.00    +0.190 C 
ATOM     17  C   UNL     1      15.652  12.739  16.128  0.00  0.00    +0.207 C 
ENDROOT
BRANCH  14   7
ATOM      7  N   UNL     1      13.359   8.851  17.407  0.00  0.00    -0.212 N 
ATOM      8  N   UNL     1      12.520   8.263  16.544  0.00  0.00    -0.043 NA
ATOM      9  N   UNL     1      11.934   7.775  18.638  0.00  0.00    -0.101 NA
ATOM     10  N   UNL     1      11.651   7.606  17.301  0.00  0.00    -0.022 NA
ATOM     18  C   UNL     1      12.995   8.548  18.680  0.00  0.00    +0.214 A 
BRANCH  18   1
ATOM      1  S   UNL     1      13.825   9.113  20.077  0.00  0.00    -0.049 S 
BRANCH   1  20
ATOM     20  C   UNL     1      15.284   8.072  19.999  0.00  0.00    +0.016 A 
ATOM     22  C   UNL     1      16.435   8.431  20.703  0.00  0.00    +0.015 A 
ATOM     23  C   UNL     1      15.268   6.905  19.238  0.00  0.00    +0.015 A 
ATOM     26  C   UNL     1      17.569   7.621  20.642  0.00  0.00    +0.001 A 
ATOM     27  C   UNL     1      16.403   6.094  19.178  0.00  0.00    +0.001 A 
ATOM     31  C   UNL     1      17.553   6.453  19.880  0.00  0.00    +0.000 A 
ENDBRANCH   1  20
ENDBRANCH  18   1
ENDBRANCH  14   7
BRANCH  15   4
ATOM      4  O   UNL     1      14.428  13.278  14.106  0.00  0.00    -0.442 OA
BRANCH   4  19
ATOM      5  O   UNL     1      12.425  14.285  13.657  0.00  0.00    -0.226 OA
ATOM     11  N   UNL     1      13.206  12.479  12.387  0.00  0.00    -0.251 N 
ATOM     19  C   UNL     1      13.257  13.426  13.393  0.00  0.00    +0.405 C 
ATOM     38  H   UNL     1      13.999  11.846  12.325  0.00  0.00    +0.158 HD
BRANCH  11  21
ATOM     21  C   UNL     1      12.184  12.280  11.431  0.00  0.00    +0.037 A 
ATOM     24  C   UNL     1      10.889  11.970  11.850  0.00  0.00    +0.027 A 
ATOM     25  C   UNL     1      12.469  12.396  10.071  0.00  0.00    +0.027 A 
ATOM     28  C   UNL     1       9.880  11.774  10.906  0.00  0.00    +0.048 A 
ATOM     29  C   UNL     1      11.460  12.200   9.128  0.00  0.00    +0.048 A 
ATOM     30  C   UNL     1      10.165  11.889   9.545  0.00  0.00    +0.129 A 
BRANCH  30   6
ATOM      6  O   UNL     1       9.181  11.700   8.625  0.00  0.00    -0.456 OA
BRANCH   6  32
ATOM     32  C   UNL     1       9.339  10.669   7.715  0.00  0.00    +0.128 A 
ATOM     33  C   UNL     1       9.410  10.948   6.351  0.00  0.00    +0.046 A 
ATOM     34  C   UNL     1       9.425   9.351   8.163  0.00  0.00    +0.046 A 
ATOM     35  C   UNL     1       9.568   9.909   5.433  0.00  0.00    +0.004 A 
ATOM     36  C   UNL     1       9.584   8.312   7.245  0.00  0.00    +0.004 A 
ATOM     37  C   UNL     1       9.655   8.592   5.880  0.00  0.00    +0.000 A 
ENDBRANCH   6  32
ENDBRANCH  30   6
ENDBRANCH  11  21
ENDBRANCH   4  19
ENDBRANCH  15   4
TORSDOF 8
ENDMDL
MODEL 10
REMARK VINA RESULT:      -6.6      2.129      2.844
REMARK  Name = 11886002
REMARK  8 active torsions:
REMARK  status: ('A' for Active; 'I' for Inactive)
REMARK    1  A    between atoms: S_1  and  C_18
REMARK    2  A    between atoms: S_1  and  C_20
REMARK    3  A    between atoms: O_4  and  C_15
REMARK    4  A    between atoms: O_4  and  C_19
REMARK    5  A    between atoms: O_6  and  C_30
REMARK    6  A    between atoms: O_6  and  C_32
REMARK    7  A    between atoms: N_7  and  C_14
REMARK    8  A    between atoms: N_11  and  C_21
REMARK                            x       y       z     vdW  Elec       q    Type
REMARK                         _______ _______ _______ _____ _____    ______ ____
ROOT
ATOM      2  O   UNL     1      -5.617  -9.837  16.252  0.00  0.00    -0.368 OA
ATOM      3  O   UNL     1      -5.739 -11.635  18.763  0.00  0.00    -0.368 OA
ATOM     12  C   UNL     1      -5.783 -11.937  17.351  0.00  0.00    +0.177 C 
ATOM     13  C   UNL     1      -6.568 -10.821  16.689  0.00  0.00    +0.192 C 
ATOM     14  C   UNL     1      -4.390 -11.822  16.763  0.00  0.00    +0.168 C 
ATOM     15  C   UNL     1      -7.427 -10.304  17.818  0.00  0.00    +0.235 C 
ATOM     16  C   UNL     1      -4.285 -10.337  16.434  0.00  0.00    +0.190 C 
ATOM     17  C   UNL     1      -6.509 -10.450  19.009  0.00  0.00    +0.207 C 
ENDROOT
BRANCH  14   7
ATOM      7  N   UNL     1      -4.180 -12.731  15.634  0.00  0.00    -0.212 N 
ATOM      8  N   UNL     1      -4.952 -13.816  15.486  0.00  0.00    -0.043 NA
ATOM      9  N   UNL     1      -3.454 -13.708  13.840  0.00  0.00    -0.101 NA
ATOM     10  N   UNL     1      -4.504 -14.409  14.386  0.00  0.00    -0.022 NA
ATOM     18  C   UNL     1      -3.271 -12.673  14.627  0.00  0.00    +0.214 A 
BRANCH  18   1
ATOM      1  S   UNL     1      -2.098 -11.425  14.464  0.00  0.00    -0.049 S 
BRANCH   1  20
ATOM     20  C   UNL     1      -2.703 -10.639  12.970  0.00  0.00    +0.016 A 
ATOM     22  C   UNL     1      -1.803 -10.212  11.992  0.00  0.00    +0.015 A 
ATOM     23  C   UNL     1      -4.073 -10.455  12.784  0.00  0.00    +0.015 A 
ATOM     26  C   UNL     1      -2.274  -9.602  10.830  0.00  0.00    +0.001 A 
ATOM     27  C   UNL     1      -4.544  -9.844  11.621  0.00  0.00    +0.001 A 
ATOM     31  C   UNL     1      -3.644  -9.417  10.644  0.00  0.00    +0.000 A 
ENDBRANCH   1  20
ENDBRANCH  18   1
ENDBRANCH  14   7
BRANCH  15   4
ATOM      4  O   UNL     1      -7.856  -8.973  17.637  0.00  0.00    -0.442 OA
BRANCH   4  19
ATOM      5  O   UNL     1     -10.105  -9.319  17.865  0.00  0.00    -0.226 OA
ATOM     11  N   UNL     1      -9.237  -7.937  16.186  0.00  0.00    -0.251 N 
ATOM     19  C   UNL     1      -9.173  -8.786  17.274  0.00  0.00    +0.405 C 
ATOM     38  H   UNL     1      -8.347  -7.593  15.831  0.00  0.00    +0.158 HD
BRANCH  11  21
ATOM     21  C   UNL     1     -10.388  -7.486  15.501  0.00  0.00    +0.037 A 
ATOM     24  C   UNL     1     -10.985  -8.295  14.534  0.00  0.00    +0.027 A 
ATOM     25  C   UNL     1     -10.926  -6.233  15.793  0.00  0.00    +0.027 A 
ATOM     28  C   UNL     1     -12.122  -7.850  13.859  0.00  0.00    +0.048 A 
ATOM     29  C   UNL     1     -12.063  -5.788  15.117  0.00  0.00    +0.048 A 
ATOM     30  C   UNL     1     -12.661  -6.596  14.150  0.00  0.00    +0.129 A 
BRANCH  30   6
ATOM      6  O   UNL     1     -13.770  -6.163  13.492  0.00  0.00    -0.456 OA
BRANCH   6  32
ATOM     32  C   UNL     1     -14.973  -6.788  13.776  0.00  0.00    +0.128 A 
ATOM     33  C   UNL     1     -15.540  -7.662  12.850  0.00  0.00    +0.046 A 
ATOM     34  C   UNL     1     -15.617  -6.542  14.988  0.00  0.00    +0.046 A 
ATOM     35  C   UNL     1     -16.752  -8.291  13.134  0.00  0.00    +0.004 A 
ATOM     36  C   UNL     1     -16.829  -7.172  15.273  0.00  0.00    +0.004 A 
ATOM     37  C   UNL     1     -17.397  -8.046  14.346  0.00  0.00    +0.000 A 
ENDBRANCH   6  32
ENDBRANCH  30   6
ENDBRANCH  11  21
ENDBRANCH   4  19
ENDBRANCH  15   4
TORSDOF 8
ENDMDL
