MODEL 1
REMARK VINA RESULT:      -6.9      0.000      0.000
REMARK  Name = 26742498
REMARK  10 active torsions:
REMARK  status: ('A' for Active; 'I' for Inactive)
REMARK    1  A    between atoms: S_2  and  C_24
REMARK    2  A    between atoms: S_2  and  C_30
REMARK    3  A    between atoms: O_4  and  C_32
REMARK    4  A    between atoms: N_7  and  C_17
REMARK    5  A    between atoms: C_11  and  C_18
REMARK    6  A    between atoms: C_12  and  C_17
REMARK    7  A    between atoms: C_20  and  C_23
REMARK    8  A    between atoms: C_21  and  C_24
REMARK    9  A    between atoms: C_22  and  C_25
REMARK   10  A    between atoms: C_30  and  C_32
REMARK                            x       y       z     vdW  Elec       q    Type
REMARK                         _______ _______ _______ _____ _____    ______ ____
ROOT
ATOM      6  N   UNL     1      11.091   8.614  21.004  0.00  0.00    -0.297 NA
ATOM     10  C   UNL     1      12.916   6.761  20.902  0.00  0.00    +0.002 C 
ATOM     11  C   UNL     1      13.452   8.009  21.655  0.00  0.00    +0.055 C 
ATOM     12  C   UNL     1      11.237   8.123  19.609  0.00  0.00    +0.074 C 
ATOM     13  C   UNL     1      12.451   7.177  19.490  0.00  0.00    +0.024 C 
ATOM     14  C   UNL     1      11.665   6.281  21.668  0.00  0.00    +0.019 C 
ATOM     15  C   UNL     1      12.389   9.135  21.500  0.00  0.00    +0.094 C 
ATOM     16  C   UNL     1      10.699   7.464  21.853  0.00  0.00    +0.085 C 
ENDROOT
BRANCH  11  18
ATOM      8  N   UNL     1      14.982   9.782  20.952  0.00  0.00    -0.237 NA
ATOM      9  N   UNL     1      17.356   9.422  20.743  0.00  0.00    -0.232 NA
ATOM     18  C   UNL     1      14.858   8.494  21.334  0.00  0.00    +0.050 A 
ATOM     19  C   UNL     1      15.921   7.621  21.442  0.00  0.00    +0.052 A 
ATOM     20  C   UNL     1      17.159   8.145  21.131  0.00  0.00    +0.076 A 
ATOM     22  C   UNL     1      16.241  10.174  20.675  0.00  0.00    +0.127 A 
ATOM     25  C   UNL     1      16.418  11.592  20.247  0.00  0.00    +0.088 C 
BRANCH  20  23
ATOM      1 BR   UNL     1      17.335   5.791  18.973  0.00  0.00    -0.050 Br
ATOM     23  C   UNL     1      18.352   7.335  21.203  0.00  0.00    +0.014 A 
ATOM     26  C   UNL     1      18.576   6.270  20.331  0.00  0.00    +0.027 A 
ATOM     27  C   UNL     1      19.295   7.645  22.183  0.00  0.00    +0.011 A 
ATOM     28  C   UNL     1      19.743   5.514  20.440  0.00  0.00    +0.016 A 
ATOM     29  C   UNL     1      20.462   6.889  22.291  0.00  0.00    +0.001 A 
ATOM     31  C   UNL     1      20.686   5.823  21.419  0.00  0.00    +0.001 A 
ENDBRANCH  20  23
ENDBRANCH  11  18
BRANCH  12  17
ATOM     17  C   UNL     1      11.302   9.265  18.593  0.00  0.00    +0.123 C 
BRANCH  17   7
ATOM      3  O   UNL     1      11.697   8.976  15.740  0.00  0.00    -0.275 OA
ATOM      7  N   UNL     1      12.547   9.250  17.887  0.00  0.00    -0.313 N 
ATOM     21  C   UNL     1      12.650   9.105  16.505  0.00  0.00    +0.223 C 
ATOM     33  H   UNL     1      13.397   9.341  18.437  0.00  0.00    +0.149 HD
BRANCH  21  24
ATOM     24  C   UNL     1      14.075   9.102  16.006  0.00  0.00    +0.165 C 
BRANCH  24   2
ATOM      2  S   UNL     1      14.788  10.746  16.253  0.00  0.00    -0.140 S 
BRANCH   2  30
ATOM     30  C   UNL     1      14.991  11.214  14.518  0.00  0.00    +0.189 C 
BRANCH  30  32
ATOM      5  O   UNL     1      13.982  13.277  13.787  0.00  0.00    -0.250 OA
ATOM     32  C   UNL     1      13.852  12.102  14.104  0.00  0.00    +0.315 C 
BRANCH  32   4
ATOM      4  O   UNL     1      12.658  11.457  14.104  0.00  0.00    -0.480 OA
ATOM     34  H   UNL     1      12.723  10.566  13.697  0.00  0.00    +0.295 HD
ENDBRANCH  32   4
ENDBRANCH  30  32
ENDBRANCH   2  30
ENDBRANCH  24   2
ENDBRANCH  21  24
ENDBRANCH  17   7
ENDBRANCH  12  17
TORSDOF 9
ENDMDL
MODEL 2
REMARK VINA RESULT:      -6.4      5.245      8.363
REMARK  Name = 26742498
REMARK  10 active torsions:
REMARK  status: ('A' for Active; 'I' for Inactive)
REMARK    1  A    between atoms: S_2  and  C_24
REMARK    2  A    between atoms: S_2  and  C_30
REMARK    3  A    between atoms: O_4  and  C_32
REMARK    4  A    between atoms: N_7  and  C_17
REMARK    5  A    between atoms: C_11  and  C_18
REMARK    6  A    between atoms: C_12  and  C_17
REMARK    7  A    between atoms: C_20  and  C_23
REMARK    8  A    between atoms: C_21  and  C_24
REMARK    9  A    between atoms: C_22  and  C_25
REMARK   10  A    between atoms: C_30  and  C_32
REMARK                            x       y       z     vdW  Elec       q    Type
REMARK                         _______ _______ _______ _____ _____    ______ ____
ROOT
ATOM      6  N   UNL     1      12.951   7.204  19.634  0.00  0.00    -0.297 NA
ATOM     10  C   UNL     1      12.449   8.361  21.911  0.00  0.00    +0.002 C 
ATOM     11  C   UNL     1      11.857   9.190  20.739  0.00  0.00    +0.055 C 
ATOM     12  C   UNL     1      14.199   7.313  20.433  0.00  0.00    +0.074 C 
ATOM     13  C   UNL     1      13.965   8.178  21.691  0.00  0.00    +0.024 C 
ATOM     14  C   UNL     1      11.806   6.959  21.835  0.00  0.00    +0.019 C 
ATOM     15  C   UNL     1      12.366   8.550  19.416  0.00  0.00    +0.094 C 
ATOM     16  C   UNL     1      11.981   6.399  20.413  0.00  0.00    +0.085 C 
ENDROOT
BRANCH  11  18
ATOM      8  N   UNL     1      12.939  11.212  19.891  0.00  0.00    -0.237 NA
ATOM      9  N   UNL     1      12.423  13.403  20.751  0.00  0.00    -0.232 NA
ATOM     18  C   UNL     1      12.043  10.700  20.760  0.00  0.00    +0.050 A 
ATOM     19  C   UNL     1      11.309  11.465  21.643  0.00  0.00    +0.052 A 
ATOM     20  C   UNL     1      11.543  12.824  21.594  0.00  0.00    +0.076 A 
ATOM     22  C   UNL     1      13.078  12.551  19.940  0.00  0.00    +0.127 A 
ATOM     25  C   UNL     1      14.062  13.153  18.995  0.00  0.00    +0.088 C 
BRANCH  20  23
ATOM      1 BR   UNL     1      12.758  13.092  24.540  0.00  0.00    -0.050 Br
ATOM     23  C   UNL     1      10.840  13.734  22.467  0.00  0.00    +0.014 A 
ATOM     26  C   UNL     1      11.246  13.960  23.781  0.00  0.00    +0.027 A 
ATOM     27  C   UNL     1       9.722  14.396  21.959  0.00  0.00    +0.011 A 
ATOM     28  C   UNL     1      10.535  14.847  24.589  0.00  0.00    +0.016 A 
ATOM     29  C   UNL     1       9.011  15.284  22.766  0.00  0.00    +0.001 A 
ATOM     31  C   UNL     1       9.418  15.509  24.081  0.00  0.00    +0.001 A 
ENDBRANCH  20  23
ENDBRANCH  11  18
BRANCH  12  17
ATOM     17  C   UNL     1      15.380   7.823  19.603  0.00  0.00    +0.123 C 
BRANCH  17   7
ATOM      3  O   UNL     1      17.590   7.994  21.465  0.00  0.00    -0.275 OA
ATOM      7  N   UNL     1      16.497   6.934  19.707  0.00  0.00    -0.313 N 
ATOM     21  C   UNL     1      17.524   7.088  20.636  0.00  0.00    +0.223 C 
ATOM     33  H   UNL     1      16.537   6.155  19.055  0.00  0.00    +0.149 HD
BRANCH  21  24
ATOM     24  C   UNL     1      18.595   6.029  20.529  0.00  0.00    +0.165 C 
BRANCH  24   2
ATOM      2  S   UNL     1      20.206   6.790  20.841  0.00  0.00    -0.140 S 
BRANCH   2  30
ATOM     30  C   UNL     1      20.936   5.472  21.842  0.00  0.00    +0.189 C 
BRANCH  30  32
ATOM      5  O   UNL     1      21.507   3.202  21.269  0.00  0.00    -0.250 OA
ATOM     32  C   UNL     1      21.436   4.380  20.942  0.00  0.00    +0.315 C 
BRANCH  32   4
ATOM      4  O   UNL     1      21.791   4.834  19.713  0.00  0.00    -0.480 OA
ATOM     34  H   UNL     1      21.065   4.728  19.060  0.00  0.00    +0.295 HD
ENDBRANCH  32   4
ENDBRANCH  30  32
ENDBRANCH   2  30
ENDBRANCH  24   2
ENDBRANCH  21  24
ENDBRANCH  17   7
ENDBRANCH  12  17
TORSDOF 9
ENDMDL
MODEL 3
REMARK VINA RESULT:      -6.4     13.799     17.294
REMARK  Name = 26742498
REMARK  10 active torsions:
REMARK  status: ('A' for Active; 'I' for Inactive)
REMARK    1  A    between atoms: S_2  and  C_24
REMARK    2  A    between atoms: S_2  and  C_30
REMARK    3  A    between atoms: O_4  and  C_32
REMARK    4  A    between atoms: N_7  and  C_17
REMARK    5  A    between atoms: C_11  and  C_18
REMARK    6  A    between atoms: C_12  and  C_17
REMARK    7  A    between atoms: C_20  and  C_23
REMARK    8  A    between atoms: C_21  and  C_24
REMARK    9  A    between atoms: C_22  and  C_25
REMARK   10  A    between atoms: C_30  and  C_32
REMARK                            x       y       z     vdW  Elec       q    Type
REMARK                         _______ _______ _______ _____ _____    ______ ____
ROOT
ATOM      6  N   UNL     1       9.830   7.043   7.409  0.00  0.00    -0.297 NA
ATOM     10  C   UNL     1       9.808   5.110   5.666  0.00  0.00    +0.002 C 
ATOM     11  C   UNL     1      11.128   5.921   5.560  0.00  0.00    +0.055 C 
ATOM     12  C   UNL     1       8.555   7.063   6.646  0.00  0.00    +0.074 C 
ATOM     13  C   UNL     1       8.608   6.060   5.473  0.00  0.00    +0.024 C 
ATOM     14  C   UNL     1       9.732   4.570   7.110  0.00  0.00    +0.019 C 
ATOM     15  C   UNL     1      10.981   7.166   6.482  0.00  0.00    +0.094 C 
ATOM     16  C   UNL     1       9.928   5.733   8.097  0.00  0.00    +0.085 C 
ENDROOT
BRANCH  11  18
ATOM      8  N   UNL     1      12.196   7.507   4.035  0.00  0.00    -0.237 NA
ATOM      9  N   UNL     1      12.572   6.999   1.710  0.00  0.00    -0.232 NA
ATOM     18  C   UNL     1      11.639   6.286   4.174  0.00  0.00    +0.050 A 
ATOM     19  C   UNL     1      11.515   5.379   3.141  0.00  0.00    +0.052 A 
ATOM     20  C   UNL     1      12.005   5.793   1.919  0.00  0.00    +0.076 A 
ATOM     22  C   UNL     1      12.634   7.795   2.794  0.00  0.00    +0.127 A 
ATOM     25  C   UNL     1      13.253   9.138   2.601  0.00  0.00    +0.088 C 
BRANCH  20  23
ATOM      1 BR   UNL     1      14.457   3.770   1.571  0.00  0.00    -0.050 Br
ATOM     23  C   UNL     1      11.934   4.938   0.758  0.00  0.00    +0.014 A 
ATOM     26  C   UNL     1      12.926   4.002   0.468  0.00  0.00    +0.027 A 
ATOM     27  C   UNL     1      10.830   5.069  -0.084  0.00  0.00    +0.011 A 
ATOM     28  C   UNL     1      12.816   3.198  -0.666  0.00  0.00    +0.016 A 
ATOM     29  C   UNL     1      10.719   4.265  -1.218  0.00  0.00    +0.001 A 
ATOM     31  C   UNL     1      11.713   3.329  -1.509  0.00  0.00    +0.001 A 
ENDBRANCH  20  23
ENDBRANCH  11  18
BRANCH  12  17
ATOM     17  C   UNL     1       8.179   8.470   6.177  0.00  0.00    +0.123 C 
BRANCH  17   7
ATOM      3  O   UNL     1       9.737  10.561   4.919  0.00  0.00    -0.275 OA
ATOM      7  N   UNL     1       8.447   8.630   4.780  0.00  0.00    -0.313 N 
ATOM     21  C   UNL     1       9.211   9.670   4.254  0.00  0.00    +0.223 C 
ATOM     33  H   UNL     1       8.045   7.946   4.146  0.00  0.00    +0.149 HD
BRANCH  21  24
ATOM     24  C   UNL     1       9.330   9.627   2.749  0.00  0.00    +0.165 C 
BRANCH  24   2
ATOM      2  S   UNL     1       7.726   9.172   2.046  0.00  0.00    -0.140 S 
BRANCH   2  30
ATOM     30  C   UNL     1       6.794  10.644   2.532  0.00  0.00    +0.189 C 
BRANCH  30  32
ATOM      5  O   UNL     1       4.513   9.881   2.687  0.00  0.00    -0.250 OA
ATOM     32  C   UNL     1       5.543  10.228   3.250  0.00  0.00    +0.315 C 
BRANCH  32   4
ATOM      4  O   UNL     1       5.678  10.261   4.600  0.00  0.00    -0.480 OA
ATOM     34  H   UNL     1       4.808  10.271   5.055  0.00  0.00    +0.295 HD
ENDBRANCH  32   4
ENDBRANCH  30  32
ENDBRANCH   2  30
ENDBRANCH  24   2
ENDBRANCH  21  24
ENDBRANCH  17   7
ENDBRANCH  12  17
TORSDOF 9
ENDMDL
MODEL 4
REMARK VINA RESULT:      -6.3     28.032     29.745
REMARK  Name = 26742498
REMARK  10 active torsions:
REMARK  status: ('A' for Active; 'I' for Inactive)
REMARK    1  A    between atoms: S_2  and  C_24
REMARK    2  A    between atoms: S_2  and  C_30
REMARK    3  A    between atoms: O_4  and  C_32
REMARK    4  A    between atoms: N_7  and  C_17
REMARK    5  A    between atoms: C_11  and  C_18
REMARK    6  A    between atoms: C_12  and  C_17
REMARK    7  A    between atoms: C_20  and  C_23
REMARK    8  A    between atoms: C_21  and  C_24
REMARK    9  A    between atoms: C_22  and  C_25
REMARK   10  A    between atoms: C_30  and  C_32
REMARK                            x       y       z     vdW  Elec       q    Type
REMARK                         _______ _______ _______ _____ _____    ______ ____
ROOT
ATOM      6  N   UNL     1      -6.378 -10.392  17.810  0.00  0.00    -0.297 NA
ATOM     10  C   UNL     1      -4.693 -12.367  17.612  0.00  0.00    +0.002 C 
ATOM     11  C   UNL     1      -4.281 -11.205  16.668  0.00  0.00    +0.055 C 
ATOM     12  C   UNL     1      -7.113 -11.666  17.601  0.00  0.00    +0.074 C 
ATOM     13  C   UNL     1      -6.132 -12.813  17.275  0.00  0.00    +0.024 C 
ATOM     14  C   UNL     1      -4.721 -11.789  19.043  0.00  0.00    +0.019 C 
ATOM     15  C   UNL     1      -5.432 -10.159  16.691  0.00  0.00    +0.094 C 
ATOM     16  C   UNL     1      -5.591 -10.520  19.061  0.00  0.00    +0.085 C 
ENDROOT
BRANCH  11  18
ATOM      8  N   UNL     1      -3.137 -12.690  15.097  0.00  0.00    -0.237 NA
ATOM      9  N   UNL     1      -3.027 -12.222  12.735  0.00  0.00    -0.232 NA
ATOM     18  C   UNL     1      -3.843 -11.551  15.252  0.00  0.00    +0.050 A 
ATOM     19  C   UNL     1      -4.176 -10.707  14.211  0.00  0.00    +0.052 A 
ATOM     20  C   UNL     1      -3.737 -11.098  12.962  0.00  0.00    +0.076 A 
ATOM     22  C   UNL     1      -2.766 -12.960  13.830  0.00  0.00    +0.127 A 
ATOM     25  C   UNL     1      -1.981 -14.211  13.620  0.00  0.00    +0.088 C 
BRANCH  20  23
ATOM      1 BR   UNL     1      -6.842 -10.658  12.330  0.00  0.00    -0.050 Br
ATOM     23  C   UNL     1      -4.018 -10.302  11.790  0.00  0.00    +0.014 A 
ATOM     26  C   UNL     1      -5.321 -10.021  11.383  0.00  0.00    +0.027 A 
ATOM     27  C   UNL     1      -2.936  -9.811  11.059  0.00  0.00    +0.011 A 
ATOM     28  C   UNL     1      -5.544  -9.248  10.243  0.00  0.00    +0.016 A 
ATOM     29  C   UNL     1      -3.159  -9.037   9.920  0.00  0.00    +0.001 A 
ATOM     31  C   UNL     1      -4.463  -8.757   9.512  0.00  0.00    +0.001 A 
ENDBRANCH  20  23
ENDBRANCH  11  18
BRANCH  12  17
ATOM     17  C   UNL     1      -8.212 -11.538  16.544  0.00  0.00    +0.123 C 
BRANCH  17   7
ATOM      3  O   UNL     1      -9.002  -8.836  15.870  0.00  0.00    -0.275 OA
ATOM      7  N   UNL     1      -9.331 -10.809  17.057  0.00  0.00    -0.313 N 
ATOM     21  C   UNL     1      -9.643  -9.505  16.678  0.00  0.00    +0.223 C 
ATOM     33  H   UNL     1      -9.919 -11.276  17.741  0.00  0.00    +0.149 HD
BRANCH  21  24
ATOM     24  C   UNL     1     -10.862  -8.952  17.377  0.00  0.00    +0.165 C 
BRANCH  24   2
ATOM      2  S   UNL     1     -11.853 -10.328  18.008  0.00  0.00    -0.140 S 
BRANCH   2  30
ATOM     30  C   UNL     1     -11.538 -10.099  19.774  0.00  0.00    +0.189 C 
BRANCH  30  32
ATOM      5  O   UNL     1     -10.595 -12.183  20.532  0.00  0.00    -0.250 OA
ATOM     32  C   UNL     1     -10.429 -11.014  20.206  0.00  0.00    +0.315 C 
BRANCH  32   4
ATOM      4  O   UNL     1      -9.213 -10.412  20.185  0.00  0.00    -0.480 OA
ATOM     34  H   UNL     1      -9.286  -9.437  20.264  0.00  0.00    +0.295 HD
ENDBRANCH  32   4
ENDBRANCH  30  32
ENDBRANCH   2  30
ENDBRANCH  24   2
ENDBRANCH  21  24
ENDBRANCH  17   7
ENDBRANCH  12  17
TORSDOF 9
ENDMDL
MODEL 5
REMARK VINA RESULT:      -6.3     13.586     17.021
REMARK  Name = 26742498
REMARK  10 active torsions:
REMARK  status: ('A' for Active; 'I' for Inactive)
REMARK    1  A    between atoms: S_2  and  C_24
REMARK    2  A    between atoms: S_2  and  C_30
REMARK    3  A    between atoms: O_4  and  C_32
REMARK    4  A    between atoms: N_7  and  C_17
REMARK    5  A    between atoms: C_11  and  C_18
REMARK    6  A    between atoms: C_12  and  C_17
REMARK    7  A    between atoms: C_20  and  C_23
REMARK    8  A    between atoms: C_21  and  C_24
REMARK    9  A    between atoms: C_22  and  C_25
REMARK   10  A    between atoms: C_30  and  C_32
REMARK                            x       y       z     vdW  Elec       q    Type
REMARK                         _______ _______ _______ _____ _____    ______ ____
ROOT
ATOM      6  N   UNL     1       9.922   7.075   7.834  0.00  0.00    -0.297 NA
ATOM     10  C   UNL     1       9.749   5.200   6.036  0.00  0.00    +0.002 C 
ATOM     11  C   UNL     1      11.146   5.878   5.981  0.00  0.00    +0.055 C 
ATOM     12  C   UNL     1       8.674   7.243   7.044  0.00  0.00    +0.074 C 
ATOM     13  C   UNL     1       8.655   6.271   5.844  0.00  0.00    +0.024 C 
ATOM     14  C   UNL     1       9.585   4.633   7.462  0.00  0.00    +0.019 C 
ATOM     15  C   UNL     1      11.102   7.106   6.934  0.00  0.00    +0.094 C 
ATOM     16  C   UNL     1       9.873   5.745   8.486  0.00  0.00    +0.085 C 
ENDROOT
BRANCH  11  18
ATOM      8  N   UNL     1      12.648   7.208   4.583  0.00  0.00    -0.237 NA
ATOM      9  N   UNL     1      12.795   6.897   2.198  0.00  0.00    -0.232 NA
ATOM     18  C   UNL     1      11.724   6.226   4.617  0.00  0.00    +0.050 A 
ATOM     19  C   UNL     1      11.290   5.542   3.499  0.00  0.00    +0.052 A 
ATOM     20  C   UNL     1      11.867   5.924   2.305  0.00  0.00    +0.076 A 
ATOM     22  C   UNL     1      13.134   7.489   3.358  0.00  0.00    +0.127 A 
ATOM     25  C   UNL     1      14.158   8.571   3.281  0.00  0.00    +0.088 C 
BRANCH  20  23
ATOM      1 BR   UNL     1      13.819   3.578   1.347  0.00  0.00    -0.050 Br
ATOM     23  C   UNL     1      11.498   5.288   1.062  0.00  0.00    +0.014 A 
ATOM     26  C   UNL     1      12.248   4.249   0.512  0.00  0.00    +0.027 A 
ATOM     27  C   UNL     1      10.353   5.744   0.409  0.00  0.00    +0.011 A 
ATOM     28  C   UNL     1      11.854   3.665  -0.692  0.00  0.00    +0.016 A 
ATOM     29  C   UNL     1       9.958   5.160  -0.795  0.00  0.00    +0.001 A 
ATOM     31  C   UNL     1      10.710   4.121  -1.345  0.00  0.00    +0.001 A 
ENDBRANCH  20  23
ENDBRANCH  11  18
BRANCH  12  17
ATOM     17  C   UNL     1       8.452   8.693   6.607  0.00  0.00    +0.123 C 
BRANCH  17   7
ATOM      3  O   UNL     1       7.958  10.974   4.894  0.00  0.00    -0.275 OA
ATOM      7  N   UNL     1       7.570   8.757   5.482  0.00  0.00    -0.313 N 
ATOM     21  C   UNL     1       7.389   9.900   4.706  0.00  0.00    +0.223 C 
ATOM     33  H   UNL     1       7.046   7.918   5.251  0.00  0.00    +0.149 HD
BRANCH  21  24
ATOM     24  C   UNL     1       6.391   9.715   3.588  0.00  0.00    +0.165 C 
BRANCH  24   2
ATOM      2  S   UNL     1       7.266   9.760   2.006  0.00  0.00    -0.140 S 
BRANCH   2  30
ATOM     30  C   UNL     1       8.470   8.450   2.328  0.00  0.00    +0.189 C 
BRANCH  30  32
ATOM      5  O   UNL     1      10.501   9.350   1.394  0.00  0.00    -0.250 OA
ATOM     32  C   UNL     1       9.849   9.042   2.383  0.00  0.00    +0.315 C 
BRANCH  32   4
ATOM      4  O   UNL     1      10.295   9.215   3.653  0.00  0.00    -0.480 OA
ATOM     34  H   UNL     1      10.547   8.364   4.072  0.00  0.00    +0.295 HD
ENDBRANCH  32   4
ENDBRANCH  30  32
ENDBRANCH   2  30
ENDBRANCH  24   2
ENDBRANCH  21  24
ENDBRANCH  17   7
ENDBRANCH  12  17
TORSDOF 9
ENDMDL
MODEL 6
REMARK VINA RESULT:      -6.1     27.667     30.215
REMARK  Name = 26742498
REMARK  10 active torsions:
REMARK  status: ('A' for Active; 'I' for Inactive)
REMARK    1  A    between atoms: S_2  and  C_24
REMARK    2  A    between atoms: S_2  and  C_30
REMARK    3  A    between atoms: O_4  and  C_32
REMARK    4  A    between atoms: N_7  and  C_17
REMARK    5  A    between atoms: C_11  and  C_18
REMARK    6  A    between atoms: C_12  and  C_17
REMARK    7  A    between atoms: C_20  and  C_23
REMARK    8  A    between atoms: C_21  and  C_24
REMARK    9  A    between atoms: C_22  and  C_25
REMARK   10  A    between atoms: C_30  and  C_32
REMARK                            x       y       z     vdW  Elec       q    Type
REMARK                         _______ _______ _______ _____ _____    ______ ____
ROOT
ATOM      6  N   UNL     1      -5.649 -12.097  16.910  0.00  0.00    -0.297 NA
ATOM     10  C   UNL     1      -6.310 -10.772  19.052  0.00  0.00    +0.002 C 
ATOM     11  C   UNL     1      -7.511 -11.616  18.543  0.00  0.00    +0.055 C 
ATOM     12  C   UNL     1      -5.269 -10.668  16.761  0.00  0.00    +0.074 C 
ATOM     13  C   UNL     1      -5.836  -9.829  17.927  0.00  0.00    +0.024 C 
ATOM     14  C   UNL     1      -5.158 -11.761  19.331  0.00  0.00    +0.019 C 
ATOM     15  C   UNL     1      -7.106 -12.212  17.164  0.00  0.00    +0.094 C 
ATOM     16  C   UNL     1      -4.930 -12.638  18.088  0.00  0.00    +0.085 C 
ENDROOT
BRANCH  11  18
ATOM      8  N   UNL     1      -9.760 -11.344  19.463  0.00  0.00    -0.237 NA
ATOM      9  N   UNL     1     -11.368  -9.830  18.499  0.00  0.00    -0.232 NA
ATOM     18  C   UNL     1      -8.885 -10.963  18.509  0.00  0.00    +0.050 A 
ATOM     19  C   UNL     1      -9.174 -10.034  17.531  0.00  0.00    +0.052 A 
ATOM     20  C   UNL     1     -10.444  -9.494  17.576  0.00  0.00    +0.076 A 
ATOM     22  C   UNL     1     -10.966 -10.747  19.399  0.00  0.00    +0.127 A 
ATOM     25  C   UNL     1     -11.962 -11.145  20.436  0.00  0.00    +0.088 C 
BRANCH  20  23
ATOM      1 BR   UNL     1     -11.732 -10.691  14.904  0.00  0.00    -0.050 Br
ATOM     23  C   UNL     1     -10.871  -8.512  16.607  0.00  0.00    +0.014 A 
ATOM     26  C   UNL     1     -11.451  -8.876  15.393  0.00  0.00    +0.027 A 
ATOM     27  C   UNL     1     -10.687  -7.165  16.918  0.00  0.00    +0.011 A 
ATOM     28  C   UNL     1     -11.848  -7.892  14.487  0.00  0.00    +0.016 A 
ATOM     29  C   UNL     1     -11.084  -6.180  16.013  0.00  0.00    +0.001 A 
ATOM     31  C   UNL     1     -11.664  -6.545  14.797  0.00  0.00    +0.001 A 
ENDBRANCH  20  23
ENDBRANCH  11  18
BRANCH  12  17
ATOM     17  C   UNL     1      -5.672 -10.097  15.399  0.00  0.00    +0.123 C 
BRANCH  17   7
ATOM      3  O   UNL     1      -5.700  -9.406  12.588  0.00  0.00    -0.275 OA
ATOM      7  N   UNL     1      -4.929 -10.720  14.346  0.00  0.00    -0.313 N 
ATOM     21  C   UNL     1      -5.000 -10.324  13.011  0.00  0.00    +0.223 C 
ATOM     33  H   UNL     1      -4.326 -11.498  14.596  0.00  0.00    +0.149 HD
BRANCH  21  24
ATOM     24  C   UNL     1      -4.134 -11.152  12.092  0.00  0.00    +0.165 C 
BRANCH  24   2
ATOM      2  S   UNL     1      -2.404 -10.685  12.338  0.00  0.00    -0.140 S 
BRANCH   2  30
ATOM     30  C   UNL     1      -1.825 -12.207  13.125  0.00  0.00    +0.189 C 
BRANCH  30  32
ATOM      5  O   UNL     1      -1.162 -11.357  15.281  0.00  0.00    -0.250 OA
ATOM     32  C   UNL     1      -1.912 -12.062  14.617  0.00  0.00    +0.315 C 
BRANCH  32   4
ATOM      4  O   UNL     1      -2.925 -12.785  15.156  0.00  0.00    -0.480 OA
ATOM     34  H   UNL     1      -3.030 -12.611  16.116  0.00  0.00    +0.295 HD
ENDBRANCH  32   4
ENDBRANCH  30  32
ENDBRANCH   2  30
ENDBRANCH  24   2
ENDBRANCH  21  24
ENDBRANCH  17   7
ENDBRANCH  12  17
TORSDOF 9
ENDMDL
MODEL 7
REMARK VINA RESULT:      -6.1     26.251     29.240
REMARK  Name = 26742498
REMARK  10 active torsions:
REMARK  status: ('A' for Active; 'I' for Inactive)
REMARK    1  A    between atoms: S_2  and  C_24
REMARK    2  A    between atoms: S_2  and  C_30
REMARK    3  A    between atoms: O_4  and  C_32
REMARK    4  A    between atoms: N_7  and  C_17
REMARK    5  A    between atoms: C_11  and  C_18
REMARK    6  A    between atoms: C_12  and  C_17
REMARK    7  A    between atoms: C_20  and  C_23
REMARK    8  A    between atoms: C_21  and  C_24
REMARK    9  A    between atoms: C_22  and  C_25
REMARK   10  A    between atoms: C_30  and  C_32
REMARK                            x       y       z     vdW  Elec       q    Type
REMARK                         _______ _______ _______ _____ _____    ______ ____
ROOT
ATOM      6  N   UNL     1      -7.740 -10.376  16.998  0.00  0.00    -0.297 NA
ATOM     10  C   UNL     1      -5.603 -11.687  17.700  0.00  0.00    +0.002 C 
ATOM     11  C   UNL     1      -5.218 -10.382  16.950  0.00  0.00    +0.055 C 
ATOM     12  C   UNL     1      -7.857 -11.797  16.580  0.00  0.00    +0.074 C 
ATOM     13  C   UNL     1      -6.521 -12.540  16.800  0.00  0.00    +0.024 C 
ATOM     14  C   UNL     1      -6.436 -11.265  18.929  0.00  0.00    +0.019 C 
ATOM     15  C   UNL     1      -6.532  -9.764  16.392  0.00  0.00    +0.094 C 
ATOM     16  C   UNL     1      -7.583 -10.347  18.472  0.00  0.00    +0.085 C 
ENDROOT
BRANCH  11  18
ATOM      8  N   UNL     1      -2.850 -10.347  16.338  0.00  0.00    -0.237 NA
ATOM      9  N   UNL     1      -2.110 -10.574  14.056  0.00  0.00    -0.232 NA
ATOM     18  C   UNL     1      -4.121 -10.454  15.898  0.00  0.00    +0.050 A 
ATOM     19  C   UNL     1      -4.461 -10.621  14.570  0.00  0.00    +0.052 A 
ATOM     20  C   UNL     1      -3.403 -10.675  13.685  0.00  0.00    +0.076 A 
ATOM     22  C   UNL     1      -1.908 -10.413  15.377  0.00  0.00    +0.127 A 
ATOM     25  C   UNL     1      -0.491 -10.297  15.826  0.00  0.00    +0.088 C 
BRANCH  20  23
ATOM      1 BR   UNL     1      -3.002 -13.655  12.594  0.00  0.00    -0.050 Br
ATOM     23  C   UNL     1      -3.624 -10.844  12.268  0.00  0.00    +0.014 A 
ATOM     26  C   UNL     1      -3.489 -12.083  11.642  0.00  0.00    +0.027 A 
ATOM     27  C   UNL     1      -3.983  -9.721  11.524  0.00  0.00    +0.011 A 
ATOM     28  C   UNL     1      -3.711 -12.198  10.270  0.00  0.00    +0.016 A 
ATOM     29  C   UNL     1      -4.206  -9.836  10.152  0.00  0.00    +0.001 A 
ATOM     31  C   UNL     1      -4.070 -11.075   9.525  0.00  0.00    +0.001 A 
ENDBRANCH  20  23
ENDBRANCH  11  18
BRANCH  12  17
ATOM     17  C   UNL     1      -8.360 -11.942  15.142  0.00  0.00    +0.123 C 
BRANCH  17   7
ATOM      3  O   UNL     1      -9.339  -9.590  13.767  0.00  0.00    -0.275 OA
ATOM      7  N   UNL     1      -9.718 -11.505  15.031  0.00  0.00    -0.313 N 
ATOM     21  C   UNL     1     -10.107 -10.355  14.347  0.00  0.00    +0.223 C 
ATOM     33  H   UNL     1     -10.429 -12.069  15.488  0.00  0.00    +0.149 HD
BRANCH  21  24
ATOM     24  C   UNL     1     -11.596 -10.104  14.392  0.00  0.00    +0.165 C 
BRANCH  24   2
ATOM      2  S   UNL     1     -11.886  -8.334  14.630  0.00  0.00    -0.140 S 
BRANCH   2  30
ATOM     30  C   UNL     1     -11.614  -8.256  16.417  0.00  0.00    +0.189 C 
BRANCH  30  32
ATOM      5  O   UNL     1      -9.720  -7.669  17.786  0.00  0.00    -0.250 OA
ATOM     32  C   UNL     1     -10.267  -7.652  16.691  0.00  0.00    +0.315 C 
BRANCH  32   4
ATOM      4  O   UNL     1      -9.708  -7.094  15.588  0.00  0.00    -0.480 OA
ATOM     34  H   UNL     1     -10.182  -6.281  15.308  0.00  0.00    +0.295 HD
ENDBRANCH  32   4
ENDBRANCH  30  32
ENDBRANCH   2  30
ENDBRANCH  24   2
ENDBRANCH  21  24
ENDBRANCH  17   7
ENDBRANCH  12  17
TORSDOF 9
ENDMDL
MODEL 8
REMARK VINA RESULT:      -6.1     12.647     15.160
REMARK  Name = 26742498
REMARK  10 active torsions:
REMARK  status: ('A' for Active; 'I' for Inactive)
REMARK    1  A    between atoms: S_2  and  C_24
REMARK    2  A    between atoms: S_2  and  C_30
REMARK    3  A    between atoms: O_4  and  C_32
REMARK    4  A    between atoms: N_7  and  C_17
REMARK    5  A    between atoms: C_11  and  C_18
REMARK    6  A    between atoms: C_12  and  C_17
REMARK    7  A    between atoms: C_20  and  C_23
REMARK    8  A    between atoms: C_21  and  C_24
REMARK    9  A    between atoms: C_22  and  C_25
REMARK   10  A    between atoms: C_30  and  C_32
REMARK                            x       y       z     vdW  Elec       q    Type
REMARK                         _______ _______ _______ _____ _____    ______ ____
ROOT
ATOM      6  N   UNL     1      17.981  -2.782  32.253  0.00  0.00    -0.297 NA
ATOM     10  C   UNL     1      16.595  -2.672  30.053  0.00  0.00    +0.002 C 
ATOM     11  C   UNL     1      18.052  -3.120  29.755  0.00  0.00    +0.055 C 
ATOM     12  C   UNL     1      17.275  -1.477  32.163  0.00  0.00    +0.074 C 
ATOM     13  C   UNL     1      16.617  -1.310  30.776  0.00  0.00    +0.024 C 
ATOM     14  C   UNL     1      16.006  -3.701  31.042  0.00  0.00    +0.019 C 
ATOM     15  C   UNL     1      18.862  -2.967  31.074  0.00  0.00    +0.094 C 
ATOM     16  C   UNL     1      16.958  -3.854  32.240  0.00  0.00    +0.085 C 
ENDROOT
BRANCH  11  18
ATOM      8  N   UNL     1      19.923  -1.854  28.819  0.00  0.00    -0.237 NA
ATOM      9  N   UNL     1      20.091  -1.360  26.466  0.00  0.00    -0.232 NA
ATOM     18  C   UNL     1      18.766  -2.498  28.563  0.00  0.00    +0.050 A 
ATOM     19  C   UNL     1      18.215  -2.614  27.303  0.00  0.00    +0.052 A 
ATOM     20  C   UNL     1      18.929  -2.020  26.282  0.00  0.00    +0.076 A 
ATOM     22  C   UNL     1      20.524  -1.315  27.740  0.00  0.00    +0.127 A 
ATOM     25  C   UNL     1      21.805  -0.592  27.984  0.00  0.00    +0.088 C 
BRANCH  20  23
ATOM      1 BR   UNL     1      20.106  -4.420  24.525  0.00  0.00    -0.050 Br
ATOM     23  C   UNL     1      18.460  -2.069  24.917  0.00  0.00    +0.014 A 
ATOM     26  C   UNL     1      18.881  -3.055  24.026  0.00  0.00    +0.027 A 
ATOM     27  C   UNL     1      17.559  -1.089  24.500  0.00  0.00    +0.011 A 
ATOM     28  C   UNL     1      18.402  -3.061  22.716  0.00  0.00    +0.016 A 
ATOM     29  C   UNL     1      17.079  -1.095  23.191  0.00  0.00    +0.001 A 
ATOM     31  C   UNL     1      17.501  -2.082  22.299  0.00  0.00    +0.001 A 
ENDBRANCH  20  23
ENDBRANCH  11  18
BRANCH  12  17
ATOM     17  C   UNL     1      18.185  -0.297  32.509  0.00  0.00    +0.123 C 
BRANCH  17   7
ATOM      3  O   UNL     1      16.608   1.357  34.287  0.00  0.00    -0.275 OA
ATOM      7  N   UNL     1      17.548   0.947  32.199  0.00  0.00    -0.313 N 
ATOM     21  C   UNL     1      16.803   1.684  33.117  0.00  0.00    +0.223 C 
ATOM     33  H   UNL     1      17.645   1.298  31.250  0.00  0.00    +0.149 HD
BRANCH  21  24
ATOM     24  C   UNL     1      16.219   2.950  32.539  0.00  0.00    +0.165 C 
BRANCH  24   2
ATOM      2  S   UNL     1      16.975   4.374  33.359  0.00  0.00    -0.140 S 
BRANCH   2  30
ATOM     30  C   UNL     1      18.296   4.700  32.168  0.00  0.00    +0.189 C 
BRANCH  30  32
ATOM      5  O   UNL     1      16.713   6.161  31.087  0.00  0.00    -0.250 OA
ATOM     32  C   UNL     1      17.753   5.518  31.031  0.00  0.00    +0.315 C 
BRANCH  32   4
ATOM      4  O   UNL     1      18.548   5.481  29.932  0.00  0.00    -0.480 OA
ATOM     34  H   UNL     1      19.419   5.902  30.097  0.00  0.00    +0.295 HD
ENDBRANCH  32   4
ENDBRANCH  30  32
ENDBRANCH   2  30
ENDBRANCH  24   2
ENDBRANCH  21  24
ENDBRANCH  17   7
ENDBRANCH  12  17
TORSDOF 9
ENDMDL
MODEL 9
REMARK VINA RESULT:      -6.1      5.534      9.429
REMARK  Name = 26742498
REMARK  10 active torsions:
REMARK  status: ('A' for Active; 'I' for Inactive)
REMARK    1  A    between atoms: S_2  and  C_24
REMARK    2  A    between atoms: S_2  and  C_30
REMARK    3  A    between atoms: O_4  and  C_32
REMARK    4  A    between atoms: N_7  and  C_17
REMARK    5  A    between atoms: C_11  and  C_18
REMARK    6  A    between atoms: C_12  and  C_17
REMARK    7  A    between atoms: C_20  and  C_23
REMARK    8  A    between atoms: C_21  and  C_24
REMARK    9  A    between atoms: C_22  and  C_25
REMARK   10  A    between atoms: C_30  and  C_32
REMARK                            x       y       z     vdW  Elec       q    Type
REMARK                         _______ _______ _______ _____ _____    ______ ____
ROOT
ATOM      6  N   UNL     1      21.090   7.671  22.740  0.00  0.00    -0.297 NA
ATOM     10  C   UNL     1      19.600   9.493  21.628  0.00  0.00    +0.002 C 
ATOM     11  C   UNL     1      18.725   8.322  22.153  0.00  0.00    +0.055 C 
ATOM     12  C   UNL     1      21.631   8.020  21.401  0.00  0.00    +0.074 C 
ATOM     13  C   UNL     1      20.651   8.942  20.642  0.00  0.00    +0.024 C 
ATOM     14  C   UNL     1      20.367  10.055  22.844  0.00  0.00    +0.019 C 
ATOM     15  C   UNL     1      19.691   7.194  22.615  0.00  0.00    +0.094 C 
ATOM     16  C   UNL     1      21.087   8.902  23.565  0.00  0.00    +0.085 C 
ENDROOT
BRANCH  11  18
ATOM      8  N   UNL     1      17.963   6.892  20.321  0.00  0.00    -0.237 NA
ATOM      9  N   UNL     1      15.659   6.823  19.618  0.00  0.00    -0.232 NA
ATOM     18  C   UNL     1      17.612   7.798  21.257  0.00  0.00    +0.050 A 
ATOM     19  C   UNL     1      16.322   8.258  21.432  0.00  0.00    +0.052 A 
ATOM     20  C   UNL     1      15.378   7.730  20.576  0.00  0.00    +0.076 A 
ATOM     22  C   UNL     1      16.952   6.454  19.546  0.00  0.00    +0.127 A 
ATOM     25  C   UNL     1      17.302   5.453  18.497  0.00  0.00    +0.088 C 
BRANCH  20  23
ATOM      1 BR   UNL     1      14.584  10.246  18.768  0.00  0.00    -0.050 Br
ATOM     23  C   UNL     1      13.993   8.130  20.655  0.00  0.00    +0.014 A 
ATOM     26  C   UNL     1      13.492   9.208  19.927  0.00  0.00    +0.027 A 
ATOM     27  C   UNL     1      13.149   7.401  21.493  0.00  0.00    +0.011 A 
ATOM     28  C   UNL     1      12.146   9.559  20.037  0.00  0.00    +0.016 A 
ATOM     29  C   UNL     1      11.803   7.751  21.603  0.00  0.00    +0.001 A 
ATOM     31  C   UNL     1      11.302   8.831  20.874  0.00  0.00    +0.001 A 
ENDBRANCH  20  23
ENDBRANCH  11  18
BRANCH  12  17
ATOM     17  C   UNL     1      22.001   6.783  20.580  0.00  0.00    +0.123 C 
BRANCH  17   7
ATOM      3  O   UNL     1      20.853   4.127  20.471  0.00  0.00    -0.275 OA
ATOM      7  N   UNL     1      22.297   5.674  21.436  0.00  0.00    -0.313 N 
ATOM     21  C   UNL     1      21.697   4.423  21.315  0.00  0.00    +0.223 C 
ATOM     33  H   UNL     1      22.980   5.823  22.174  0.00  0.00    +0.149 HD
BRANCH  21  24
ATOM     24  C   UNL     1      22.167   3.428  22.350  0.00  0.00    +0.165 C 
BRANCH  24   2
ATOM      2  S   UNL     1      23.975   3.365  22.324  0.00  0.00    -0.140 S 
BRANCH   2  30
ATOM     30  C   UNL     1      24.189   2.430  20.791  0.00  0.00    +0.189 C 
BRANCH  30  32
ATOM      5  O   UNL     1      25.633   4.231  20.099  0.00  0.00    -0.250 OA
ATOM     32  C   UNL     1      24.943   3.266  19.797  0.00  0.00    +0.315 C 
BRANCH  32   4
ATOM      4  O   UNL     1      24.792   2.828  18.522  0.00  0.00    -0.480 OA
ATOM     34  H   UNL     1      24.220   3.427  17.995  0.00  0.00    +0.295 HD
ENDBRANCH  32   4
ENDBRANCH  30  32
ENDBRANCH   2  30
ENDBRANCH  24   2
ENDBRANCH  21  24
ENDBRANCH  17   7
ENDBRANCH  12  17
TORSDOF 9
ENDMDL
MODEL 10
REMARK VINA RESULT:      -6.1     13.497     16.043
REMARK  Name = 26742498
REMARK  10 active torsions:
REMARK  status: ('A' for Active; 'I' for Inactive)
REMARK    1  A    between atoms: S_2  and  C_24
REMARK    2  A    between atoms: S_2  and  C_30
REMARK    3  A    between atoms: O_4  and  C_32
REMARK    4  A    between atoms: N_7  and  C_17
REMARK    5  A    between atoms: C_11  and  C_18
REMARK    6  A    between atoms: C_12  and  C_17
REMARK    7  A    between atoms: C_20  and  C_23
REMARK    8  A    between atoms: C_21  and  C_24
REMARK    9  A    between atoms: C_22  and  C_25
REMARK   10  A    between atoms: C_30  and  C_32
REMARK                            x       y       z     vdW  Elec       q    Type
REMARK                         _______ _______ _______ _____ _____    ______ ____
ROOT
ATOM      6  N   UNL     1      17.608  -3.595  32.264  0.00  0.00    -0.297 NA
ATOM     10  C   UNL     1      16.225  -2.773  30.217  0.00  0.00    +0.002 C 
ATOM     11  C   UNL     1      17.541  -3.449  29.746  0.00  0.00    +0.055 C 
ATOM     12  C   UNL     1      17.202  -2.179  32.462  0.00  0.00    +0.074 C 
ATOM     13  C   UNL     1      16.562  -1.612  31.176  0.00  0.00    +0.024 C 
ATOM     14  C   UNL     1      15.451  -3.828  31.037  0.00  0.00    +0.019 C 
ATOM     15  C   UNL     1      18.398  -3.728  31.014  0.00  0.00    +0.094 C 
ATOM     16  C   UNL     1      16.376  -4.406  32.121  0.00  0.00    +0.085 C 
ENDROOT
BRANCH  11  18
ATOM      8  N   UNL     1      19.502  -2.187  29.012  0.00  0.00    -0.237 NA
ATOM      9  N   UNL     1      19.825  -1.538  26.713  0.00  0.00    -0.232 NA
ATOM     18  C   UNL     1      18.343  -2.772  28.645  0.00  0.00    +0.050 A 
ATOM     19  C   UNL     1      17.865  -2.781  27.350  0.00  0.00    +0.052 A 
ATOM     20  C   UNL     1      18.657  -2.143  26.416  0.00  0.00    +0.076 A 
ATOM     22  C   UNL     1      20.183  -1.596  28.010  0.00  0.00    +0.127 A 
ATOM     25  C   UNL     1      21.469  -0.937  28.377  0.00  0.00    +0.088 C 
BRANCH  20  23
ATOM      1 BR   UNL     1      19.894  -4.433  24.556  0.00  0.00    -0.050 Br
ATOM     23  C   UNL     1      18.269  -2.081  25.027  0.00  0.00    +0.014 A 
ATOM     26  C   UNL     1      18.724  -3.008  24.090  0.00  0.00    +0.027 A 
ATOM     27  C   UNL     1      17.411  -1.054  24.633  0.00  0.00    +0.011 A 
ATOM     28  C   UNL     1      18.323  -2.907  22.758  0.00  0.00    +0.016 A 
ATOM     29  C   UNL     1      17.009  -0.953  23.301  0.00  0.00    +0.001 A 
ATOM     31  C   UNL     1      17.466  -1.881  22.364  0.00  0.00    +0.001 A 
ENDBRANCH  20  23
ENDBRANCH  11  18
BRANCH  12  17
ATOM     17  C   UNL     1      18.356  -1.305  32.958  0.00  0.00    +0.123 C 
BRANCH  17   7
ATOM      3  O   UNL     1      18.014  -0.824  35.792  0.00  0.00    -0.275 OA
ATOM      7  N   UNL     1      17.863  -0.115  33.582  0.00  0.00    -0.313 N 
ATOM     21  C   UNL     1      17.729   0.036  34.960  0.00  0.00    +0.223 C 
ATOM     33  H   UNL     1      17.591   0.653  32.974  0.00  0.00    +0.149 HD
BRANCH  21  24
ATOM     24  C   UNL     1      17.169   1.378  35.366  0.00  0.00    +0.165 C 
BRANCH  24   2
ATOM      2  S   UNL     1      17.984   2.671  34.397  0.00  0.00    -0.140 S 
BRANCH   2  30
ATOM     30  C   UNL     1      16.513   3.410  33.646  0.00  0.00    +0.189 C 
BRANCH  30  32
ATOM      5  O   UNL     1      16.556   4.111  31.341  0.00  0.00    -0.250 OA
ATOM     32  C   UNL     1      16.553   3.201  32.160  0.00  0.00    +0.315 C 
BRANCH  32   4
ATOM      4  O   UNL     1      16.602   1.889  31.816  0.00  0.00    -0.480 OA
ATOM     34  H   UNL     1      16.138   1.715  30.968  0.00  0.00    +0.295 HD
ENDBRANCH  32   4
ENDBRANCH  30  32
ENDBRANCH   2  30
ENDBRANCH  24   2
ENDBRANCH  21  24
ENDBRANCH  17   7
ENDBRANCH  12  17
TORSDOF 9
ENDMDL
