MODEL 1
REMARK VINA RESULT:      -7.8      0.000      0.000
REMARK  Name = 51137436
REMARK  4 active torsions:
REMARK  status: ('A' for Active; 'I' for Inactive)
REMARK    1  A    between atoms: N_3  and  C_6
REMARK    2  A    between atoms: C_7  and  C_15
REMARK    3  A    between atoms: C_16  and  C_17
REMARK    4  A    between atoms: C_22  and  C_23
REMARK                            x       y       z     vdW  Elec       q    Type
REMARK                         _______ _______ _______ _____ _____    ______ ____
ROOT
ATOM      2  O   UNL     1      13.590   7.915  20.236  0.00  0.00    -0.420 OA
ATOM      4  N   UNL     1      12.347   7.430  18.441  0.00  0.00    -0.112 NA
ATOM      5  N   UNL     1      13.608   6.899  18.243  0.00  0.00    -0.107 NA
ATOM     15  C   UNL     1      12.383   8.014  19.616  0.00  0.00    +0.222 A 
ATOM     16  C   UNL     1      14.299   7.207  19.315  0.00  0.00    +0.248 A 
ENDROOT
BRANCH  16  17
ATOM     17  C   UNL     1      15.660   6.916  19.661  0.00  0.00    +0.038 A 
ATOM     18  C   UNL     1      16.419   6.068  18.853  0.00  0.00    +0.013 A 
ATOM     19  C   UNL     1      16.227   7.482  20.803  0.00  0.00    +0.013 A 
ATOM     20  C   UNL     1      17.743   5.786  19.189  0.00  0.00    +0.004 A 
ATOM     21  C   UNL     1      17.551   7.200  21.137  0.00  0.00    +0.004 A 
ATOM     22  C   UNL     1      18.309   6.352  20.330  0.00  0.00    -0.050 A 
ATOM     23  C   UNL     1      19.725   6.049  20.689  0.00  0.00    +0.044 C 
ENDBRANCH  16  17
BRANCH  15   7
ATOM      3  N   UNL     1      10.929  10.290  22.093  0.00  0.00    -0.298 NA
ATOM      7  C   UNL     1      11.294   8.759  20.354  0.00  0.00    +0.092 C 
ATOM      8  C   UNL     1      11.763  10.114  20.903  0.00  0.00    +0.097 C 
ATOM      9  C   UNL     1      10.920   8.980  22.744  0.00  0.00    +0.085 C 
ATOM     10  C   UNL     1      10.720   8.022  21.576  0.00  0.00    +0.029 C 
BRANCH   3   6
ATOM      1  O   UNL     1      10.873  13.526  24.766  0.00  0.00    -0.380 OA
ATOM      6  C   UNL     1      11.428  11.344  22.972  0.00  0.00    +0.061 C 
ATOM     11  C   UNL     1      10.967  11.123  24.416  0.00  0.00    +0.047 C 
ATOM     12  C   UNL     1      10.960  12.716  22.477  0.00  0.00    +0.047 C 
ATOM     13  C   UNL     1      11.382  12.300  25.292  0.00  0.00    +0.161 C 
ATOM     14  C   UNL     1      11.377  13.805  23.460  0.00  0.00    +0.161 C 
ENDBRANCH   3   6
ENDBRANCH  15   7
TORSDOF 3
ENDMDL
MODEL 2
REMARK VINA RESULT:      -7.2     16.653     19.890
REMARK  Name = 51137436
REMARK  4 active torsions:
REMARK  status: ('A' for Active; 'I' for Inactive)
REMARK    1  A    between atoms: N_3  and  C_6
REMARK    2  A    between atoms: C_7  and  C_15
REMARK    3  A    between atoms: C_16  and  C_17
REMARK    4  A    between atoms: C_22  and  C_23
REMARK                            x       y       z     vdW  Elec       q    Type
REMARK                         _______ _______ _______ _____ _____    ______ ____
ROOT
ATOM      2  O   UNL     1      10.421   4.488   4.430  0.00  0.00    -0.420 OA
ATOM      4  N   UNL     1      11.193   6.283   3.342  0.00  0.00    -0.112 NA
ATOM      5  N   UNL     1      10.902   6.662   4.639  0.00  0.00    -0.107 NA
ATOM     15  C   UNL     1      10.896   5.006   3.266  0.00  0.00    +0.222 A 
ATOM     16  C   UNL     1      10.455   5.583   5.237  0.00  0.00    +0.248 A 
ENDROOT
BRANCH  16  17
ATOM     17  C   UNL     1      10.005   5.385   6.584  0.00  0.00    +0.038 A 
ATOM     18  C   UNL     1      10.069   4.116   7.161  0.00  0.00    +0.013 A 
ATOM     19  C   UNL     1       9.504   6.460   7.319  0.00  0.00    +0.013 A 
ATOM     20  C   UNL     1       9.632   3.923   8.471  0.00  0.00    +0.004 A 
ATOM     21  C   UNL     1       9.068   6.266   8.629  0.00  0.00    +0.004 A 
ATOM     22  C   UNL     1       9.132   4.998   9.205  0.00  0.00    -0.050 A 
ATOM     23  C   UNL     1       8.664   4.790  10.607  0.00  0.00    +0.044 C 
ENDBRANCH  16  17
BRANCH  15   7
ATOM      3  N   UNL     1      12.372   3.506   0.266  0.00  0.00    -0.298 NA
ATOM      7  C   UNL     1      11.009   4.060   2.092  0.00  0.00    +0.092 C 
ATOM      8  C   UNL     1      12.463   3.758   1.705  0.00  0.00    +0.097 C 
ATOM      9  C   UNL     1      11.474   4.543  -0.242  0.00  0.00    +0.085 C 
ATOM     10  C   UNL     1      10.356   4.561   0.793  0.00  0.00    +0.029 C 
BRANCH   3   6
ATOM      1  O   UNL     1      15.994   5.029  -1.213  0.00  0.00    -0.380 OA
ATOM      6  C   UNL     1      13.678   3.531  -0.388  0.00  0.00    +0.061 C 
ATOM     11  C   UNL     1      14.778   3.949   0.593  0.00  0.00    +0.047 C 
ATOM     12  C   UNL     1      13.655   4.484  -1.587  0.00  0.00    +0.047 C 
ATOM     13  C   UNL     1      16.109   4.099  -0.136  0.00  0.00    +0.161 C 
ATOM     14  C   UNL     1      15.049   4.605  -2.195  0.00  0.00    +0.161 C 
ENDBRANCH   3   6
ENDBRANCH  15   7
TORSDOF 3
ENDMDL
MODEL 3
REMARK VINA RESULT:      -7.0     26.416     28.123
REMARK  Name = 51137436
REMARK  4 active torsions:
REMARK  status: ('A' for Active; 'I' for Inactive)
REMARK    1  A    between atoms: N_3  and  C_6
REMARK    2  A    between atoms: C_7  and  C_15
REMARK    3  A    between atoms: C_16  and  C_17
REMARK    4  A    between atoms: C_22  and  C_23
REMARK                            x       y       z     vdW  Elec       q    Type
REMARK                         _______ _______ _______ _____ _____    ______ ____
ROOT
ATOM      2  O   UNL     1      -3.320 -11.026  14.705  0.00  0.00    -0.420 OA
ATOM      4  N   UNL     1      -1.140 -10.784  15.139  0.00  0.00    -0.112 NA
ATOM      5  N   UNL     1      -1.829 -10.663  16.331  0.00  0.00    -0.107 NA
ATOM     15  C   UNL     1      -2.050 -10.995  14.217  0.00  0.00    +0.222 A 
ATOM     16  C   UNL     1      -3.097 -10.811  16.030  0.00  0.00    +0.248 A 
ENDROOT
BRANCH  16  17
ATOM     17  C   UNL     1      -4.262 -10.782  16.866  0.00  0.00    +0.038 A 
ATOM     18  C   UNL     1      -4.247 -11.423  18.104  0.00  0.00    +0.013 A 
ATOM     19  C   UNL     1      -5.409 -10.110  16.441  0.00  0.00    +0.013 A 
ATOM     20  C   UNL     1      -5.381 -11.394  18.918  0.00  0.00    +0.004 A 
ATOM     21  C   UNL     1      -6.541 -10.081  17.255  0.00  0.00    +0.004 A 
ATOM     22  C   UNL     1      -6.527 -10.724  18.493  0.00  0.00    -0.050 A 
ATOM     23  C   UNL     1      -7.738 -10.694  19.363  0.00  0.00    +0.044 C 
ENDBRANCH  16  17
BRANCH  15   7
ATOM      3  N   UNL     1      -2.835 -10.672  10.652  0.00  0.00    -0.298 NA
ATOM      7  C   UNL     1      -1.884 -11.204  12.729  0.00  0.00    +0.092 C 
ATOM      8  C   UNL     1      -2.414 -10.028  11.898  0.00  0.00    +0.097 C 
ATOM      9  C   UNL     1      -3.522 -11.893  11.073  0.00  0.00    +0.085 C 
ATOM     10  C   UNL     1      -2.609 -12.438  12.164  0.00  0.00    +0.029 C 
BRANCH   3   6
ATOM      1  O   UNL     1      -6.319  -9.091   8.927  0.00  0.00    -0.380 OA
ATOM      6  C   UNL     1      -3.685  -9.808   9.837  0.00  0.00    +0.061 C 
ATOM     11  C   UNL     1      -4.668  -9.021  10.708  0.00  0.00    +0.047 C 
ATOM     12  C   UNL     1      -4.450 -10.638   8.801  0.00  0.00    +0.047 C 
ATOM     13  C   UNL     1      -5.633  -8.228   9.835  0.00  0.00    +0.161 C 
ATOM     14  C   UNL     1      -5.427  -9.755   8.033  0.00  0.00    +0.161 C 
ENDBRANCH   3   6
ENDBRANCH  15   7
TORSDOF 3
ENDMDL
MODEL 4
REMARK VINA RESULT:      -6.8     27.236     30.061
REMARK  Name = 51137436
REMARK  4 active torsions:
REMARK  status: ('A' for Active; 'I' for Inactive)
REMARK    1  A    between atoms: N_3  and  C_6
REMARK    2  A    between atoms: C_7  and  C_15
REMARK    3  A    between atoms: C_16  and  C_17
REMARK    4  A    between atoms: C_22  and  C_23
REMARK                            x       y       z     vdW  Elec       q    Type
REMARK                         _______ _______ _______ _____ _____    ______ ____
ROOT
ATOM      2  O   UNL     1     -15.907   4.477  24.635  0.00  0.00    -0.420 OA
ATOM      4  N   UNL     1     -16.876   2.516  24.171  0.00  0.00    -0.112 NA
ATOM      5  N   UNL     1     -16.175   2.923  23.050  0.00  0.00    -0.107 NA
ATOM     15  C   UNL     1     -16.692   3.454  25.070  0.00  0.00    +0.222 A 
ATOM     16  C   UNL     1     -15.626   4.071  23.367  0.00  0.00    +0.248 A 
ENDROOT
BRANCH  16  17
ATOM     17  C   UNL     1     -14.791   4.947  22.598  0.00  0.00    +0.038 A 
ATOM     18  C   UNL     1     -13.403   4.818  22.658  0.00  0.00    +0.013 A 
ATOM     19  C   UNL     1     -15.366   5.928  21.789  0.00  0.00    +0.013 A 
ATOM     20  C   UNL     1     -12.591   5.670  21.909  0.00  0.00    +0.004 A 
ATOM     21  C   UNL     1     -14.553   6.779  21.041  0.00  0.00    +0.004 A 
ATOM     22  C   UNL     1     -13.165   6.650  21.101  0.00  0.00    -0.050 A 
ATOM     23  C   UNL     1     -12.296   7.561  20.302  0.00  0.00    +0.044 C 
ENDBRANCH  16  17
BRANCH  15   7
ATOM      3  N   UNL     1     -16.864   2.755  28.663  0.00  0.00    -0.298 NA
ATOM      7  C   UNL     1     -17.217   3.549  26.485  0.00  0.00    +0.092 C 
ATOM      8  C   UNL     1     -16.125   3.340  27.543  0.00  0.00    +0.097 C 
ATOM      9  C   UNL     1     -17.761   1.775  28.052  0.00  0.00    +0.085 C 
ATOM     10  C   UNL     1     -18.305   2.522  26.840  0.00  0.00    +0.029 C 
BRANCH   3   6
ATOM      1  O   UNL     1     -13.453   0.939  30.303  0.00  0.00    -0.380 OA
ATOM      6  C   UNL     1     -15.982   2.156  29.661  0.00  0.00    +0.061 C 
ATOM     11  C   UNL     1     -14.695   2.971  29.820  0.00  0.00    +0.047 C 
ATOM     12  C   UNL     1     -15.643   0.713  29.275  0.00  0.00    +0.047 C 
ATOM     13  C   UNL     1     -13.730   2.262  30.763  0.00  0.00    +0.161 C 
ATOM     14  C   UNL     1     -14.627   0.128  30.249  0.00  0.00    +0.161 C 
ENDBRANCH   3   6
ENDBRANCH  15   7
TORSDOF 3
ENDMDL
MODEL 5
REMARK VINA RESULT:      -6.8     26.362     29.383
REMARK  Name = 51137436
REMARK  4 active torsions:
REMARK  status: ('A' for Active; 'I' for Inactive)
REMARK    1  A    between atoms: N_3  and  C_6
REMARK    2  A    between atoms: C_7  and  C_15
REMARK    3  A    between atoms: C_16  and  C_17
REMARK    4  A    between atoms: C_22  and  C_23
REMARK                            x       y       z     vdW  Elec       q    Type
REMARK                         _______ _______ _______ _____ _____    ______ ____
ROOT
ATOM      2  O   UNL     1      -7.810 -10.410  18.160  0.00  0.00    -0.420 OA
ATOM      4  N   UNL     1      -8.024 -11.642  20.013  0.00  0.00    -0.112 NA
ATOM      5  N   UNL     1      -9.228 -11.001  19.785  0.00  0.00    -0.107 NA
ATOM     15  C   UNL     1      -7.227 -11.267  19.040  0.00  0.00    +0.222 A 
ATOM     16  C   UNL     1      -9.057 -10.294  18.694  0.00  0.00    +0.248 A 
ENDROOT
BRANCH  16  17
ATOM     17  C   UNL     1      -9.963  -9.433  17.991  0.00  0.00    +0.038 A 
ATOM     18  C   UNL     1     -11.330  -9.714  17.988  0.00  0.00    +0.013 A 
ATOM     19  C   UNL     1      -9.479  -8.315  17.310  0.00  0.00    +0.013 A 
ATOM     20  C   UNL     1     -12.212  -8.876  17.304  0.00  0.00    +0.004 A 
ATOM     21  C   UNL     1     -10.361  -7.479  16.628  0.00  0.00    +0.004 A 
ATOM     22  C   UNL     1     -11.727  -7.760  16.624  0.00  0.00    -0.050 A 
ATOM     23  C   UNL     1     -12.671  -6.865  15.892  0.00  0.00    +0.044 C 
ENDBRANCH  16  17
BRANCH  15   7
ATOM      3  N   UNL     1      -4.050 -11.400  17.218  0.00  0.00    -0.298 NA
ATOM      7  C   UNL     1      -5.789 -11.649  18.772  0.00  0.00    +0.092 C 
ATOM      8  C   UNL     1      -5.035 -10.598  17.947  0.00  0.00    +0.097 C 
ATOM      9  C   UNL     1      -4.787 -12.580  16.765  0.00  0.00    +0.085 C 
ATOM     10  C   UNL     1      -5.604 -12.962  17.992  0.00  0.00    +0.029 C 
BRANCH   3   6
ATOM      1  O   UNL     1      -1.735 -10.667  13.795  0.00  0.00    -0.380 OA
ATOM      6  C   UNL     1      -3.441 -10.665  16.113  0.00  0.00    +0.061 C 
ATOM     11  C   UNL     1      -3.893 -11.227  14.762  0.00  0.00    +0.047 C 
ATOM     12  C   UNL     1      -1.914 -10.715  16.218  0.00  0.00    +0.047 C 
ATOM     13  C   UNL     1      -3.146 -10.539  13.624  0.00  0.00    +0.161 C 
ATOM     14  C   UNL     1      -1.277 -10.055  15.000  0.00  0.00    +0.161 C 
ENDBRANCH   3   6
ENDBRANCH  15   7
TORSDOF 3
ENDMDL
MODEL 6
REMARK VINA RESULT:      -6.6     27.707     30.041
REMARK  Name = 51137436
REMARK  4 active torsions:
REMARK  status: ('A' for Active; 'I' for Inactive)
REMARK    1  A    between atoms: N_3  and  C_6
REMARK    2  A    between atoms: C_7  and  C_15
REMARK    3  A    between atoms: C_16  and  C_17
REMARK    4  A    between atoms: C_22  and  C_23
REMARK                            x       y       z     vdW  Elec       q    Type
REMARK                         _______ _______ _______ _____ _____    ______ ____
ROOT
ATOM      2  O   UNL     1     -15.941   4.045  24.929  0.00  0.00    -0.420 OA
ATOM      4  N   UNL     1     -16.728   2.125  24.096  0.00  0.00    -0.112 NA
ATOM      5  N   UNL     1     -16.173   2.847  23.055  0.00  0.00    -0.107 NA
ATOM     15  C   UNL     1     -16.569   2.863  25.170  0.00  0.00    +0.222 A 
ATOM     16  C   UNL     1     -15.726   3.959  23.588  0.00  0.00    +0.248 A 
ENDROOT
BRANCH  16  17
ATOM     17  C   UNL     1     -15.059   5.077  22.986  0.00  0.00    +0.038 A 
ATOM     18  C   UNL     1     -15.552   6.369  23.178  0.00  0.00    +0.013 A 
ATOM     19  C   UNL     1     -13.918   4.874  22.210  0.00  0.00    +0.013 A 
ATOM     20  C   UNL     1     -14.903   7.456  22.593  0.00  0.00    +0.004 A 
ATOM     21  C   UNL     1     -13.269   5.962  21.626  0.00  0.00    +0.004 A 
ATOM     22  C   UNL     1     -13.762   7.253  21.817  0.00  0.00    -0.050 A 
ATOM     23  C   UNL     1     -13.069   8.416  21.192  0.00  0.00    +0.044 C 
ENDBRANCH  16  17
BRANCH  15   7
ATOM      3  N   UNL     1     -16.140   2.416  28.781  0.00  0.00    -0.298 NA
ATOM      7  C   UNL     1     -16.979   2.585  26.598  0.00  0.00    +0.092 C 
ATOM      8  C   UNL     1     -16.100   3.313  27.625  0.00  0.00    +0.097 C 
ATOM      9  C   UNL     1     -15.992   1.072  28.222  0.00  0.00    +0.085 C 
ATOM     10  C   UNL     1     -16.917   1.105  27.012  0.00  0.00    +0.029 C 
BRANCH   3   6
ATOM      1  O   UNL     1     -14.337   3.051  32.518  0.00  0.00    -0.380 OA
ATOM      6  C   UNL     1     -15.104   2.727  29.763  0.00  0.00    +0.061 C 
ATOM     11  C   UNL     1     -14.847   1.534  30.690  0.00  0.00    +0.047 C 
ATOM     12  C   UNL     1     -15.503   3.954  30.588  0.00  0.00    +0.047 C 
ATOM     13  C   UNL     1     -13.863   1.919  31.789  0.00  0.00    +0.161 C 
ATOM     14  C   UNL     1     -14.482   4.205  31.692  0.00  0.00    +0.161 C 
ENDBRANCH   3   6
ENDBRANCH  15   7
TORSDOF 3
ENDMDL
MODEL 7
REMARK VINA RESULT:      -6.6     25.844     27.893
REMARK  Name = 51137436
REMARK  4 active torsions:
REMARK  status: ('A' for Active; 'I' for Inactive)
REMARK    1  A    between atoms: N_3  and  C_6
REMARK    2  A    between atoms: C_7  and  C_15
REMARK    3  A    between atoms: C_16  and  C_17
REMARK    4  A    between atoms: C_22  and  C_23
REMARK                            x       y       z     vdW  Elec       q    Type
REMARK                         _______ _______ _______ _____ _____    ______ ____
ROOT
ATOM      2  O   UNL     1      -3.491 -10.523  11.971  0.00  0.00    -0.420 OA
ATOM      4  N   UNL     1      -1.347  -9.888  11.980  0.00  0.00    -0.112 NA
ATOM      5  N   UNL     1      -1.941  -9.370  10.844  0.00  0.00    -0.107 NA
ATOM     15  C   UNL     1      -2.289 -10.553  12.607  0.00  0.00    +0.222 A 
ATOM     16  C   UNL     1      -3.191  -9.767  10.881  0.00  0.00    +0.248 A 
ENDROOT
BRANCH  16  17
ATOM     17  C   UNL     1      -4.271  -9.529   9.967  0.00  0.00    +0.038 A 
ATOM     18  C   UNL     1      -5.202  -8.525  10.233  0.00  0.00    +0.013 A 
ATOM     19  C   UNL     1      -4.388 -10.301   8.810  0.00  0.00    +0.013 A 
ATOM     20  C   UNL     1      -6.251  -8.294   9.343  0.00  0.00    +0.004 A 
ATOM     21  C   UNL     1      -5.437 -10.068   7.921  0.00  0.00    +0.004 A 
ATOM     22  C   UNL     1      -6.369  -9.065   8.188  0.00  0.00    -0.050 A 
ATOM     23  C   UNL     1      -7.491  -8.817   7.237  0.00  0.00    +0.044 C 
ENDBRANCH  16  17
BRANCH  15   7
ATOM      3  N   UNL     1      -3.340 -11.663  15.938  0.00  0.00    -0.298 NA
ATOM      7  C   UNL     1      -2.220 -11.326  13.905  0.00  0.00    +0.092 C 
ATOM      8  C   UNL     1      -3.604 -11.622  14.498  0.00  0.00    +0.097 C 
ATOM      9  C   UNL     1      -2.446 -10.533  16.189  0.00  0.00    +0.085 C 
ATOM     10  C   UNL     1      -1.453 -10.622  15.037  0.00  0.00    +0.029 C 
BRANCH   3   6
ATOM      1  O   UNL     1      -6.101 -10.277  18.779  0.00  0.00    -0.380 OA
ATOM      6  C   UNL     1      -4.564 -11.592  16.732  0.00  0.00    +0.061 C 
ATOM     11  C   UNL     1      -5.307 -10.276  16.483  0.00  0.00    +0.047 C 
ATOM     12  C   UNL     1      -4.241 -11.738  18.222  0.00  0.00    +0.047 C 
ATOM     13  C   UNL     1      -6.508 -10.160  17.415  0.00  0.00    +0.161 C 
ATOM     14  C   UNL     1      -5.501 -11.541  19.058  0.00  0.00    +0.161 C 
ENDBRANCH   3   6
ENDBRANCH  15   7
TORSDOF 3
ENDMDL
MODEL 8
REMARK VINA RESULT:      -6.6      4.223      9.286
REMARK  Name = 51137436
REMARK  4 active torsions:
REMARK  status: ('A' for Active; 'I' for Inactive)
REMARK    1  A    between atoms: N_3  and  C_6
REMARK    2  A    between atoms: C_7  and  C_15
REMARK    3  A    between atoms: C_16  and  C_17
REMARK    4  A    between atoms: C_22  and  C_23
REMARK                            x       y       z     vdW  Elec       q    Type
REMARK                         _______ _______ _______ _____ _____    ______ ____
ROOT
ATOM      2  O   UNL     1      17.222   7.270  20.318  0.00  0.00    -0.420 OA
ATOM      4  N   UNL     1      18.195   5.539  19.289  0.00  0.00    -0.112 NA
ATOM      5  N   UNL     1      16.854   5.535  18.954  0.00  0.00    -0.107 NA
ATOM     15  C   UNL     1      18.364   6.568  20.086  0.00  0.00    +0.222 A 
ATOM     16  C   UNL     1      16.326   6.562  19.577  0.00  0.00    +0.248 A 
ENDROOT
BRANCH  16  17
ATOM     17  C   UNL     1      14.975   7.045  19.597  0.00  0.00    +0.038 A 
ATOM     18  C   UNL     1      14.180   6.843  20.725  0.00  0.00    +0.013 A 
ATOM     19  C   UNL     1      14.458   7.718  18.490  0.00  0.00    +0.013 A 
ATOM     20  C   UNL     1      12.866   7.314  20.744  0.00  0.00    +0.004 A 
ATOM     21  C   UNL     1      13.146   8.188  18.510  0.00  0.00    +0.004 A 
ATOM     22  C   UNL     1      12.350   7.986  19.637  0.00  0.00    -0.050 A 
ATOM     23  C   UNL     1      10.945   8.488  19.659  0.00  0.00    +0.044 C 
ENDBRANCH  16  17
BRANCH  15   7
ATOM      3  N   UNL     1      21.414   6.379  22.109  0.00  0.00    -0.298 NA
ATOM      7  C   UNL     1      19.622   7.066  20.761  0.00  0.00    +0.092 C 
ATOM      8  C   UNL     1      20.699   5.981  20.895  0.00  0.00    +0.097 C 
ATOM      9  C   UNL     1      20.367   6.767  23.053  0.00  0.00    +0.085 C 
ATOM     10  C   UNL     1      19.422   7.595  22.192  0.00  0.00    +0.029 C 
BRANCH   3   6
ATOM      1  O   UNL     1      22.552   2.965  24.269  0.00  0.00    -0.380 OA
ATOM      6  C   UNL     1      22.266   5.313  22.629  0.00  0.00    +0.061 C 
ATOM     11  C   UNL     1      21.758   3.937  22.188  0.00  0.00    +0.047 C 
ATOM     12  C   UNL     1      22.332   5.382  24.158  0.00  0.00    +0.047 C 
ATOM     13  C   UNL     1      22.577   2.833  22.847  0.00  0.00    +0.161 C 
ATOM     14  C   UNL     1      23.120   4.198  24.708  0.00  0.00    +0.161 C 
ENDBRANCH   3   6
ENDBRANCH  15   7
TORSDOF 3
ENDMDL
MODEL 9
REMARK VINA RESULT:      -6.4     16.527     19.563
REMARK  Name = 51137436
REMARK  4 active torsions:
REMARK  status: ('A' for Active; 'I' for Inactive)
REMARK    1  A    between atoms: N_3  and  C_6
REMARK    2  A    between atoms: C_7  and  C_15
REMARK    3  A    between atoms: C_16  and  C_17
REMARK    4  A    between atoms: C_22  and  C_23
REMARK                            x       y       z     vdW  Elec       q    Type
REMARK                         _______ _______ _______ _____ _____    ______ ____
ROOT
ATOM      2  O   UNL     1       9.556   6.681   3.647  0.00  0.00    -0.420 OA
ATOM      4  N   UNL     1       8.186   8.299   2.938  0.00  0.00    -0.112 NA
ATOM      5  N   UNL     1       7.973   8.122   4.292  0.00  0.00    -0.107 NA
ATOM     15  C   UNL     1       9.118   7.437   2.605  0.00  0.00    +0.222 A 
ATOM     16  C   UNL     1       8.794   7.168   4.663  0.00  0.00    +0.248 A 
ENDROOT
BRANCH  16  17
ATOM     17  C   UNL     1       9.008   6.572   5.950  0.00  0.00    +0.038 A 
ATOM     18  C   UNL     1       8.643   7.261   7.107  0.00  0.00    +0.013 A 
ATOM     19  C   UNL     1       9.579   5.303   6.045  0.00  0.00    +0.013 A 
ATOM     20  C   UNL     1       8.850   6.681   8.359  0.00  0.00    +0.004 A 
ATOM     21  C   UNL     1       9.786   4.724   7.297  0.00  0.00    +0.004 A 
ATOM     22  C   UNL     1       9.422   5.413   8.454  0.00  0.00    -0.050 A 
ATOM     23  C   UNL     1       9.644   4.794   9.792  0.00  0.00    +0.044 C 
ENDBRANCH  16  17
BRANCH  15   7
ATOM      3  N   UNL     1      11.483   5.995   0.206  0.00  0.00    -0.298 NA
ATOM      7  C   UNL     1       9.753   7.178   1.258  0.00  0.00    +0.092 C 
ATOM      8  C   UNL     1      10.386   5.784   1.153  0.00  0.00    +0.097 C 
ATOM      9  C   UNL     1      12.092   7.261   0.611  0.00  0.00    +0.085 C 
ATOM     10  C   UNL     1      10.884   8.149   0.879  0.00  0.00    +0.029 C 
BRANCH   3   6
ATOM      1  O   UNL     1      14.862   3.729   1.242  0.00  0.00    -0.380 OA
ATOM      6  C   UNL     1      12.440   4.891   0.208  0.00  0.00    +0.061 C 
ATOM     11  C   UNL     1      12.506   4.220   1.583  0.00  0.00    +0.047 C 
ATOM     12  C   UNL     1      13.830   5.390  -0.199  0.00  0.00    +0.047 C 
ATOM     13  C   UNL     1      13.603   3.161   1.604  0.00  0.00    +0.161 C 
ATOM     14  C   UNL     1      14.853   4.266  -0.080  0.00  0.00    +0.161 C 
ENDBRANCH   3   6
ENDBRANCH  15   7
TORSDOF 3
ENDMDL
MODEL 10
REMARK VINA RESULT:      -6.4     27.541     30.397
REMARK  Name = 51137436
REMARK  4 active torsions:
REMARK  status: ('A' for Active; 'I' for Inactive)
REMARK    1  A    between atoms: N_3  and  C_6
REMARK    2  A    between atoms: C_7  and  C_15
REMARK    3  A    between atoms: C_16  and  C_17
REMARK    4  A    between atoms: C_22  and  C_23
REMARK                            x       y       z     vdW  Elec       q    Type
REMARK                         _______ _______ _______ _____ _____    ______ ____
ROOT
ATOM      2  O   UNL     1     -13.815   6.674  33.089  0.00  0.00    -0.420 OA
ATOM      4  N   UNL     1     -13.379   6.851  35.275  0.00  0.00    -0.112 NA
ATOM      5  N   UNL     1     -12.847   7.959  34.642  0.00  0.00    -0.107 NA
ATOM     15  C   UNL     1     -13.933   6.129  34.329  0.00  0.00    +0.222 A 
ATOM     16  C   UNL     1     -13.125   7.813  33.368  0.00  0.00    +0.248 A 
ENDROOT
BRANCH  16  17
ATOM     17  C   UNL     1     -12.821   8.654  32.247  0.00  0.00    +0.038 A 
ATOM     18  C   UNL     1     -13.847   9.320  31.576  0.00  0.00    +0.013 A 
ATOM     19  C   UNL     1     -11.499   8.806  31.827  0.00  0.00    +0.013 A 
ATOM     20  C   UNL     1     -13.551  10.138  30.485  0.00  0.00    +0.004 A 
ATOM     21  C   UNL     1     -11.204   9.624  30.737  0.00  0.00    +0.004 A 
ATOM     22  C   UNL     1     -12.230  10.290  30.066  0.00  0.00    -0.050 A 
ATOM     23  C   UNL     1     -11.915  11.164  28.899  0.00  0.00    +0.044 C 
ENDBRANCH  16  17
BRANCH  15   7
ATOM      3  N   UNL     1     -15.360   2.959  33.168  0.00  0.00    -0.298 NA
ATOM      7  C   UNL     1     -14.667   4.811  34.430  0.00  0.00    +0.092 C 
ATOM      8  C   UNL     1     -14.166   3.769  33.420  0.00  0.00    +0.097 C 
ATOM      9  C   UNL     1     -16.450   3.925  33.040  0.00  0.00    +0.085 C 
ATOM     10  C   UNL     1     -16.183   4.894  34.184  0.00  0.00    +0.029 C 
BRANCH   3   6
ATOM      1  O   UNL     1     -13.576   0.404  30.356  0.00  0.00    -0.380 OA
ATOM      6  C   UNL     1     -15.221   2.115  31.984  0.00  0.00    +0.061 C 
ATOM     11  C   UNL     1     -14.905   0.668  32.373  0.00  0.00    +0.047 C 
ATOM     12  C   UNL     1     -14.124   2.662  31.065  0.00  0.00    +0.047 C 
ATOM     13  C   UNL     1     -14.631  -0.169  31.128  0.00  0.00    +0.161 C 
ATOM     14  C   UNL     1     -13.895   1.716  29.892  0.00  0.00    +0.161 C 
ENDBRANCH   3   6
ENDBRANCH  15   7
TORSDOF 3
ENDMDL
