MODEL 1
REMARK VINA RESULT:      -6.4      0.000      0.000
REMARK  Name = 45783636
REMARK  11 active torsions:
REMARK  status: ('A' for Active; 'I' for Inactive)
REMARK    1  A    between atoms: O_2  and  C_26
REMARK    2  A    between atoms: O_2  and  C_27
REMARK    3  A    between atoms: N_4  and  C_12
REMARK    4  A    between atoms: N_8  and  C_24
REMARK    5  A    between atoms: C_9  and  C_15
REMARK    6  A    between atoms: C_12  and  C_14
REMARK    7  A    between atoms: C_14  and  C_16
REMARK    8  A    between atoms: C_14  and  C_17
REMARK    9  A    between atoms: C_14  and  C_18
REMARK   10  A    between atoms: C_19  and  C_20
REMARK   11  A    between atoms: C_25  and  C_26
REMARK                            x       y       z     vdW  Elec       q    Type
REMARK                         _______ _______ _______ _____ _____    ______ ____
ROOT
ATOM      1  O   UNL     1      14.930   7.093  19.266  0.00  0.00    -0.336 OA
ATOM      5  N   UNL     1      16.564   8.165  20.359  0.00  0.00    -0.190 NA
ATOM      6  N   UNL     1      16.016   6.210  19.307  0.00  0.00    -0.056 NA
ATOM     15  C   UNL     1      15.337   8.220  19.907  0.00  0.00    +0.245 A 
ATOM     19  C   UNL     1      16.940   6.913  19.967  0.00  0.00    +0.204 A 
ENDROOT
BRANCH  19  20
ATOM      7  N   UNL     1      19.881   4.639  19.958  0.00  0.00    -0.239 NA
ATOM     20  C   UNL     1      18.247   6.397  20.250  0.00  0.00    +0.041 A 
ATOM     21  C   UNL     1      19.137   7.099  21.056  0.00  0.00    +0.016 A 
ATOM     22  C   UNL     1      18.664   5.182  19.730  0.00  0.00    +0.124 A 
ATOM     23  C   UNL     1      20.398   6.573  21.313  0.00  0.00    +0.044 A 
ATOM     24  C   UNL     1      20.718   5.351  20.745  0.00  0.00    +0.125 A 
BRANCH  24   8
ATOM      3  O   UNL     1      21.868   4.204  23.278  0.00  0.00    -0.273 OA
ATOM      8  N   UNL     1      21.990   4.829  21.011  0.00  0.00    -0.268 N 
ATOM     25  C   UNL     1      22.472   4.307  22.215  0.00  0.00    +0.244 C 
ATOM     28  H   UNL     1      22.625   4.843  20.217  0.00  0.00    +0.156 HD
BRANCH  25  26
ATOM     26  C   UNL     1      23.910   3.848  22.102  0.00  0.00    +0.255 C 
BRANCH  26   2
ATOM      2  O   UNL     1      24.170   3.488  20.762  0.00  0.00    -0.374 OA
ATOM     27  C   UNL     1      24.443   2.096  20.629  0.00  0.00    +0.194 C 
ENDBRANCH  26   2
ENDBRANCH  25  26
ENDBRANCH  24   8
ENDBRANCH  19  20
BRANCH  15   9
ATOM      4  N   UNL     1      13.476   9.381  21.205  0.00  0.00    -0.291 NA
ATOM      9  C   UNL     1      14.322   9.351  20.001  0.00  0.00    +0.146 C 
ATOM     10  C   UNL     1      14.938  10.757  20.026  0.00  0.00    +0.030 C 
ATOM     11  C   UNL     1      14.215  10.083  22.248  0.00  0.00    +0.085 C 
ATOM     13  C   UNL     1      14.936  11.188  21.493  0.00  0.00    +0.017 C 
BRANCH   4  12
ATOM     12  C   UNL     1      12.914   8.117  21.638  0.00  0.00    +0.091 C 
BRANCH  12  14
ATOM     14  C   UNL     1      11.377   8.014  21.459  0.00  0.00    -0.025 C 
ATOM     16  C   UNL     1      10.644   8.867  22.509  0.00  0.00    +0.012 C 
ATOM     17  C   UNL     1      10.948   8.465  20.051  0.00  0.00    +0.012 C 
ATOM     18  C   UNL     1      10.966   6.541  21.646  0.00  0.00    +0.012 C 
ENDBRANCH  12  14
ENDBRANCH   4  12
ENDBRANCH  15   9
TORSDOF 7
ENDMDL
MODEL 2
REMARK VINA RESULT:      -6.2      2.327      9.791
REMARK  Name = 45783636
REMARK  11 active torsions:
REMARK  status: ('A' for Active; 'I' for Inactive)
REMARK    1  A    between atoms: O_2  and  C_26
REMARK    2  A    between atoms: O_2  and  C_27
REMARK    3  A    between atoms: N_4  and  C_12
REMARK    4  A    between atoms: N_8  and  C_24
REMARK    5  A    between atoms: C_9  and  C_15
REMARK    6  A    between atoms: C_12  and  C_14
REMARK    7  A    between atoms: C_14  and  C_16
REMARK    8  A    between atoms: C_14  and  C_17
REMARK    9  A    between atoms: C_14  and  C_18
REMARK   10  A    between atoms: C_19  and  C_20
REMARK   11  A    between atoms: C_25  and  C_26
REMARK                            x       y       z     vdW  Elec       q    Type
REMARK                         _______ _______ _______ _____ _____    ______ ____
ROOT
ATOM      1  O   UNL     1      21.384   5.966  23.482  0.00  0.00    -0.336 OA
ATOM      5  N   UNL     1      21.065   5.670  21.285  0.00  0.00    -0.190 NA
ATOM      6  N   UNL     1      20.086   6.415  23.213  0.00  0.00    -0.056 NA
ATOM     15  C   UNL     1      21.891   5.545  22.293  0.00  0.00    +0.245 A 
ATOM     19  C   UNL     1      19.971   6.208  21.898  0.00  0.00    +0.204 A 
ENDROOT
BRANCH  19  20
ATOM      7  N   UNL     1      17.311   6.059  19.305  0.00  0.00    -0.239 NA
ATOM     20  C   UNL     1      18.780   6.529  21.167  0.00  0.00    +0.041 A 
ATOM     21  C   UNL     1      17.951   7.572  21.566  0.00  0.00    +0.016 A 
ATOM     22  C   UNL     1      18.419   5.809  20.039  0.00  0.00    +0.124 A 
ATOM     23  C   UNL     1      16.803   7.859  20.837  0.00  0.00    +0.044 A 
ATOM     24  C   UNL     1      16.530   7.080  19.724  0.00  0.00    +0.125 A 
BRANCH  24   8
ATOM      3  O   UNL     1      13.638   6.533  20.348  0.00  0.00    -0.273 OA
ATOM      8  N   UNL     1      15.373   7.377  18.996  0.00  0.00    -0.268 N 
ATOM     25  C   UNL     1      14.046   7.097  19.337  0.00  0.00    +0.244 C 
ATOM     28  H   UNL     1      15.541   7.855  18.114  0.00  0.00    +0.156 HD
BRANCH  25  26
ATOM     26  C   UNL     1      13.073   7.573  18.279  0.00  0.00    +0.255 C 
BRANCH  26   2
ATOM      2  O   UNL     1      11.757   7.432  18.773  0.00  0.00    -0.374 OA
ATOM     27  C   UNL     1      11.239   8.666  19.261  0.00  0.00    +0.194 C 
ENDBRANCH  26   2
ENDBRANCH  25  26
ENDBRANCH  24   8
ENDBRANCH  19  20
BRANCH  15   9
ATOM      4  N   UNL     1      23.459   3.535  22.296  0.00  0.00    -0.291 NA
ATOM      9  C   UNL     1      23.312   5.000  22.315  0.00  0.00    +0.146 C 
ATOM     10  C   UNL     1      24.168   5.408  21.107  0.00  0.00    +0.030 C 
ATOM     11  C   UNL     1      23.415   3.104  20.904  0.00  0.00    +0.085 C 
ATOM     13  C   UNL     1      24.163   4.203  20.166  0.00  0.00    +0.017 C 
BRANCH   4  12
ATOM     12  C   UNL     1      22.580   2.781  23.169  0.00  0.00    +0.091 C 
BRANCH  12  14
ATOM     14  C   UNL     1      23.323   1.929  24.231  0.00  0.00    -0.025 C 
ATOM     16  C   UNL     1      24.213   0.869  23.559  0.00  0.00    +0.012 C 
ATOM     17  C   UNL     1      24.189   2.812  25.148  0.00  0.00    +0.012 C 
ATOM     18  C   UNL     1      22.270   1.211  25.096  0.00  0.00    +0.012 C 
ENDBRANCH  12  14
ENDBRANCH   4  12
ENDBRANCH  15   9
TORSDOF 7
ENDMDL
MODEL 3
REMARK VINA RESULT:      -6.1      1.727      2.314
REMARK  Name = 45783636
REMARK  11 active torsions:
REMARK  status: ('A' for Active; 'I' for Inactive)
REMARK    1  A    between atoms: O_2  and  C_26
REMARK    2  A    between atoms: O_2  and  C_27
REMARK    3  A    between atoms: N_4  and  C_12
REMARK    4  A    between atoms: N_8  and  C_24
REMARK    5  A    between atoms: C_9  and  C_15
REMARK    6  A    between atoms: C_12  and  C_14
REMARK    7  A    between atoms: C_14  and  C_16
REMARK    8  A    between atoms: C_14  and  C_17
REMARK    9  A    between atoms: C_14  and  C_18
REMARK   10  A    between atoms: C_19  and  C_20
REMARK   11  A    between atoms: C_25  and  C_26
REMARK                            x       y       z     vdW  Elec       q    Type
REMARK                         _______ _______ _______ _____ _____    ______ ____
ROOT
ATOM      1  O   UNL     1      13.544   7.192  20.199  0.00  0.00    -0.336 OA
ATOM      5  N   UNL     1      15.299   8.476  19.660  0.00  0.00    -0.190 NA
ATOM      6  N   UNL     1      14.685   6.422  20.457  0.00  0.00    -0.056 NA
ATOM     15  C   UNL     1      13.994   8.386  19.732  0.00  0.00    +0.245 A 
ATOM     19  C   UNL     1      15.679   7.246  20.115  0.00  0.00    +0.204 A 
ENDROOT
BRANCH  19  20
ATOM      7  N   UNL     1      18.870   5.444  19.491  0.00  0.00    -0.239 NA
ATOM     20  C   UNL     1      17.060   6.874  20.214  0.00  0.00    +0.041 A 
ATOM     21  C   UNL     1      17.921   7.536  21.083  0.00  0.00    +0.016 A 
ATOM     22  C   UNL     1      17.579   5.844  19.446  0.00  0.00    +0.124 A 
ATOM     23  C   UNL     1      19.255   7.153  21.157  0.00  0.00    +0.044 A 
ATOM     24  C   UNL     1      19.676   6.110  20.347  0.00  0.00    +0.125 A 
BRANCH  24   8
ATOM      3  O   UNL     1      20.917   3.429  20.914  0.00  0.00    -0.273 OA
ATOM      8  N   UNL     1      21.021   5.731  20.429  0.00  0.00    -0.268 N 
ATOM     25  C   UNL     1      21.543   4.462  20.697  0.00  0.00    +0.244 C 
ATOM     28  H   UNL     1      21.682   6.488  20.272  0.00  0.00    +0.156 HD
BRANCH  25  26
ATOM     26  C   UNL     1      23.056   4.459  20.710  0.00  0.00    +0.255 C 
BRANCH  26   2
ATOM      2  O   UNL     1      23.506   3.242  21.268  0.00  0.00    -0.374 OA
ATOM     27  C   UNL     1      24.397   2.555  20.395  0.00  0.00    +0.194 C 
ENDBRANCH  26   2
ENDBRANCH  25  26
ENDBRANCH  24   8
ENDBRANCH  19  20
BRANCH  15   9
ATOM      4  N   UNL     1      12.950  10.675  20.139  0.00  0.00    -0.291 NA
ATOM      9  C   UNL     1      12.935   9.419  19.373  0.00  0.00    +0.146 C 
ATOM     10  C   UNL     1      13.017   9.939  17.931  0.00  0.00    +0.030 C 
ATOM     11  C   UNL     1      13.905  11.572  19.500  0.00  0.00    +0.085 C 
ATOM     13  C   UNL     1      13.716  11.296  18.016  0.00  0.00    +0.017 C 
BRANCH   4  12
ATOM     12  C   UNL     1      13.126  10.561  21.575  0.00  0.00    +0.091 C 
BRANCH  12  14
ATOM     14  C   UNL     1      11.911  11.054  22.402  0.00  0.00    -0.025 C 
ATOM     16  C   UNL     1      11.260  12.283  21.743  0.00  0.00    +0.012 C 
ATOM     17  C   UNL     1      10.855   9.944  22.558  0.00  0.00    +0.012 C 
ATOM     18  C   UNL     1      12.410  11.454  23.803  0.00  0.00    +0.012 C 
ENDBRANCH  12  14
ENDBRANCH   4  12
ENDBRANCH  15   9
TORSDOF 7
ENDMDL
MODEL 4
REMARK VINA RESULT:      -6.0      1.449      2.780
REMARK  Name = 45783636
REMARK  11 active torsions:
REMARK  status: ('A' for Active; 'I' for Inactive)
REMARK    1  A    between atoms: O_2  and  C_26
REMARK    2  A    between atoms: O_2  and  C_27
REMARK    3  A    between atoms: N_4  and  C_12
REMARK    4  A    between atoms: N_8  and  C_24
REMARK    5  A    between atoms: C_9  and  C_15
REMARK    6  A    between atoms: C_12  and  C_14
REMARK    7  A    between atoms: C_14  and  C_16
REMARK    8  A    between atoms: C_14  and  C_17
REMARK    9  A    between atoms: C_14  and  C_18
REMARK   10  A    between atoms: C_19  and  C_20
REMARK   11  A    between atoms: C_25  and  C_26
REMARK                            x       y       z     vdW  Elec       q    Type
REMARK                         _______ _______ _______ _____ _____    ______ ____
ROOT
ATOM      1  O   UNL     1      13.756   6.838  19.948  0.00  0.00    -0.336 OA
ATOM      5  N   UNL     1      15.202   7.343  21.582  0.00  0.00    -0.190 NA
ATOM      6  N   UNL     1      15.011   6.403  19.506  0.00  0.00    -0.056 NA
ATOM     15  C   UNL     1      13.957   7.379  21.179  0.00  0.00    +0.245 A 
ATOM     19  C   UNL     1      15.811   6.735  20.522  0.00  0.00    +0.204 A 
ENDROOT
BRANCH  19  20
ATOM      7  N   UNL     1      19.098   5.298  19.546  0.00  0.00    -0.239 NA
ATOM     20  C   UNL     1      17.221   6.477  20.512  0.00  0.00    +0.041 A 
ATOM     21  C   UNL     1      18.074   7.112  21.408  0.00  0.00    +0.016 A 
ATOM     22  C   UNL     1      17.778   5.586  19.608  0.00  0.00    +0.124 A 
ATOM     23  C   UNL     1      19.437   6.841  21.375  0.00  0.00    +0.044 A 
ATOM     24  C   UNL     1      19.894   5.935  20.433  0.00  0.00    +0.125 A 
BRANCH  24   8
ATOM      3  O   UNL     1      21.415   3.452  21.191  0.00  0.00    -0.273 OA
ATOM      8  N   UNL     1      21.268   5.668  20.407  0.00  0.00    -0.268 N 
ATOM     25  C   UNL     1      21.923   4.488  20.773  0.00  0.00    +0.244 C 
ATOM     28  H   UNL     1      21.841   6.441  20.079  0.00  0.00    +0.156 HD
BRANCH  25  26
ATOM     26  C   UNL     1      23.424   4.595  20.612  0.00  0.00    +0.255 C 
BRANCH  26   2
ATOM      2  O   UNL     1      24.046   4.064  21.763  0.00  0.00    -0.374 OA
ATOM     27  C   UNL     1      25.117   3.185  21.430  0.00  0.00    +0.194 C 
ENDBRANCH  26   2
ENDBRANCH  25  26
ENDBRANCH  24   8
ENDBRANCH  19  20
BRANCH  15   9
ATOM      4  N   UNL     1      12.469   9.373  21.732  0.00  0.00    -0.291 NA
ATOM      9  C   UNL     1      12.728   7.932  21.887  0.00  0.00    +0.146 C 
ATOM     10  C   UNL     1      11.397   7.331  21.413  0.00  0.00    +0.030 C 
ATOM     11  C   UNL     1      11.723   9.559  20.494  0.00  0.00    +0.085 C 
ATOM     13  C   UNL     1      10.794   8.356  20.452  0.00  0.00    +0.017 C 
BRANCH   4  12
ATOM     12  C   UNL     1      13.610  10.258  21.865  0.00  0.00    +0.091 C 
BRANCH  12  14
ATOM     14  C   UNL     1      13.411  11.395  22.901  0.00  0.00    -0.025 C 
ATOM     16  C   UNL     1      14.538  11.385  23.950  0.00  0.00    +0.012 C 
ATOM     17  C   UNL     1      13.368  12.773  22.217  0.00  0.00    +0.012 C 
ATOM     18  C   UNL     1      12.068  11.164  23.620  0.00  0.00    +0.012 C 
ENDBRANCH  12  14
ENDBRANCH   4  12
ENDBRANCH  15   9
TORSDOF 7
ENDMDL
MODEL 5
REMARK VINA RESULT:      -5.9     27.758     30.761
REMARK  Name = 45783636
REMARK  11 active torsions:
REMARK  status: ('A' for Active; 'I' for Inactive)
REMARK    1  A    between atoms: O_2  and  C_26
REMARK    2  A    between atoms: O_2  and  C_27
REMARK    3  A    between atoms: N_4  and  C_12
REMARK    4  A    between atoms: N_8  and  C_24
REMARK    5  A    between atoms: C_9  and  C_15
REMARK    6  A    between atoms: C_12  and  C_14
REMARK    7  A    between atoms: C_14  and  C_16
REMARK    8  A    between atoms: C_14  and  C_17
REMARK    9  A    between atoms: C_14  and  C_18
REMARK   10  A    between atoms: C_19  and  C_20
REMARK   11  A    between atoms: C_25  and  C_26
REMARK                            x       y       z     vdW  Elec       q    Type
REMARK                         _______ _______ _______ _____ _____    ______ ____
ROOT
ATOM      1  O   UNL     1      -1.568 -11.114  15.669  0.00  0.00    -0.336 OA
ATOM      5  N   UNL     1      -3.655 -11.653  15.059  0.00  0.00    -0.190 NA
ATOM      6  N   UNL     1      -2.396 -10.724  16.728  0.00  0.00    -0.056 NA
ATOM     15  C   UNL     1      -2.388 -11.651  14.727  0.00  0.00    +0.245 A 
ATOM     19  C   UNL     1      -3.610 -11.074  16.295  0.00  0.00    +0.204 A 
ENDROOT
BRANCH  19  20
ATOM      7  N   UNL     1      -7.111 -10.160  17.149  0.00  0.00    -0.239 NA
ATOM     20  C   UNL     1      -4.798 -10.859  17.068  0.00  0.00    +0.041 A 
ATOM     21  C   UNL     1      -4.823 -11.121  18.434  0.00  0.00    +0.016 A 
ATOM     22  C   UNL     1      -5.959 -10.384  16.478  0.00  0.00    +0.124 A 
ATOM     23  C   UNL     1      -5.990 -10.903  19.158  0.00  0.00    +0.044 A 
ATOM     24  C   UNL     1      -7.096 -10.426  18.474  0.00  0.00    +0.125 A 
BRANCH  24   8
ATOM      3  O   UNL     1      -9.577 -12.108  18.738  0.00  0.00    -0.273 OA
ATOM      8  N   UNL     1      -8.266 -10.209  19.212  0.00  0.00    -0.268 N 
ATOM     25  C   UNL     1      -9.395 -11.031  19.297  0.00  0.00    +0.244 C 
ATOM     28  H   UNL     1      -8.275  -9.341  19.742  0.00  0.00    +0.156 HD
BRANCH  25  26
ATOM     26  C   UNL     1     -10.461 -10.442  20.195  0.00  0.00    +0.255 C 
BRANCH  26   2
ATOM      2  O   UNL     1     -11.610 -10.169  19.421  0.00  0.00    -0.374 OA
ATOM     27  C   UNL     1     -12.707  -9.750  20.227  0.00  0.00    +0.194 C 
ENDBRANCH  26   2
ENDBRANCH  25  26
ENDBRANCH  24   8
ENDBRANCH  19  20
BRANCH  15   9
ATOM      4  N   UNL     1      -2.153 -13.481  12.969  0.00  0.00    -0.291 NA
ATOM      9  C   UNL     1      -1.723 -12.160  13.457  0.00  0.00    +0.146 C 
ATOM     10  C   UNL     1      -1.963 -11.285  12.218  0.00  0.00    +0.030 C 
ATOM     11  C   UNL     1      -3.345 -13.285  12.154  0.00  0.00    +0.085 C 
ATOM     13  C   UNL     1      -3.068 -11.980  11.423  0.00  0.00    +0.017 C 
BRANCH   4  12
ATOM     12  C   UNL     1      -2.290 -14.529  13.962  0.00  0.00    +0.091 C 
BRANCH  12  14
ATOM     14  C   UNL     1      -1.386 -15.763  13.708  0.00  0.00    -0.025 C 
ATOM     16  C   UNL     1       0.049 -15.329  13.357  0.00  0.00    +0.012 C 
ATOM     17  C   UNL     1      -1.348 -16.690  14.936  0.00  0.00    +0.012 C 
ATOM     18  C   UNL     1      -1.967 -16.551  12.519  0.00  0.00    +0.012 C 
ENDBRANCH  12  14
ENDBRANCH   4  12
ENDBRANCH  15   9
TORSDOF 7
ENDMDL
MODEL 6
REMARK VINA RESULT:      -5.9     31.740     34.633
REMARK  Name = 45783636
REMARK  11 active torsions:
REMARK  status: ('A' for Active; 'I' for Inactive)
REMARK    1  A    between atoms: O_2  and  C_26
REMARK    2  A    between atoms: O_2  and  C_27
REMARK    3  A    between atoms: N_4  and  C_12
REMARK    4  A    between atoms: N_8  and  C_24
REMARK    5  A    between atoms: C_9  and  C_15
REMARK    6  A    between atoms: C_12  and  C_14
REMARK    7  A    between atoms: C_14  and  C_16
REMARK    8  A    between atoms: C_14  and  C_17
REMARK    9  A    between atoms: C_14  and  C_18
REMARK   10  A    between atoms: C_19  and  C_20
REMARK   11  A    between atoms: C_25  and  C_26
REMARK                            x       y       z     vdW  Elec       q    Type
REMARK                         _______ _______ _______ _____ _____    ______ ____
ROOT
ATOM      1  O   UNL     1     -12.837   3.554  32.010  0.00  0.00    -0.336 OA
ATOM      5  N   UNL     1     -15.051   3.784  31.757  0.00  0.00    -0.190 NA
ATOM      6  N   UNL     1     -13.171   2.854  30.845  0.00  0.00    -0.056 NA
ATOM     15  C   UNL     1     -14.001   4.071  32.485  0.00  0.00    +0.245 A 
ATOM     19  C   UNL     1     -14.492   3.035  30.762  0.00  0.00    +0.204 A 
ENDROOT
BRANCH  19  20
ATOM      7  N   UNL     1     -15.969   0.543  28.431  0.00  0.00    -0.239 NA
ATOM     20  C   UNL     1     -15.283   2.483  29.701  0.00  0.00    +0.041 A 
ATOM     21  C   UNL     1     -16.108   3.290  28.927  0.00  0.00    +0.016 A 
ATOM     22  C   UNL     1     -15.249   1.127  29.416  0.00  0.00    +0.124 A 
ATOM     23  C   UNL     1     -16.863   2.726  27.905  0.00  0.00    +0.044 A 
ATOM     24  C   UNL     1     -16.759   1.360  27.700  0.00  0.00    +0.125 A 
BRANCH  24   8
ATOM      3  O   UNL     1     -16.357   1.425  24.719  0.00  0.00    -0.273 OA
ATOM      8  N   UNL     1     -17.523   0.802  26.669  0.00  0.00    -0.268 N 
ATOM     25  C   UNL     1     -17.287   0.864  25.292  0.00  0.00    +0.244 C 
ATOM     28  H   UNL     1     -18.346   0.294  26.982  0.00  0.00    +0.156 HD
BRANCH  25  26
ATOM     26  C   UNL     1     -18.351   0.139  24.497  0.00  0.00    +0.255 C 
BRANCH  26   2
ATOM      2  O   UNL     1     -17.779  -0.340  23.298  0.00  0.00    -0.374 OA
ATOM     27  C   UNL     1     -18.114  -1.703  23.057  0.00  0.00    +0.194 C 
ENDBRANCH  26   2
ENDBRANCH  25  26
ENDBRANCH  24   8
ENDBRANCH  19  20
BRANCH  15   9
ATOM      4  N   UNL     1     -14.237   6.321  33.658  0.00  0.00    -0.291 NA
ATOM      9  C   UNL     1     -13.908   4.890  33.765  0.00  0.00    +0.146 C 
ATOM     10  C   UNL     1     -14.863   4.440  34.879  0.00  0.00    +0.030 C 
ATOM     11  C   UNL     1     -15.682   6.454  33.790  0.00  0.00    +0.085 C 
ATOM     13  C   UNL     1     -16.044   5.410  34.834  0.00  0.00    +0.017 C 
BRANCH   4  12
ATOM     12  C   UNL     1     -13.685   7.034  32.522  0.00  0.00    +0.091 C 
BRANCH  12  14
ATOM     14  C   UNL     1     -12.990   8.370  32.890  0.00  0.00    -0.025 C 
ATOM     16  C   UNL     1     -13.916   9.566  32.608  0.00  0.00    +0.012 C 
ATOM     17  C   UNL     1     -12.570   8.391  34.371  0.00  0.00    +0.012 C 
ATOM     18  C   UNL     1     -11.725   8.511  32.022  0.00  0.00    +0.012 C 
ENDBRANCH  12  14
ENDBRANCH   4  12
ENDBRANCH  15   9
TORSDOF 7
ENDMDL
MODEL 7
REMARK VINA RESULT:      -5.7     17.403     19.722
REMARK  Name = 45783636
REMARK  11 active torsions:
REMARK  status: ('A' for Active; 'I' for Inactive)
REMARK    1  A    between atoms: O_2  and  C_26
REMARK    2  A    between atoms: O_2  and  C_27
REMARK    3  A    between atoms: N_4  and  C_12
REMARK    4  A    between atoms: N_8  and  C_24
REMARK    5  A    between atoms: C_9  and  C_15
REMARK    6  A    between atoms: C_12  and  C_14
REMARK    7  A    between atoms: C_14  and  C_16
REMARK    8  A    between atoms: C_14  and  C_17
REMARK    9  A    between atoms: C_14  and  C_18
REMARK   10  A    between atoms: C_19  and  C_20
REMARK   11  A    between atoms: C_25  and  C_26
REMARK                            x       y       z     vdW  Elec       q    Type
REMARK                         _______ _______ _______ _____ _____    ______ ____
ROOT
ATOM      1  O   UNL     1      12.568   7.505   5.254  0.00  0.00    -0.336 OA
ATOM      5  N   UNL     1      10.909   6.052   4.863  0.00  0.00    -0.190 NA
ATOM      6  N   UNL     1      12.720   7.088   3.926  0.00  0.00    -0.056 NA
ATOM     15  C   UNL     1      11.480   6.847   5.733  0.00  0.00    +0.245 A 
ATOM     19  C   UNL     1      11.705   6.234   3.769  0.00  0.00    +0.204 A 
ENDROOT
BRANCH  19  20
ATOM      7  N   UNL     1      12.213   3.968   0.865  0.00  0.00    -0.239 NA
ATOM     20  C   UNL     1      11.459   5.544   2.536  0.00  0.00    +0.041 A 
ATOM     21  C   UNL     1      10.285   5.751   1.820  0.00  0.00    +0.016 A 
ATOM     22  C   UNL     1      12.384   4.650   2.021  0.00  0.00    +0.124 A 
ATOM     23  C   UNL     1      10.074   5.068   0.628  0.00  0.00    +0.044 A 
ATOM     24  C   UNL     1      11.060   4.195   0.198  0.00  0.00    +0.125 A 
BRANCH  24   8
ATOM      3  O   UNL     1      12.015   4.795  -2.591  0.00  0.00    -0.273 OA
ATOM      8  N   UNL     1      10.839   3.513  -1.004  0.00  0.00    -0.268 N 
ATOM     25  C   UNL     1      11.311   3.840  -2.279  0.00  0.00    +0.244 C 
ATOM     28  H   UNL     1      10.261   2.681  -0.916  0.00  0.00    +0.156 HD
BRANCH  25  26
ATOM     26  C   UNL     1      10.845   2.854  -3.329  0.00  0.00    +0.255 C 
BRANCH  26   2
ATOM      2  O   UNL     1      10.196   1.776  -2.688  0.00  0.00    -0.374 OA
ATOM     27  C   UNL     1       9.143   1.241  -3.483  0.00  0.00    +0.194 C 
ENDBRANCH  26   2
ENDBRANCH  25  26
ENDBRANCH  24   8
ENDBRANCH  19  20
BRANCH  15   9
ATOM      4  N   UNL     1       9.864   7.907   7.394  0.00  0.00    -0.291 NA
ATOM      9  C   UNL     1      11.096   7.131   7.178  0.00  0.00    +0.146 C 
ATOM     10  C   UNL     1      10.819   5.878   8.020  0.00  0.00    +0.030 C 
ATOM     11  C   UNL     1       8.745   6.974   7.380  0.00  0.00    +0.085 C 
ATOM     13  C   UNL     1       9.297   5.741   8.078  0.00  0.00    +0.017 C 
BRANCH   4  12
ATOM     12  C   UNL     1       9.668   9.068   6.548  0.00  0.00    +0.091 C 
BRANCH  12  14
ATOM     14  C   UNL     1      10.053  10.412   7.219  0.00  0.00    -0.025 C 
ATOM     16  C   UNL     1      11.536  10.743   6.975  0.00  0.00    +0.012 C 
ATOM     17  C   UNL     1       9.182  11.568   6.693  0.00  0.00    +0.012 C 
ATOM     18  C   UNL     1       9.821  10.278   8.736  0.00  0.00    +0.012 C 
ENDBRANCH  12  14
ENDBRANCH   4  12
ENDBRANCH  15   9
TORSDOF 7
ENDMDL
MODEL 8
REMARK VINA RESULT:      -5.7      1.994      3.192
REMARK  Name = 45783636
REMARK  11 active torsions:
REMARK  status: ('A' for Active; 'I' for Inactive)
REMARK    1  A    between atoms: O_2  and  C_26
REMARK    2  A    between atoms: O_2  and  C_27
REMARK    3  A    between atoms: N_4  and  C_12
REMARK    4  A    between atoms: N_8  and  C_24
REMARK    5  A    between atoms: C_9  and  C_15
REMARK    6  A    between atoms: C_12  and  C_14
REMARK    7  A    between atoms: C_14  and  C_16
REMARK    8  A    between atoms: C_14  and  C_17
REMARK    9  A    between atoms: C_14  and  C_18
REMARK   10  A    between atoms: C_19  and  C_20
REMARK   11  A    between atoms: C_25  and  C_26
REMARK                            x       y       z     vdW  Elec       q    Type
REMARK                         _______ _______ _______ _____ _____    ______ ____
ROOT
ATOM      1  O   UNL     1      15.775   6.521  19.014  0.00  0.00    -0.336 OA
ATOM      5  N   UNL     1      16.782   7.310  20.853  0.00  0.00    -0.190 NA
ATOM      6  N   UNL     1      17.025   5.893  19.073  0.00  0.00    -0.056 NA
ATOM     15  C   UNL     1      15.713   7.339  20.098  0.00  0.00    +0.245 A 
ATOM     19  C   UNL     1      17.559   6.408  20.184  0.00  0.00    +0.204 A 
ENDROOT
BRANCH  19  20
ATOM      7  N   UNL     1      20.817   4.636  20.442  0.00  0.00    -0.239 NA
ATOM     20  C   UNL     1      18.865   6.047  20.652  0.00  0.00    +0.041 A 
ATOM     21  C   UNL     1      19.452   6.710  21.724  0.00  0.00    +0.016 A 
ATOM     22  C   UNL     1      19.583   5.026  20.050  0.00  0.00    +0.124 A 
ATOM     23  C   UNL     1      20.720   6.338  22.156  0.00  0.00    +0.044 A 
ATOM     24  C   UNL     1      21.354   5.304  21.487  0.00  0.00    +0.125 A 
BRANCH  24   8
ATOM      3  O   UNL     1      22.192   3.397  23.659  0.00  0.00    -0.273 OA
ATOM      8  N   UNL     1      22.630   4.936  21.930  0.00  0.00    -0.268 N 
ATOM     25  C   UNL     1      22.961   4.039  22.950  0.00  0.00    +0.244 C 
ATOM     28  H   UNL     1      23.395   5.389  21.436  0.00  0.00    +0.156 HD
BRANCH  25  26
ATOM     26  C   UNL     1      24.459   3.914  23.136  0.00  0.00    +0.255 C 
BRANCH  26   2
ATOM      2  O   UNL     1      24.713   3.141  24.290  0.00  0.00    -0.374 OA
ATOM     27  C   UNL     1      25.575   3.815  25.201  0.00  0.00    +0.194 C 
ENDBRANCH  26   2
ENDBRANCH  25  26
ENDBRANCH  24   8
ENDBRANCH  19  20
BRANCH  15   9
ATOM      4  N   UNL     1      13.516   8.179  19.117  0.00  0.00    -0.291 NA
ATOM      9  C   UNL     1      14.433   8.147  20.267  0.00  0.00    +0.146 C 
ATOM     10  C   UNL     1      13.507   7.643  21.383  0.00  0.00    +0.030 C 
ATOM     11  C   UNL     1      12.667   6.996  19.194  0.00  0.00    +0.085 C 
ATOM     13  C   UNL     1      12.413   6.834  20.684  0.00  0.00    +0.017 C 
BRANCH   4  12
ATOM     12  C   UNL     1      14.114   8.386  17.812  0.00  0.00    +0.091 C 
BRANCH  12  14
ATOM     14  C   UNL     1      13.537   9.599  17.037  0.00  0.00    -0.025 C 
ATOM     16  C   UNL     1      14.510  10.060  15.937  0.00  0.00    +0.012 C 
ATOM     17  C   UNL     1      12.177   9.261  16.402  0.00  0.00    +0.012 C 
ATOM     18  C   UNL     1      13.337  10.757  18.034  0.00  0.00    +0.012 C 
ENDBRANCH  12  14
ENDBRANCH   4  12
ENDBRANCH  15   9
TORSDOF 7
ENDMDL
MODEL 9
REMARK VINA RESULT:      -5.6     29.501     33.315
REMARK  Name = 45783636
REMARK  11 active torsions:
REMARK  status: ('A' for Active; 'I' for Inactive)
REMARK    1  A    between atoms: O_2  and  C_26
REMARK    2  A    between atoms: O_2  and  C_27
REMARK    3  A    between atoms: N_4  and  C_12
REMARK    4  A    between atoms: N_8  and  C_24
REMARK    5  A    between atoms: C_9  and  C_15
REMARK    6  A    between atoms: C_12  and  C_14
REMARK    7  A    between atoms: C_14  and  C_16
REMARK    8  A    between atoms: C_14  and  C_17
REMARK    9  A    between atoms: C_14  and  C_18
REMARK   10  A    between atoms: C_19  and  C_20
REMARK   11  A    between atoms: C_25  and  C_26
REMARK                            x       y       z     vdW  Elec       q    Type
REMARK                         _______ _______ _______ _____ _____    ______ ____
ROOT
ATOM      1  O   UNL     1     -16.398   2.292  25.796  0.00  0.00    -0.336 OA
ATOM      5  N   UNL     1     -16.419   4.528  25.675  0.00  0.00    -0.190 NA
ATOM      6  N   UNL     1     -15.773   2.622  24.588  0.00  0.00    -0.056 NA
ATOM     15  C   UNL     1     -16.748   3.471  26.374  0.00  0.00    +0.245 A 
ATOM     19  C   UNL     1     -15.823   3.957  24.587  0.00  0.00    +0.204 A 
ENDROOT
BRANCH  19  20
ATOM      7  N   UNL     1     -15.665   6.381  21.773  0.00  0.00    -0.239 NA
ATOM     20  C   UNL     1     -15.291   4.750  23.518  0.00  0.00    +0.041 A 
ATOM     21  C   UNL     1     -13.945   4.683  23.175  0.00  0.00    +0.016 A 
ATOM     22  C   UNL     1     -16.103   5.607  22.792  0.00  0.00    +0.124 A 
ATOM     23  C   UNL     1     -13.458   5.464  22.133  0.00  0.00    +0.044 A 
ATOM     24  C   UNL     1     -14.351   6.289  21.470  0.00  0.00    +0.125 A 
BRANCH  24   8
ATOM      3  O   UNL     1     -12.714   8.813  21.527  0.00  0.00    -0.273 OA
ATOM      8  N   UNL     1     -13.852   7.071  20.422  0.00  0.00    -0.268 N 
ATOM     25  C   UNL     1     -13.092   8.242  20.508  0.00  0.00    +0.244 C 
ATOM     28  H   UNL     1     -14.083   6.728  19.493  0.00  0.00    +0.156 HD
BRANCH  25  26
ATOM     26  C   UNL     1     -12.750   8.801  19.144  0.00  0.00    +0.255 C 
BRANCH  26   2
ATOM      2  O   UNL     1     -12.320   7.743  18.312  0.00  0.00    -0.374 OA
ATOM     27  C   UNL     1     -11.025   7.986  17.771  0.00  0.00    +0.194 C 
ENDBRANCH  26   2
ENDBRANCH  25  26
ENDBRANCH  24   8
ENDBRANCH  19  20
BRANCH  15   9
ATOM      4  N   UNL     1     -16.639   3.680  28.912  0.00  0.00    -0.291 NA
ATOM      9  C   UNL     1     -17.452   3.385  27.720  0.00  0.00    +0.146 C 
ATOM     10  C   UNL     1     -18.615   4.373  27.893  0.00  0.00    +0.030 C 
ATOM     11  C   UNL     1     -16.646   5.124  29.107  0.00  0.00    +0.085 C 
ATOM     13  C   UNL     1     -18.060   5.530  28.724  0.00  0.00    +0.017 C 
BRANCH   4  12
ATOM     12  C   UNL     1     -15.315   3.089  28.959  0.00  0.00    +0.091 C 
BRANCH  12  14
ATOM     14  C   UNL     1     -15.144   2.007  30.057  0.00  0.00    -0.025 C 
ATOM     16  C   UNL     1     -15.529   2.563  31.439  0.00  0.00    +0.012 C 
ATOM     17  C   UNL     1     -16.000   0.764  29.754  0.00  0.00    +0.012 C 
ATOM     18  C   UNL     1     -13.663   1.585  30.091  0.00  0.00    +0.012 C 
ENDBRANCH  12  14
ENDBRANCH   4  12
ENDBRANCH  15   9
TORSDOF 7
ENDMDL
MODEL 10
REMARK VINA RESULT:      -5.6      6.488      8.074
REMARK  Name = 45783636
REMARK  11 active torsions:
REMARK  status: ('A' for Active; 'I' for Inactive)
REMARK    1  A    between atoms: O_2  and  C_26
REMARK    2  A    between atoms: O_2  and  C_27
REMARK    3  A    between atoms: N_4  and  C_12
REMARK    4  A    between atoms: N_8  and  C_24
REMARK    5  A    between atoms: C_9  and  C_15
REMARK    6  A    between atoms: C_12  and  C_14
REMARK    7  A    between atoms: C_14  and  C_16
REMARK    8  A    between atoms: C_14  and  C_17
REMARK    9  A    between atoms: C_14  and  C_18
REMARK   10  A    between atoms: C_19  and  C_20
REMARK   11  A    between atoms: C_25  and  C_26
REMARK                            x       y       z     vdW  Elec       q    Type
REMARK                         _______ _______ _______ _____ _____    ______ ____
ROOT
ATOM      1  O   UNL     1      12.629   7.386  18.726  0.00  0.00    -0.336 OA
ATOM      5  N   UNL     1      13.801   9.277  18.984  0.00  0.00    -0.190 NA
ATOM      6  N   UNL     1      13.004   7.790  17.439  0.00  0.00    -0.056 NA
ATOM     15  C   UNL     1      13.138   8.316  19.576  0.00  0.00    +0.245 A 
ATOM     19  C   UNL     1      13.692   8.911  17.673  0.00  0.00    +0.204 A 
ENDROOT
BRANCH  19  20
ATOM      7  N   UNL     1      15.114   9.806  14.357  0.00  0.00    -0.239 NA
ATOM     20  C   UNL     1      14.280   9.690  16.623  0.00  0.00    +0.041 A 
ATOM     21  C   UNL     1      14.588  11.033  16.811  0.00  0.00    +0.016 A 
ATOM     22  C   UNL     1      14.561   9.128  15.388  0.00  0.00    +0.124 A 
ATOM     23  C   UNL     1      15.158  11.763  15.775  0.00  0.00    +0.044 A 
ATOM     24  C   UNL     1      15.399  11.108  14.578  0.00  0.00    +0.125 A 
BRANCH  24   8
ATOM      3  O   UNL     1      18.242  11.999  14.159  0.00  0.00    -0.273 OA
ATOM      8  N   UNL     1      15.974  11.851  13.540  0.00  0.00    -0.268 N 
ATOM     25  C   UNL     1      17.310  12.238  13.397  0.00  0.00    +0.244 C 
ATOM     28  H   UNL     1      15.322  12.134  12.813  0.00  0.00    +0.156 HD
BRANCH  25  26
ATOM     26  C   UNL     1      17.538  13.044  12.136  0.00  0.00    +0.255 C 
BRANCH  26   2
ATOM      2  O   UNL     1      18.338  12.290  11.250  0.00  0.00    -0.374 OA
ATOM     27  C   UNL     1      19.580  12.933  10.979  0.00  0.00    +0.194 C 
ENDBRANCH  26   2
ENDBRANCH  25  26
ENDBRANCH  24   8
ENDBRANCH  19  20
BRANCH  15   9
ATOM      4  N   UNL     1      11.682   8.775  21.617  0.00  0.00    -0.291 NA
ATOM      9  C   UNL     1      12.866   8.102  21.059  0.00  0.00    +0.146 C 
ATOM     10  C   UNL     1      12.602   6.642  21.452  0.00  0.00    +0.030 C 
ATOM     11  C   UNL     1      10.530   7.914  21.379  0.00  0.00    +0.085 C 
ATOM     13  C   UNL     1      11.084   6.512  21.579  0.00  0.00    +0.017 C 
BRANCH   4  12
ATOM     12  C   UNL     1      11.471  10.155  21.226  0.00  0.00    +0.091 C 
BRANCH  12  14
ATOM     14  C   UNL     1      11.666  11.176  22.376  0.00  0.00    -0.025 C 
ATOM     16  C   UNL     1      11.089  12.551  21.994  0.00  0.00    +0.012 C 
ATOM     17  C   UNL     1      10.997  10.688  23.674  0.00  0.00    +0.012 C 
ATOM     18  C   UNL     1      13.177  11.330  22.634  0.00  0.00    +0.012 C 
ENDBRANCH  12  14
ENDBRANCH   4  12
ENDBRANCH  15   9
TORSDOF 7
ENDMDL
