MODEL 1
REMARK VINA RESULT:      -5.1      0.000      0.000
REMARK  Name = 28961662
REMARK  10 active torsions:
REMARK  status: ('A' for Active; 'I' for Inactive)
REMARK    1  A    between atoms: O_2  and  C_11
REMARK    2  A    between atoms: O_3  and  C_18
REMARK    3  A    between atoms: N_5  and  C_9
REMARK    4  A    between atoms: N_6  and  C_19
REMARK    5  A    between atoms: N_7  and  C_15
REMARK    6  A    between atoms: N_8  and  C_21
REMARK    7  A    between atoms: C_10  and  C_15
REMARK    8  A    between atoms: C_12  and  C_18
REMARK    9  A    between atoms: C_21  and  C_22
REMARK   10  A    between atoms: C_21  and  C_23
REMARK                            x       y       z     vdW  Elec       q    Type
REMARK                         _______ _______ _______ _____ _____    ______ ____
ROOT
ATOM      1  O   UNL     1      -1.541 -12.622  13.215  0.00  0.00    -0.365 OA
ATOM      9  C   UNL     1      -3.030 -11.804  11.547  0.00  0.00    +0.118 C 
ATOM     10  C   UNL     1      -1.997 -11.394  12.603  0.00  0.00    +0.155 C 
ATOM     11  C   UNL     1      -3.553 -13.131  12.076  0.00  0.00    +0.165 C 
ATOM     12  C   UNL     1      -2.274 -13.727  12.653  0.00  0.00    +0.174 C 
ENDROOT
BRANCH   9   5
ATOM      5  N   UNL     1      -4.056 -10.814  11.227  0.00  0.00    -0.292 NA
ATOM      6  N   UNL     1      -5.620  -9.231   9.381  0.00  0.00    -0.303 NA
ATOM     13  C   UNL     1      -3.471  -9.667  10.521  0.00  0.00    +0.100 C 
ATOM     14  C   UNL     1      -5.130 -11.415  10.428  0.00  0.00    +0.100 C 
ATOM     16  C   UNL     1      -4.546  -8.629  10.181  0.00  0.00    +0.099 C 
ATOM     17  C   UNL     1      -6.205 -10.376  10.089  0.00  0.00    +0.099 C 
ATOM     19  C   UNL     1      -6.645  -8.241   9.059  0.00  0.00    +0.105 C 
ENDBRANCH   9   5
BRANCH  11   2
ATOM      2  O   UNL     1      -4.516 -12.939  13.104  0.00  0.00    -0.388 OA
ATOM     24  H   UNL     1      -5.375 -12.781  12.676  0.00  0.00    +0.210 HD
ENDBRANCH  11   2
BRANCH  10  15
ATOM     15  C   UNL     1      -2.489 -10.486  13.725  0.00  0.00    +0.139 C 
BRANCH  15   7
ATOM      4  O   UNL     1      -4.573 -10.277  15.710  0.00  0.00    -0.253 OA
ATOM      7  N   UNL     1      -2.573 -11.197  14.965  0.00  0.00    -0.297 N 
ATOM      8  N   UNL     1      -3.455 -11.849  16.999  0.00  0.00    -0.297 N 
ATOM     20  C   UNL     1      -3.622 -11.040  15.878  0.00  0.00    +0.300 C 
ATOM     25  H   UNL     1      -1.837 -11.859  15.189  0.00  0.00    +0.150 HD
ATOM     27  H   UNL     1      -2.675 -12.500  17.012  0.00  0.00    +0.150 HD
BRANCH   8  21
ATOM     21  C   UNL     1      -4.397 -11.877  18.093  0.00  0.00    +0.068 C 
ATOM     22  C   UNL     1      -3.672 -12.117  19.410  0.00  0.00    +0.027 C 
ATOM     23  C   UNL     1      -5.467 -12.935  17.851  0.00  0.00    +0.027 C 
ENDBRANCH   8  21
ENDBRANCH  15   7
ENDBRANCH  10  15
BRANCH  12  18
ATOM     18  C   UNL     1      -2.471 -14.790  13.719  0.00  0.00    +0.190 C 
BRANCH  18   3
ATOM      3  O   UNL     1      -2.683 -14.153  14.969  0.00  0.00    -0.392 OA
ATOM     26  H   UNL     1      -2.557 -14.825  15.659  0.00  0.00    +0.210 HD
ENDBRANCH  18   3
ENDBRANCH  12  18
TORSDOF 7
ENDMDL
MODEL 2
REMARK VINA RESULT:      -5.0      2.320      6.922
REMARK  Name = 28961662
REMARK  10 active torsions:
REMARK  status: ('A' for Active; 'I' for Inactive)
REMARK    1  A    between atoms: O_2  and  C_11
REMARK    2  A    between atoms: O_3  and  C_18
REMARK    3  A    between atoms: N_5  and  C_9
REMARK    4  A    between atoms: N_6  and  C_19
REMARK    5  A    between atoms: N_7  and  C_15
REMARK    6  A    between atoms: N_8  and  C_21
REMARK    7  A    between atoms: C_10  and  C_15
REMARK    8  A    between atoms: C_12  and  C_18
REMARK    9  A    between atoms: C_21  and  C_22
REMARK   10  A    between atoms: C_21  and  C_23
REMARK                            x       y       z     vdW  Elec       q    Type
REMARK                         _______ _______ _______ _____ _____    ______ ____
ROOT
ATOM      1  O   UNL     1      -3.025 -12.184  15.198  0.00  0.00    -0.365 OA
ATOM      9  C   UNL     1      -4.474 -11.995  17.077  0.00  0.00    +0.118 C 
ATOM     10  C   UNL     1      -4.324 -12.600  15.676  0.00  0.00    +0.155 C 
ATOM     11  C   UNL     1      -3.564 -10.778  17.023  0.00  0.00    +0.165 C 
ATOM     12  C   UNL     1      -2.418 -11.320  16.176  0.00  0.00    +0.174 C 
ENDROOT
BRANCH   9   5
ATOM      5  N   UNL     1      -5.840 -11.732  17.525  0.00  0.00    -0.292 NA
ATOM      6  N   UNL     1      -8.025 -11.973  19.403  0.00  0.00    -0.303 NA
ATOM     13  C   UNL     1      -6.594 -12.984  17.661  0.00  0.00    +0.100 C 
ATOM     14  C   UNL     1      -5.840 -10.993  18.793  0.00  0.00    +0.100 C 
ATOM     16  C   UNL     1      -8.025 -12.712  18.134  0.00  0.00    +0.099 C 
ATOM     17  C   UNL     1      -7.272 -10.720  19.265  0.00  0.00    +0.099 C 
ATOM     19  C   UNL     1      -9.390 -11.712  19.853  0.00  0.00    +0.105 C 
ENDBRANCH   9   5
BRANCH  11   2
ATOM      2  O   UNL     1      -4.193  -9.686  16.363  0.00  0.00    -0.388 OA
ATOM     24  H   UNL     1      -3.504  -9.199  15.878  0.00  0.00    +0.210 HD
ENDBRANCH  11   2
BRANCH  10  15
ATOM     15  C   UNL     1      -5.349 -12.171  14.632  0.00  0.00    +0.139 C 
BRANCH  15   7
ATOM      4  O   UNL     1      -5.669 -11.854  11.782  0.00  0.00    -0.253 OA
ATOM      7  N   UNL     1      -4.844 -11.105  13.821  0.00  0.00    -0.297 N 
ATOM      8  N   UNL     1      -4.446  -9.885  11.899  0.00  0.00    -0.297 N 
ATOM     20  C   UNL     1      -5.044 -11.022  12.438  0.00  0.00    +0.300 C 
ATOM     25  H   UNL     1      -4.322 -10.362  14.276  0.00  0.00    +0.150 HD
ATOM     27  H   UNL     1      -4.016  -9.219  12.534  0.00  0.00    +0.150 HD
BRANCH   8  21
ATOM     21  C   UNL     1      -4.503  -9.563  10.493  0.00  0.00    +0.068 C 
ATOM     22  C   UNL     1      -3.122  -9.171   9.984  0.00  0.00    +0.027 C 
ATOM     23  C   UNL     1      -5.519  -8.457  10.238  0.00  0.00    +0.027 C 
ENDBRANCH   8  21
ENDBRANCH  15   7
ENDBRANCH  10  15
BRANCH  12  18
ATOM     18  C   UNL     1      -1.577 -10.274  15.468  0.00  0.00    +0.190 C 
BRANCH  18   3
ATOM      3  O   UNL     1      -2.189  -9.958  14.226  0.00  0.00    -0.392 OA
ATOM     26  H   UNL     1      -1.563 -10.209  13.526  0.00  0.00    +0.210 HD
ENDBRANCH  18   3
ENDBRANCH  12  18
TORSDOF 7
ENDMDL
MODEL 3
REMARK VINA RESULT:      -4.9      3.714      6.022
REMARK  Name = 28961662
REMARK  10 active torsions:
REMARK  status: ('A' for Active; 'I' for Inactive)
REMARK    1  A    between atoms: O_2  and  C_11
REMARK    2  A    between atoms: O_3  and  C_18
REMARK    3  A    between atoms: N_5  and  C_9
REMARK    4  A    between atoms: N_6  and  C_19
REMARK    5  A    between atoms: N_7  and  C_15
REMARK    6  A    between atoms: N_8  and  C_21
REMARK    7  A    between atoms: C_10  and  C_15
REMARK    8  A    between atoms: C_12  and  C_18
REMARK    9  A    between atoms: C_21  and  C_22
REMARK   10  A    between atoms: C_21  and  C_23
REMARK                            x       y       z     vdW  Elec       q    Type
REMARK                         _______ _______ _______ _____ _____    ______ ____
ROOT
ATOM      1  O   UNL     1      -5.174 -10.360  18.386  0.00  0.00    -0.365 OA
ATOM      9  C   UNL     1      -4.362 -11.967  16.828  0.00  0.00    +0.118 C 
ATOM     10  C   UNL     1      -4.584 -10.469  17.071  0.00  0.00    +0.155 C 
ATOM     11  C   UNL     1      -5.416 -12.616  17.712  0.00  0.00    +0.165 C 
ATOM     12  C   UNL     1      -5.387 -11.682  18.916  0.00  0.00    +0.174 C 
ENDROOT
BRANCH   9   5
ATOM      5  N   UNL     1      -4.365 -12.402  15.433  0.00  0.00    -0.292 NA
ATOM      6  N   UNL     1      -3.215 -13.769  13.160  0.00  0.00    -0.303 NA
ATOM     13  C   UNL     1      -3.215 -11.845  14.710  0.00  0.00    +0.100 C 
ATOM     14  C   UNL     1      -4.367 -13.867  15.343  0.00  0.00    +0.100 C 
ATOM     16  C   UNL     1      -3.213 -12.304  13.249  0.00  0.00    +0.099 C 
ATOM     17  C   UNL     1      -4.367 -14.324  13.881  0.00  0.00    +0.099 C 
ATOM     19  C   UNL     1      -3.215 -14.206  11.765  0.00  0.00    +0.105 C 
ENDBRANCH   9   5
BRANCH  11   2
ATOM      2  O   UNL     1      -6.698 -12.593  17.098  0.00  0.00    -0.388 OA
ATOM     24  H   UNL     1      -6.565 -12.451  16.145  0.00  0.00    +0.210 HD
ENDBRANCH  11   2
BRANCH  10  15
ATOM     15  C   UNL     1      -5.509  -9.746  16.098  0.00  0.00    +0.139 C 
BRANCH  15   7
ATOM      4  O   UNL     1      -8.301 -10.397  15.772  0.00  0.00    -0.253 OA
ATOM      7  N   UNL     1      -6.618  -9.155  16.784  0.00  0.00    -0.297 N 
ATOM      8  N   UNL     1      -8.825  -8.793  17.366  0.00  0.00    -0.297 N 
ATOM     20  C   UNL     1      -7.950  -9.528  16.569  0.00  0.00    +0.300 C 
ATOM     25  H   UNL     1      -6.427  -8.432  17.471  0.00  0.00    +0.150 HD
ATOM     27  H   UNL     1      -8.432  -8.150  18.047  0.00  0.00    +0.150 HD
BRANCH   8  21
ATOM     21  C   UNL     1     -10.256  -8.982  17.337  0.00  0.00    +0.068 C 
ATOM     22  C   UNL     1     -10.959  -7.661  17.055  0.00  0.00    +0.027 C 
ATOM     23  C   UNL     1     -10.741  -9.598  18.644  0.00  0.00    +0.027 C 
ENDBRANCH   8  21
ENDBRANCH  15   7
ENDBRANCH  10  15
BRANCH  12  18
ATOM     18  C   UNL     1      -6.641 -11.682  19.772  0.00  0.00    +0.190 C 
BRANCH  18   3
ATOM      3  O   UNL     1      -7.205 -10.380  19.760  0.00  0.00    -0.392 OA
ATOM     26  H   UNL     1      -6.804  -9.887  20.496  0.00  0.00    +0.210 HD
ENDBRANCH  18   3
ENDBRANCH  12  18
TORSDOF 7
ENDMDL
MODEL 4
REMARK VINA RESULT:      -4.8     23.321     25.747
REMARK  Name = 28961662
REMARK  10 active torsions:
REMARK  status: ('A' for Active; 'I' for Inactive)
REMARK    1  A    between atoms: O_2  and  C_11
REMARK    2  A    between atoms: O_3  and  C_18
REMARK    3  A    between atoms: N_5  and  C_9
REMARK    4  A    between atoms: N_6  and  C_19
REMARK    5  A    between atoms: N_7  and  C_15
REMARK    6  A    between atoms: N_8  and  C_21
REMARK    7  A    between atoms: C_10  and  C_15
REMARK    8  A    between atoms: C_12  and  C_18
REMARK    9  A    between atoms: C_21  and  C_22
REMARK   10  A    between atoms: C_21  and  C_23
REMARK                            x       y       z     vdW  Elec       q    Type
REMARK                         _______ _______ _______ _____ _____    ______ ____
ROOT
ATOM      1  O   UNL     1       9.177   5.544   6.809  0.00  0.00    -0.365 OA
ATOM      9  C   UNL     1      10.751   7.316   6.575  0.00  0.00    +0.118 C 
ATOM     10  C   UNL     1       9.886   6.307   5.807  0.00  0.00    +0.155 C 
ATOM     11  C   UNL     1      10.965   6.631   7.916  0.00  0.00    +0.165 C 
ATOM     12  C   UNL     1       9.605   5.972   8.116  0.00  0.00    +0.174 C 
ENDROOT
BRANCH   9   5
ATOM      5  N   UNL     1      11.968   7.766   5.904  0.00  0.00    -0.292 NA
ATOM      6  N   UNL     1      13.870   9.792   5.108  0.00  0.00    -0.303 NA
ATOM     13  C   UNL     1      11.653   8.733   4.846  0.00  0.00    +0.100 C 
ATOM     14  C   UNL     1      12.910   8.348   6.867  0.00  0.00    +0.100 C 
ATOM     16  C   UNL     1      12.929   9.210   4.144  0.00  0.00    +0.099 C 
ATOM     17  C   UNL     1      14.186   8.823   6.164  0.00  0.00    +0.099 C 
ATOM     19  C   UNL     1      15.087  10.245   4.437  0.00  0.00    +0.105 C 
ENDBRANCH   9   5
BRANCH  11   2
ATOM      2  O   UNL     1      11.986   5.644   7.841  0.00  0.00    -0.388 OA
ATOM     24  H   UNL     1      11.609   4.806   8.158  0.00  0.00    +0.210 HD
ENDBRANCH  11   2
BRANCH  10  15
ATOM     15  C   UNL     1      10.623   5.312   4.918  0.00  0.00    +0.139 C 
BRANCH  15   7
ATOM      4  O   UNL     1      11.185   3.638   2.636  0.00  0.00    -0.253 OA
ATOM      7  N   UNL     1      10.507   5.670   3.537  0.00  0.00    -0.297 N 
ATOM      8  N   UNL     1      10.603   5.400   1.244  0.00  0.00    -0.297 N 
ATOM     20  C   UNL     1      10.800   4.796   2.483  0.00  0.00    +0.300 C 
ATOM     25  H   UNL     1      10.185   6.605   3.309  0.00  0.00    +0.150 HD
ATOM     27  H   UNL     1      10.211   6.337   1.221  0.00  0.00    +0.150 HD
BRANCH   8  21
ATOM     21  C   UNL     1      10.833   4.716  -0.007  0.00  0.00    +0.068 C 
ATOM     22  C   UNL     1      12.283   4.885  -0.443  0.00  0.00    +0.027 C 
ATOM     23  C   UNL     1       9.873   5.218  -1.077  0.00  0.00    +0.027 C 
ENDBRANCH   8  21
ENDBRANCH  15   7
ENDBRANCH  10  15
BRANCH  12  18
ATOM     18  C   UNL     1       9.587   4.785   9.062  0.00  0.00    +0.190 C 
BRANCH  18   3
ATOM      3  O   UNL     1      10.214   3.682   8.426  0.00  0.00    -0.392 OA
ATOM     26  H   UNL     1      11.073   3.994   8.094  0.00  0.00    +0.210 HD
ENDBRANCH  18   3
ENDBRANCH  12  18
TORSDOF 7
ENDMDL
MODEL 5
REMARK VINA RESULT:      -4.8     24.218     26.184
REMARK  Name = 28961662
REMARK  10 active torsions:
REMARK  status: ('A' for Active; 'I' for Inactive)
REMARK    1  A    between atoms: O_2  and  C_11
REMARK    2  A    between atoms: O_3  and  C_18
REMARK    3  A    between atoms: N_5  and  C_9
REMARK    4  A    between atoms: N_6  and  C_19
REMARK    5  A    between atoms: N_7  and  C_15
REMARK    6  A    between atoms: N_8  and  C_21
REMARK    7  A    between atoms: C_10  and  C_15
REMARK    8  A    between atoms: C_12  and  C_18
REMARK    9  A    between atoms: C_21  and  C_22
REMARK   10  A    between atoms: C_21  and  C_23
REMARK                            x       y       z     vdW  Elec       q    Type
REMARK                         _______ _______ _______ _____ _____    ______ ____
ROOT
ATOM      1  O   UNL     1      13.220   7.462   3.621  0.00  0.00    -0.365 OA
ATOM      9  C   UNL     1      13.594   6.587   1.439  0.00  0.00    +0.118 C 
ATOM     10  C   UNL     1      12.532   6.831   2.518  0.00  0.00    +0.155 C 
ATOM     11  C   UNL     1      14.883   6.495   2.242  0.00  0.00    +0.165 C 
ATOM     12  C   UNL     1      14.624   7.550   3.311  0.00  0.00    +0.174 C 
ENDROOT
BRANCH   9   5
ATOM      5  N   UNL     1      13.347   5.471   0.528  0.00  0.00    -0.292 NA
ATOM      6  N   UNL     1      13.041   4.315  -2.103  0.00  0.00    -0.303 NA
ATOM     13  C   UNL     1      12.141   5.710  -0.273  0.00  0.00    +0.100 C 
ATOM     14  C   UNL     1      14.505   5.242  -0.343  0.00  0.00    +0.100 C 
ATOM     16  C   UNL     1      11.882   4.543  -1.231  0.00  0.00    +0.099 C 
ATOM     17  C   UNL     1      14.245   4.074  -1.301  0.00  0.00    +0.099 C 
ATOM     19  C   UNL     1      12.793   3.200  -3.016  0.00  0.00    +0.105 C 
ENDBRANCH   9   5
BRANCH  11   2
ATOM      2  O   UNL     1      15.035   5.213   2.838  0.00  0.00    -0.388 OA
ATOM     24  H   UNL     1      15.983   5.077   3.004  0.00  0.00    +0.210 HD
ENDBRANCH  11   2
BRANCH  10  15
ATOM     15  C   UNL     1      11.824   5.599   3.072  0.00  0.00    +0.139 C 
BRANCH  15   7
ATOM      4  O   UNL     1       9.407   5.186   4.592  0.00  0.00    -0.253 OA
ATOM      7  N   UNL     1      11.674   5.686   4.493  0.00  0.00    -0.297 N 
ATOM      8  N   UNL     1      10.597   5.619   6.536  0.00  0.00    -0.297 N 
ATOM     20  C   UNL     1      10.461   5.470   5.158  0.00  0.00    +0.300 C 
ATOM     25  H   UNL     1      12.493   5.907   5.049  0.00  0.00    +0.150 HD
ATOM     27  H   UNL     1      11.526   5.781   6.915  0.00  0.00    +0.150 HD
BRANCH   8  21
ATOM     21  C   UNL     1       9.495   5.449   7.454  0.00  0.00    +0.068 C 
ATOM     22  C   UNL     1       9.198   6.759   8.171  0.00  0.00    +0.027 C 
ATOM     23  C   UNL     1       9.793   4.332   8.446  0.00  0.00    +0.027 C 
ENDBRANCH   8  21
ENDBRANCH  15   7
ENDBRANCH  10  15
BRANCH  12  18
ATOM     18  C   UNL     1      15.428   7.397   4.589  0.00  0.00    +0.190 C 
BRANCH  18   3
ATOM      3  O   UNL     1      14.694   6.594   5.500  0.00  0.00    -0.392 OA
ATOM     26  H   UNL     1      15.317   6.289   6.181  0.00  0.00    +0.210 HD
ENDBRANCH  18   3
ENDBRANCH  12  18
TORSDOF 7
ENDMDL
MODEL 6
REMARK VINA RESULT:      -4.8      4.828      6.757
REMARK  Name = 28961662
REMARK  10 active torsions:
REMARK  status: ('A' for Active; 'I' for Inactive)
REMARK    1  A    between atoms: O_2  and  C_11
REMARK    2  A    between atoms: O_3  and  C_18
REMARK    3  A    between atoms: N_5  and  C_9
REMARK    4  A    between atoms: N_6  and  C_19
REMARK    5  A    between atoms: N_7  and  C_15
REMARK    6  A    between atoms: N_8  and  C_21
REMARK    7  A    between atoms: C_10  and  C_15
REMARK    8  A    between atoms: C_12  and  C_18
REMARK    9  A    between atoms: C_21  and  C_22
REMARK   10  A    between atoms: C_21  and  C_23
REMARK                            x       y       z     vdW  Elec       q    Type
REMARK                         _______ _______ _______ _____ _____    ______ ____
ROOT
ATOM      1  O   UNL     1      -7.157 -11.969  16.776  0.00  0.00    -0.365 OA
ATOM      9  C   UNL     1      -9.027 -10.496  16.809  0.00  0.00    +0.118 C 
ATOM     10  C   UNL     1      -7.985 -11.166  15.905  0.00  0.00    +0.155 C 
ATOM     11  C   UNL     1      -8.327 -10.445  18.158  0.00  0.00    +0.165 C 
ATOM     12  C   UNL     1      -7.581 -11.774  18.139  0.00  0.00    +0.174 C 
ENDROOT
BRANCH   9   5
ATOM      5  N   UNL     1      -9.567  -9.222  16.339  0.00  0.00    -0.292 NA
ATOM      6  N   UNL     1     -11.732  -7.380  15.815  0.00  0.00    -0.303 NA
ATOM     13  C   UNL     1     -10.489  -9.429  15.216  0.00  0.00    +0.100 C 
ATOM     14  C   UNL     1     -10.239  -8.506  17.429  0.00  0.00    +0.100 C 
ATOM     16  C   UNL     1     -11.060  -8.095  14.724  0.00  0.00    +0.099 C 
ATOM     17  C   UNL     1     -10.809  -7.171  16.936  0.00  0.00    +0.099 C 
ATOM     19  C   UNL     1     -12.275  -6.107  15.345  0.00  0.00    +0.105 C 
ENDBRANCH   9   5
BRANCH  11   2
ATOM      2  O   UNL     1      -7.408  -9.363  18.228  0.00  0.00    -0.388 OA
ATOM     24  H   UNL     1      -7.337  -9.097  19.161  0.00  0.00    +0.210 HD
ENDBRANCH  11   2
BRANCH  10  15
ATOM     15  C   UNL     1      -7.057 -10.240  15.126  0.00  0.00    +0.139 C 
BRANCH  15   7
ATOM      4  O   UNL     1      -4.683 -10.427  13.497  0.00  0.00    -0.253 OA
ATOM      7  N   UNL     1      -5.706 -10.361  15.583  0.00  0.00    -0.297 N 
ATOM      8  N   UNL     1      -3.409 -10.557  15.431  0.00  0.00    -0.297 N 
ATOM     20  C   UNL     1      -4.603 -10.447  14.725  0.00  0.00    +0.300 C 
ATOM     25  H   UNL     1      -5.537 -10.375  16.584  0.00  0.00    +0.150 HD
ATOM     27  H   UNL     1      -3.439 -10.489  16.445  0.00  0.00    +0.150 HD
BRANCH   8  21
ATOM     21  C   UNL     1      -2.122 -10.661  14.783  0.00  0.00    +0.068 C 
ATOM     22  C   UNL     1      -1.810 -12.116  14.457  0.00  0.00    +0.027 C 
ATOM     23  C   UNL     1      -1.034 -10.045  15.653  0.00  0.00    +0.027 C 
ENDBRANCH   8  21
ENDBRANCH  15   7
ENDBRANCH  10  15
BRANCH  12  18
ATOM     18  C   UNL     1      -6.374 -11.859  19.055  0.00  0.00    +0.190 C 
BRANCH  18   3
ATOM      3  O   UNL     1      -5.262 -11.263  18.406  0.00  0.00    -0.392 OA
ATOM     26  H   UNL     1      -4.659 -10.949  19.101  0.00  0.00    +0.210 HD
ENDBRANCH  18   3
ENDBRANCH  12  18
TORSDOF 7
ENDMDL
MODEL 7
REMARK VINA RESULT:      -4.6     21.585     23.469
REMARK  Name = 28961662
REMARK  10 active torsions:
REMARK  status: ('A' for Active; 'I' for Inactive)
REMARK    1  A    between atoms: O_2  and  C_11
REMARK    2  A    between atoms: O_3  and  C_18
REMARK    3  A    between atoms: N_5  and  C_9
REMARK    4  A    between atoms: N_6  and  C_19
REMARK    5  A    between atoms: N_7  and  C_15
REMARK    6  A    between atoms: N_8  and  C_21
REMARK    7  A    between atoms: C_10  and  C_15
REMARK    8  A    between atoms: C_12  and  C_18
REMARK    9  A    between atoms: C_21  and  C_22
REMARK   10  A    between atoms: C_21  and  C_23
REMARK                            x       y       z     vdW  Elec       q    Type
REMARK                         _______ _______ _______ _____ _____    ______ ____
ROOT
ATOM      1  O   UNL     1     -17.471   3.060  23.692  0.00  0.00    -0.365 OA
ATOM      9  C   UNL     1     -17.362   2.582  26.021  0.00  0.00    +0.118 C 
ATOM     10  C   UNL     1     -16.854   3.517  24.916  0.00  0.00    +0.155 C 
ATOM     11  C   UNL     1     -17.693   1.305  25.264  0.00  0.00    +0.165 C 
ATOM     12  C   UNL     1     -18.252   1.883  23.969  0.00  0.00    +0.174 C 
ENDROOT
BRANCH   9   5
ATOM      5  N   UNL     1     -16.485   2.411  27.177  0.00  0.00    -0.292 NA
ATOM      6  N   UNL     1     -15.941   2.400  30.016  0.00  0.00    -0.303 NA
ATOM     13  C   UNL     1     -16.375   3.663  27.937  0.00  0.00    +0.100 C 
ATOM     14  C   UNL     1     -16.966   1.327  28.041  0.00  0.00    +0.100 C 
ATOM     16  C   UNL     1     -15.459   3.485  29.153  0.00  0.00    +0.099 C 
ATOM     17  C   UNL     1     -16.049   1.149  29.256  0.00  0.00    +0.099 C 
ATOM     19  C   UNL     1     -15.065   2.230  31.174  0.00  0.00    +0.105 C 
ENDBRANCH   9   5
BRANCH  11   2
ATOM      2  O   UNL     1     -16.524   0.539  25.000  0.00  0.00    -0.388 OA
ATOM     24  H   UNL     1     -15.755   1.080  25.247  0.00  0.00    +0.210 HD
ENDBRANCH  11   2
BRANCH  10  15
ATOM     15  C   UNL     1     -15.347   3.543  24.681  0.00  0.00    +0.139 C 
BRANCH  15   7
ATOM      4  O   UNL     1     -14.716   4.258  21.958  0.00  0.00    -0.253 OA
ATOM      7  N   UNL     1     -14.922   4.824  24.202  0.00  0.00    -0.297 N 
ATOM      8  N   UNL     1     -14.244   6.415  22.671  0.00  0.00    -0.297 N 
ATOM     20  C   UNL     1     -14.635   5.092  22.859  0.00  0.00    +0.300 C 
ATOM     25  H   UNL     1     -14.835   5.581  24.872  0.00  0.00    +0.150 HD
ATOM     27  H   UNL     1     -14.279   7.047  23.466  0.00  0.00    +0.150 HD
BRANCH   8  21
ATOM     21  C   UNL     1     -13.891   6.951  21.377  0.00  0.00    +0.068 C 
ATOM     22  C   UNL     1     -12.422   6.683  21.076  0.00  0.00    +0.027 C 
ATOM     23  C   UNL     1     -14.205   8.440  21.311  0.00  0.00    +0.027 C 
ENDBRANCH   8  21
ENDBRANCH  15   7
ENDBRANCH  10  15
BRANCH  12  18
ATOM     18  C   UNL     1     -18.206   0.957  22.767  0.00  0.00    +0.190 C 
BRANCH  18   3
ATOM      3  O   UNL     1     -18.502  -0.364  23.194  0.00  0.00    -0.392 OA
ATOM     26  H   UNL     1     -17.705  -0.900  23.040  0.00  0.00    +0.210 HD
ENDBRANCH  18   3
ENDBRANCH  12  18
TORSDOF 7
ENDMDL
MODEL 8
REMARK VINA RESULT:      -4.3     21.695     23.907
REMARK  Name = 28961662
REMARK  10 active torsions:
REMARK  status: ('A' for Active; 'I' for Inactive)
REMARK    1  A    between atoms: O_2  and  C_11
REMARK    2  A    between atoms: O_3  and  C_18
REMARK    3  A    between atoms: N_5  and  C_9
REMARK    4  A    between atoms: N_6  and  C_19
REMARK    5  A    between atoms: N_7  and  C_15
REMARK    6  A    between atoms: N_8  and  C_21
REMARK    7  A    between atoms: C_10  and  C_15
REMARK    8  A    between atoms: C_12  and  C_18
REMARK    9  A    between atoms: C_21  and  C_22
REMARK   10  A    between atoms: C_21  and  C_23
REMARK                            x       y       z     vdW  Elec       q    Type
REMARK                         _______ _______ _______ _____ _____    ______ ____
ROOT
ATOM      1  O   UNL     1     -10.050  11.003  18.365  0.00  0.00    -0.365 OA
ATOM      9  C   UNL     1     -11.461   9.780  19.842  0.00  0.00    +0.118 C 
ATOM     10  C   UNL     1     -10.247   9.679  18.910  0.00  0.00    +0.155 C 
ATOM     11  C   UNL     1     -12.238  10.953  19.264  0.00  0.00    +0.165 C 
ATOM     12  C   UNL     1     -11.095  11.869  18.844  0.00  0.00    +0.174 C 
ENDROOT
BRANCH   9   5
ATOM      5  N   UNL     1     -12.233   8.555  20.034  0.00  0.00    -0.292 NA
ATOM      6  N   UNL     1     -13.549   6.571  21.673  0.00  0.00    -0.303 NA
ATOM     13  C   UNL     1     -11.463   7.568  20.801  0.00  0.00    +0.100 C 
ATOM     14  C   UNL     1     -13.509   8.841  20.700  0.00  0.00    +0.100 C 
ATOM     16  C   UNL     1     -12.273   6.284  21.007  0.00  0.00    +0.099 C 
ATOM     17  C   UNL     1     -14.318   7.555  20.904  0.00  0.00    +0.099 C 
ATOM     19  C   UNL     1     -14.321   5.345  21.867  0.00  0.00    +0.105 C 
ENDBRANCH   9   5
BRANCH  11   2
ATOM      2  O   UNL     1     -13.002  10.564  18.130  0.00  0.00    -0.388 OA
ATOM     24  H   UNL     1     -12.568  10.933  17.342  0.00  0.00    +0.210 HD
ENDBRANCH  11   2
BRANCH  10  15
ATOM     15  C   UNL     1     -10.366   8.718  17.733  0.00  0.00    +0.139 C 
BRANCH  15   7
ATOM      4  O   UNL     1     -12.437   8.763  15.724  0.00  0.00    -0.253 OA
ATOM      7  N   UNL     1     -10.344   9.423  16.487  0.00  0.00    -0.297 N 
ATOM      8  N   UNL     1     -11.110  10.166  14.438  0.00  0.00    -0.297 N 
ATOM     20  C   UNL     1     -11.394   9.395  15.562  0.00  0.00    +0.300 C 
ATOM     25  H   UNL     1      -9.525   9.982  16.267  0.00  0.00    +0.150 HD
ATOM     27  H   UNL     1     -10.252  10.710  14.430  0.00  0.00    +0.150 HD
BRANCH   8  21
ATOM     21  C   UNL     1     -12.029  10.306  13.332  0.00  0.00    +0.068 C 
ATOM     22  C   UNL     1     -11.625   9.384  12.189  0.00  0.00    +0.027 C 
ATOM     23  C   UNL     1     -12.097  11.757  12.874  0.00  0.00    +0.027 C 
ENDBRANCH   8  21
ENDBRANCH  15   7
ENDBRANCH  10  15
BRANCH  12  18
ATOM     18  C   UNL     1     -11.434  12.887  17.770  0.00  0.00    +0.190 C 
BRANCH  18   3
ATOM      3  O   UNL     1     -10.971  12.404  16.518  0.00  0.00    -0.392 OA
ATOM     26  H   UNL     1     -10.016  12.244  16.608  0.00  0.00    +0.210 HD
ENDBRANCH  18   3
ENDBRANCH  12  18
TORSDOF 7
ENDMDL
MODEL 9
REMARK VINA RESULT:      -4.2     23.464     25.586
REMARK  Name = 28961662
REMARK  10 active torsions:
REMARK  status: ('A' for Active; 'I' for Inactive)
REMARK    1  A    between atoms: O_2  and  C_11
REMARK    2  A    between atoms: O_3  and  C_18
REMARK    3  A    between atoms: N_5  and  C_9
REMARK    4  A    between atoms: N_6  and  C_19
REMARK    5  A    between atoms: N_7  and  C_15
REMARK    6  A    between atoms: N_8  and  C_21
REMARK    7  A    between atoms: C_10  and  C_15
REMARK    8  A    between atoms: C_12  and  C_18
REMARK    9  A    between atoms: C_21  and  C_22
REMARK   10  A    between atoms: C_21  and  C_23
REMARK                            x       y       z     vdW  Elec       q    Type
REMARK                         _______ _______ _______ _____ _____    ______ ____
ROOT
ATOM      1  O   UNL     1       9.156   5.441   6.702  0.00  0.00    -0.365 OA
ATOM      9  C   UNL     1       8.495   7.684   6.260  0.00  0.00    +0.118 C 
ATOM     10  C   UNL     1       8.806   6.328   5.616  0.00  0.00    +0.155 C 
ATOM     11  C   UNL     1       9.305   7.647   7.546  0.00  0.00    +0.165 C 
ATOM     12  C   UNL     1       9.146   6.182   7.936  0.00  0.00    +0.174 C 
ENDROOT
BRANCH   9   5
ATOM      5  N   UNL     1       8.710   8.862   5.422  0.00  0.00    -0.292 NA
ATOM      6  N   UNL     1       7.962  11.454   4.382  0.00  0.00    -0.303 NA
ATOM     13  C   UNL     1       7.631   9.006   4.437  0.00  0.00    +0.100 C 
ATOM     14  C   UNL     1       8.820  10.074   6.243  0.00  0.00    +0.100 C 
ATOM     16  C   UNL     1       7.853  10.242   3.560  0.00  0.00    +0.099 C 
ATOM     17  C   UNL     1       9.043  11.309   5.365  0.00  0.00    +0.099 C 
ATOM     19  C   UNL     1       8.175  12.632   3.544  0.00  0.00    +0.105 C 
ENDBRANCH   9   5
BRANCH  11   2
ATOM      2  O   UNL     1      10.675   7.949   7.308  0.00  0.00    -0.388 OA
ATOM     24  H   UNL     1      10.731   8.889   7.066  0.00  0.00    +0.210 HD
ENDBRANCH  11   2
BRANCH  10  15
ATOM     15  C   UNL     1       9.956   6.292   4.615  0.00  0.00    +0.139 C 
BRANCH  15   7
ATOM      4  O   UNL     1      12.228   8.071   4.615  0.00  0.00    -0.253 OA
ATOM      7  N   UNL     1      11.209   6.090   5.276  0.00  0.00    -0.297 N 
ATOM      8  N   UNL     1      13.367   6.559   5.957  0.00  0.00    -0.297 N 
ATOM     20  C   UNL     1      12.267   7.005   5.228  0.00  0.00    +0.300 C 
ATOM     25  H   UNL     1      11.334   5.240   5.817  0.00  0.00    +0.150 HD
ATOM     27  H   UNL     1      13.276   5.699   6.490  0.00  0.00    +0.150 HD
BRANCH   8  21
ATOM     21  C   UNL     1      14.591   7.317   6.069  0.00  0.00    +0.068 C 
ATOM     22  C   UNL     1      14.295   8.733   6.546  0.00  0.00    +0.027 C 
ATOM     23  C   UNL     1      15.339   7.326   4.743  0.00  0.00    +0.027 C 
ENDBRANCH   8  21
ENDBRANCH  15   7
ENDBRANCH  10  15
BRANCH  12  18
ATOM     18  C   UNL     1      10.218   5.631   8.860  0.00  0.00    +0.190 C 
BRANCH  18   3
ATOM      3  O   UNL     1      11.380   5.347   8.096  0.00  0.00    -0.392 OA
ATOM     26  H   UNL     1      11.910   6.162   8.068  0.00  0.00    +0.210 HD
ENDBRANCH  18   3
ENDBRANCH  12  18
TORSDOF 7
ENDMDL
MODEL 10
REMARK VINA RESULT:      -4.2     21.499     24.096
REMARK  Name = 28961662
REMARK  10 active torsions:
REMARK  status: ('A' for Active; 'I' for Inactive)
REMARK    1  A    between atoms: O_2  and  C_11
REMARK    2  A    between atoms: O_3  and  C_18
REMARK    3  A    between atoms: N_5  and  C_9
REMARK    4  A    between atoms: N_6  and  C_19
REMARK    5  A    between atoms: N_7  and  C_15
REMARK    6  A    between atoms: N_8  and  C_21
REMARK    7  A    between atoms: C_10  and  C_15
REMARK    8  A    between atoms: C_12  and  C_18
REMARK    9  A    between atoms: C_21  and  C_22
REMARK   10  A    between atoms: C_21  and  C_23
REMARK                            x       y       z     vdW  Elec       q    Type
REMARK                         _______ _______ _______ _____ _____    ______ ____
ROOT
ATOM      1  O   UNL     1      -9.904   9.561  17.988  0.00  0.00    -0.365 OA
ATOM      9  C   UNL     1     -11.332  10.315  19.737  0.00  0.00    +0.118 C 
ATOM     10  C   UNL     1     -10.712   9.074  19.083  0.00  0.00    +0.155 C 
ATOM     11  C   UNL     1     -11.361  11.323  18.599  0.00  0.00    +0.165 C 
ATOM     12  C   UNL     1     -10.051  10.991  17.895  0.00  0.00    +0.174 C 
ENDROOT
BRANCH   9   5
ATOM      5  N   UNL     1     -12.606  10.115  20.424  0.00  0.00    -0.292 NA
ATOM      6  N   UNL     1     -14.276  10.045  22.783  0.00  0.00    -0.303 NA
ATOM     13  C   UNL     1     -12.508   9.018  21.396  0.00  0.00    +0.100 C 
ATOM     14  C   UNL     1     -13.042  11.349  21.086  0.00  0.00    +0.100 C 
ATOM     16  C   UNL     1     -13.841   8.809  22.120  0.00  0.00    +0.099 C 
ATOM     17  C   UNL     1     -14.376  11.139  21.810  0.00  0.00    +0.099 C 
ATOM     19  C   UNL     1     -15.549   9.844  23.472  0.00  0.00    +0.105 C 
ENDBRANCH   9   5
BRANCH  11   2
ATOM      2  O   UNL     1     -12.462  11.095  17.728  0.00  0.00    -0.388 OA
ATOM     24  H   UNL     1     -12.422  11.763  17.022  0.00  0.00    +0.210 HD
ENDBRANCH  11   2
BRANCH  10  15
ATOM     15  C   UNL     1     -11.680   8.047  18.507  0.00  0.00    +0.139 C 
BRANCH  15   7
ATOM      4  O   UNL     1     -13.787   8.570  16.607  0.00  0.00    -0.253 OA
ATOM      7  N   UNL     1     -11.587   7.992  17.080  0.00  0.00    -0.297 N 
ATOM      8  N   UNL     1     -12.294   8.134  14.885  0.00  0.00    -0.297 N 
ATOM     20  C   UNL     1     -12.660   8.261  16.222  0.00  0.00    +0.300 C 
ATOM     25  H   UNL     1     -10.690   7.754  16.667  0.00  0.00    +0.150 HD
ATOM     27  H   UNL     1     -11.319   7.948  14.667  0.00  0.00    +0.150 HD
BRANCH   8  21
ATOM     21  C   UNL     1     -13.216   8.358  13.796  0.00  0.00    +0.068 C 
ATOM     22  C   UNL     1     -13.677   7.029  13.212  0.00  0.00    +0.027 C 
ATOM     23  C   UNL     1     -12.580   9.239  12.729  0.00  0.00    +0.027 C 
ENDBRANCH   8  21
ENDBRANCH  15   7
ENDBRANCH  10  15
BRANCH  12  18
ATOM     18  C   UNL     1      -9.967  11.409  16.438  0.00  0.00    +0.190 C 
BRANCH  18   3
ATOM      3  O   UNL     1     -10.203  10.273  15.620  0.00  0.00    -0.392 OA
ATOM     26  H   UNL     1      -9.544   9.602  15.866  0.00  0.00    +0.210 HD
ENDBRANCH  18   3
ENDBRANCH  12  18
TORSDOF 7
ENDMDL
