MODEL 1
REMARK VINA RESULT:      -6.5      0.000      0.000
REMARK  Name = 7682247
REMARK  5 active torsions:
REMARK  status: ('A' for Active; 'I' for Inactive)
REMARK    1  A    between atoms: O_3  and  C_27
REMARK    2  A    between atoms: O_3  and  C_28
REMARK    3  A    between atoms: N_4  and  C_13
REMARK    4  A    between atoms: C_13  and  C_18
REMARK    5  A    between atoms: C_14  and  C_19
REMARK                            x       y       z     vdW  Elec       q    Type
REMARK                         _______ _______ _______ _____ _____    ______ ____
ROOT
ATOM      2  O   UNL     1      10.551   8.781  22.187  0.00  0.00    -0.268 OA
ATOM      4  N   UNL     1      14.172   7.748  18.932  0.00  0.00    -0.297 NA
ATOM      5  N   UNL     1      11.973   9.465  20.456  0.00  0.00    -0.311 N 
ATOM      6  C   UNL     1      11.885   8.371  18.136  0.00  0.00    +0.024 C 
ATOM      7  C   UNL     1      13.515  10.139  18.590  0.00  0.00    +0.051 C 
ATOM      8  C   UNL     1      12.389   9.718  17.649  0.00  0.00    +0.017 C 
ATOM      9  C   UNL     1      13.024   7.332  18.118  0.00  0.00    +0.090 C 
ATOM     10  C   UNL     1      14.646   9.083  18.542  0.00  0.00    +0.094 C 
ATOM     11  C   UNL     1      11.283   8.553  19.531  0.00  0.00    +0.130 C 
ATOM     12  C   UNL     1      13.003  10.325  20.024  0.00  0.00    +0.034 A 
ATOM     14  C   UNL     1      13.510  11.255  20.878  0.00  0.00    +0.009 A 
ATOM     15  C   UNL     1      11.457   9.500  21.764  0.00  0.00    +0.252 A 
ATOM     16  C   UNL     1      13.004  11.315  22.238  0.00  0.00    +0.016 A 
ATOM     17  C   UNL     1      12.052  10.495  22.683  0.00  0.00    +0.071 A 
ENDROOT
BRANCH  14  19
ATOM      1  S   UNL     1      14.112  13.644  19.718  0.00  0.00    -0.097 S 
ATOM     19  C   UNL     1      14.544  12.159  20.453  0.00  0.00    +0.021 A 
ATOM     22  C   UNL     1      15.909  12.007  20.548  0.00  0.00    +0.016 A 
ATOM     25  C   UNL     1      16.611  13.125  20.012  0.00  0.00    +0.008 A 
ATOM     26  C   UNL     1      15.754  14.089  19.527  0.00  0.00    +0.046 A 
ENDBRANCH  14  19
BRANCH   4  13
ATOM     13  C   UNL     1      15.250   6.766  18.857  0.00  0.00    +0.119 C 
BRANCH  13  18
ATOM     18  C   UNL     1      16.354   7.068  19.829  0.00  0.00    -0.033 A 
ATOM     20  C   UNL     1      17.530   6.331  19.784  0.00  0.00    +0.008 A 
ATOM     21  C   UNL     1      16.188   8.083  20.764  0.00  0.00    +0.008 A 
ATOM     23  C   UNL     1      18.556   6.610  20.686  0.00  0.00    +0.046 A 
ATOM     24  C   UNL     1      17.214   8.364  21.666  0.00  0.00    +0.046 A 
ATOM     27  C   UNL     1      18.398   7.628  21.628  0.00  0.00    +0.120 A 
BRANCH  27   3
ATOM      3  O   UNL     1      19.399   7.901  22.508  0.00  0.00    -0.495 OA
ATOM     28  C   UNL     1      20.327   6.853  22.784  0.00  0.00    +0.277 C 
ENDBRANCH  27   3
ENDBRANCH  13  18
ENDBRANCH   4  13
TORSDOF 4
ENDMDL
MODEL 2
REMARK VINA RESULT:      -6.3     14.449     16.874
REMARK  Name = 7682247
REMARK  5 active torsions:
REMARK  status: ('A' for Active; 'I' for Inactive)
REMARK    1  A    between atoms: O_3  and  C_27
REMARK    2  A    between atoms: O_3  and  C_28
REMARK    3  A    between atoms: N_4  and  C_13
REMARK    4  A    between atoms: C_13  and  C_18
REMARK    5  A    between atoms: C_14  and  C_19
REMARK                            x       y       z     vdW  Elec       q    Type
REMARK                         _______ _______ _______ _____ _____    ______ ____
ROOT
ATOM      2  O   UNL     1       7.264   9.191   4.168  0.00  0.00    -0.268 OA
ATOM      4  N   UNL     1      11.340   7.772   6.646  0.00  0.00    -0.297 NA
ATOM      5  N   UNL     1       8.795   7.520   4.759  0.00  0.00    -0.311 N 
ATOM      6  C   UNL     1       9.108   6.790   7.199  0.00  0.00    +0.024 C 
ATOM      7  C   UNL     1      10.461   5.766   5.436  0.00  0.00    +0.051 C 
ATOM      8  C   UNL     1       9.510   5.458   6.590  0.00  0.00    +0.017 C 
ATOM      9  C   UNL     1      10.353   7.546   7.707  0.00  0.00    +0.090 C 
ATOM     10  C   UNL     1      11.702   6.514   5.979  0.00  0.00    +0.094 C 
ATOM     11  C   UNL     1       8.328   7.586   6.152  0.00  0.00    +0.130 C 
ATOM     12  C   UNL     1       9.765   6.585   4.342  0.00  0.00    +0.034 A 
ATOM     14  C   UNL     1      10.057   6.458   3.020  0.00  0.00    +0.009 A 
ATOM     15  C   UNL     1       8.126   8.368   3.858  0.00  0.00    +0.252 A 
ATOM     16  C   UNL     1       9.389   7.322   2.063  0.00  0.00    +0.016 A 
ATOM     17  C   UNL     1       8.490   8.235   2.430  0.00  0.00    +0.071 A 
ENDROOT
BRANCH  14  19
ATOM      1  S   UNL     1      12.623   6.006   2.231  0.00  0.00    -0.097 S 
ATOM     19  C   UNL     1      11.025   5.495   2.569  0.00  0.00    +0.021 A 
ATOM     22  C   UNL     1      10.857   4.145   2.353  0.00  0.00    +0.016 A 
ATOM     25  C   UNL     1      12.056   3.522   1.905  0.00  0.00    +0.008 A 
ATOM     26  C   UNL     1      13.096   4.419   1.795  0.00  0.00    +0.046 A 
ENDBRANCH  14  19
BRANCH   4  13
ATOM     13  C   UNL     1      12.525   8.449   7.169  0.00  0.00    +0.119 C 
BRANCH  13  18
ATOM     18  C   UNL     1      13.608   8.561   6.137  0.00  0.00    -0.033 A 
ATOM     20  C   UNL     1      14.841   7.961   6.367  0.00  0.00    +0.008 A 
ATOM     21  C   UNL     1      13.369   9.262   4.961  0.00  0.00    +0.008 A 
ATOM     23  C   UNL     1      15.849   8.065   5.409  0.00  0.00    +0.046 A 
ATOM     24  C   UNL     1      14.377   9.365   4.002  0.00  0.00    +0.046 A 
ATOM     27  C   UNL     1      15.617   8.767   4.225  0.00  0.00    +0.120 A 
BRANCH  27   3
ATOM      3  O   UNL     1      16.600   8.868   3.290  0.00  0.00    -0.495 OA
ATOM     28  C   UNL     1      17.888   8.365   3.644  0.00  0.00    +0.277 C 
ENDBRANCH  27   3
ENDBRANCH  13  18
ENDBRANCH   4  13
TORSDOF 4
ENDMDL
MODEL 3
REMARK VINA RESULT:      -6.3     12.800     15.534
REMARK  Name = 7682247
REMARK  5 active torsions:
REMARK  status: ('A' for Active; 'I' for Inactive)
REMARK    1  A    between atoms: O_3  and  C_27
REMARK    2  A    between atoms: O_3  and  C_28
REMARK    3  A    between atoms: N_4  and  C_13
REMARK    4  A    between atoms: C_13  and  C_18
REMARK    5  A    between atoms: C_14  and  C_19
REMARK                            x       y       z     vdW  Elec       q    Type
REMARK                         _______ _______ _______ _____ _____    ______ ____
ROOT
ATOM      2  O   UNL     1      19.687  -5.302  21.344  0.00  0.00    -0.268 OA
ATOM      4  N   UNL     1      18.577  -1.924  24.826  0.00  0.00    -0.297 NA
ATOM      5  N   UNL     1      18.232  -4.497  22.993  0.00  0.00    -0.311 N 
ATOM      6  C   UNL     1      17.133  -2.186  22.801  0.00  0.00    +0.024 C 
ATOM      7  C   UNL     1      16.703  -3.582  24.764  0.00  0.00    +0.051 C 
ATOM      8  C   UNL     1      16.027  -2.811  23.634  0.00  0.00    +0.017 C 
ATOM      9  C   UNL     1      17.990  -1.241  23.668  0.00  0.00    +0.090 C 
ATOM     10  C   UNL     1      17.546  -2.606  25.621  0.00  0.00    +0.094 C 
ATOM     11  C   UNL     1      17.959  -3.309  22.171  0.00  0.00    +0.130 C 
ATOM     12  C   UNL     1      17.574  -4.721  24.220  0.00  0.00    +0.034 A 
ATOM     14  C   UNL     1      17.745  -5.903  24.873  0.00  0.00    +0.009 A 
ATOM     15  C   UNL     1      19.100  -5.442  22.417  0.00  0.00    +0.252 A 
ATOM     16  C   UNL     1      18.639  -6.898  24.309  0.00  0.00    +0.016 A 
ATOM     17  C   UNL     1      19.297  -6.702  23.167  0.00  0.00    +0.071 A 
ENDROOT
BRANCH  14  19
ATOM      1  S   UNL     1      17.847  -5.794  27.592  0.00  0.00    -0.097 S 
ATOM     19  C   UNL     1      17.066  -6.162  26.113  0.00  0.00    +0.021 A 
ATOM     22  C   UNL     1      15.811  -6.694  26.310  0.00  0.00    +0.016 A 
ATOM     25  C   UNL     1      15.485  -6.800  27.693  0.00  0.00    +0.008 A 
ATOM     26  C   UNL     1      16.505  -6.346  28.500  0.00  0.00    +0.046 A 
ENDBRANCH  14  19
BRANCH   4  13
ATOM     13  C   UNL     1      19.343  -0.993  25.650  0.00  0.00    +0.119 C 
BRANCH  13  18
ATOM     18  C   UNL     1      20.799  -1.353  25.698  0.00  0.00    -0.033 A 
ATOM     20  C   UNL     1      21.759  -0.353  25.593  0.00  0.00    +0.008 A 
ATOM     21  C   UNL     1      21.174  -2.683  25.848  0.00  0.00    +0.008 A 
ATOM     23  C   UNL     1      23.112  -0.686  25.637  0.00  0.00    +0.046 A 
ATOM     24  C   UNL     1      22.528  -3.017  25.893  0.00  0.00    +0.046 A 
ATOM     27  C   UNL     1      23.497  -2.019  25.788  0.00  0.00    +0.120 A 
BRANCH  27   3
ATOM      3  O   UNL     1      24.818  -2.344  25.832  0.00  0.00    -0.495 OA
ATOM     28  C   UNL     1      25.182  -3.648  25.382  0.00  0.00    +0.277 C 
ENDBRANCH  27   3
ENDBRANCH  13  18
ENDBRANCH   4  13
TORSDOF 4
ENDMDL
MODEL 4
REMARK VINA RESULT:      -6.2     14.645     17.150
REMARK  Name = 7682247
REMARK  5 active torsions:
REMARK  status: ('A' for Active; 'I' for Inactive)
REMARK    1  A    between atoms: O_3  and  C_27
REMARK    2  A    between atoms: O_3  and  C_28
REMARK    3  A    between atoms: N_4  and  C_13
REMARK    4  A    between atoms: C_13  and  C_18
REMARK    5  A    between atoms: C_14  and  C_19
REMARK                            x       y       z     vdW  Elec       q    Type
REMARK                         _______ _______ _______ _____ _____    ______ ____
ROOT
ATOM      2  O   UNL     1      12.993   9.607   6.301  0.00  0.00    -0.268 OA
ATOM      4  N   UNL     1       9.795   5.898   5.419  0.00  0.00    -0.297 NA
ATOM      5  N   UNL     1      10.795   8.803   6.233  0.00  0.00    -0.311 N 
ATOM      6  C   UNL     1      10.033   6.853   7.717  0.00  0.00    +0.024 C 
ATOM      7  C   UNL     1       8.459   7.883   6.152  0.00  0.00    +0.051 C 
ATOM      8  C   UNL     1       8.668   7.510   7.618  0.00  0.00    +0.017 C 
ATOM      9  C   UNL     1      10.091   5.597   6.824  0.00  0.00    +0.090 C 
ATOM     10  C   UNL     1       8.512   6.602   5.284  0.00  0.00    +0.094 C 
ATOM     11  C   UNL     1      11.097   7.886   7.343  0.00  0.00    +0.130 C 
ATOM     12  C   UNL     1       9.501   8.905   5.682  0.00  0.00    +0.034 A 
ATOM     14  C   UNL     1       9.232   9.870   4.761  0.00  0.00    +0.009 A 
ATOM     15  C   UNL     1      11.851   9.646   5.843  0.00  0.00    +0.252 A 
ATOM     16  C   UNL     1      10.301  10.753   4.332  0.00  0.00    +0.016 A 
ATOM     17  C   UNL     1      11.541  10.661   4.812  0.00  0.00    +0.071 A 
ENDROOT
BRANCH  14  19
ATOM      1  S   UNL     1       7.552   9.257   2.708  0.00  0.00    -0.097 S 
ATOM     19  C   UNL     1       7.914  10.008   4.204  0.00  0.00    +0.021 A 
ATOM     22  C   UNL     1       6.833  10.692   4.714  0.00  0.00    +0.016 A 
ATOM     25  C   UNL     1       5.692  10.597   3.867  0.00  0.00    +0.008 A 
ATOM     26  C   UNL     1       5.944   9.845   2.741  0.00  0.00    +0.046 A 
ENDBRANCH  14  19
BRANCH   4  13
ATOM     13  C   UNL     1       9.813   4.682   4.609  0.00  0.00    +0.119 C 
BRANCH  13  18
ATOM     18  C   UNL     1      10.909   4.707   3.584  0.00  0.00    -0.033 A 
ATOM     20  C   UNL     1      11.153   3.578   2.811  0.00  0.00    +0.008 A 
ATOM     21  C   UNL     1      11.668   5.859   3.417  0.00  0.00    +0.008 A 
ATOM     23  C   UNL     1      12.172   3.600   1.859  0.00  0.00    +0.046 A 
ATOM     24  C   UNL     1      12.686   5.882   2.463  0.00  0.00    +0.046 A 
ATOM     27  C   UNL     1      12.939   4.753   1.685  0.00  0.00    +0.120 A 
BRANCH  27   3
ATOM      3  O   UNL     1      13.932   4.774   0.755  0.00  0.00    -0.495 OA
ATOM     28  C   UNL     1      15.076   3.959   1.005  0.00  0.00    +0.277 C 
ENDBRANCH  27   3
ENDBRANCH  13  18
ENDBRANCH   4  13
TORSDOF 4
ENDMDL
MODEL 5
REMARK VINA RESULT:      -6.2     14.865     17.951
REMARK  Name = 7682247
REMARK  5 active torsions:
REMARK  status: ('A' for Active; 'I' for Inactive)
REMARK    1  A    between atoms: O_3  and  C_27
REMARK    2  A    between atoms: O_3  and  C_28
REMARK    3  A    between atoms: N_4  and  C_13
REMARK    4  A    between atoms: C_13  and  C_18
REMARK    5  A    between atoms: C_14  and  C_19
REMARK                            x       y       z     vdW  Elec       q    Type
REMARK                         _______ _______ _______ _____ _____    ______ ____
ROOT
ATOM      2  O   UNL     1      10.530   4.294   2.534  0.00  0.00    -0.268 OA
ATOM      4  N   UNL     1       9.061   7.891   5.644  0.00  0.00    -0.297 NA
ATOM      5  N   UNL     1      10.940   5.652   4.398  0.00  0.00    -0.311 N 
ATOM      6  C   UNL     1       9.441   5.565   6.478  0.00  0.00    +0.024 C 
ATOM      7  C   UNL     1      11.322   7.127   6.395  0.00  0.00    +0.051 C 
ATOM      8  C   UNL     1      10.695   6.001   7.214  0.00  0.00    +0.017 C 
ATOM      9  C   UNL     1       8.460   6.747   6.339  0.00  0.00    +0.090 C 
ATOM     10  C   UNL     1      10.319   8.301   6.283  0.00  0.00    +0.094 C 
ATOM     11  C   UNL     1       9.851   4.983   5.124  0.00  0.00    +0.130 C 
ATOM     12  C   UNL     1      11.747   6.636   5.006  0.00  0.00    +0.034 A 
ATOM     14  C   UNL     1      12.835   7.120   4.348  0.00  0.00    +0.009 A 
ATOM     15  C   UNL     1      11.193   5.160   3.105  0.00  0.00    +0.252 A 
ATOM     16  C   UNL     1      13.122   6.638   3.008  0.00  0.00    +0.016 A 
ATOM     17  C   UNL     1      12.361   5.731   2.396  0.00  0.00    +0.071 A 
ENDROOT
BRANCH  14  19
ATOM      1  S   UNL     1      13.446   9.762   4.593  0.00  0.00    -0.097 S 
ATOM     19  C   UNL     1      13.685   8.106   4.957  0.00  0.00    +0.021 A 
ATOM     22  C   UNL     1      14.725   7.916   5.840  0.00  0.00    +0.016 A 
ATOM     25  C   UNL     1      15.333   9.146   6.224  0.00  0.00    +0.008 A 
ATOM     26  C   UNL     1      14.735  10.229   5.618  0.00  0.00    +0.046 A 
ENDBRANCH  14  19
BRANCH   4  13
ATOM     13  C   UNL     1       8.123   9.009   5.570  0.00  0.00    +0.119 C 
BRANCH  13  18
ATOM     18  C   UNL     1       7.609   9.218   4.175  0.00  0.00    -0.033 A 
ATOM     20  C   UNL     1       6.422   9.912   3.978  0.00  0.00    +0.008 A 
ATOM     21  C   UNL     1       8.325   8.716   3.096  0.00  0.00    +0.008 A 
ATOM     23  C   UNL     1       5.942  10.107   2.682  0.00  0.00    +0.046 A 
ATOM     24  C   UNL     1       7.847   8.911   1.800  0.00  0.00    +0.046 A 
ATOM     27  C   UNL     1       6.656   9.606   1.593  0.00  0.00    +0.120 A 
BRANCH  27   3
ATOM      3  O   UNL     1       6.188   9.797   0.329  0.00  0.00    -0.495 OA
ATOM     28  C   UNL     1       4.890   9.287   0.032  0.00  0.00    +0.277 C 
ENDBRANCH  27   3
ENDBRANCH  13  18
ENDBRANCH   4  13
TORSDOF 4
ENDMDL
MODEL 6
REMARK VINA RESULT:      -6.2     14.664     16.954
REMARK  Name = 7682247
REMARK  5 active torsions:
REMARK  status: ('A' for Active; 'I' for Inactive)
REMARK    1  A    between atoms: O_3  and  C_27
REMARK    2  A    between atoms: O_3  and  C_28
REMARK    3  A    between atoms: N_4  and  C_13
REMARK    4  A    between atoms: C_13  and  C_18
REMARK    5  A    between atoms: C_14  and  C_19
REMARK                            x       y       z     vdW  Elec       q    Type
REMARK                         _______ _______ _______ _____ _____    ______ ____
ROOT
ATOM      2  O   UNL     1      13.786   6.908   7.372  0.00  0.00    -0.268 OA
ATOM      4  N   UNL     1      10.321   5.824   3.968  0.00  0.00    -0.297 NA
ATOM      5  N   UNL     1      11.650   7.253   6.477  0.00  0.00    -0.311 N 
ATOM      6  C   UNL     1       9.910   5.369   6.393  0.00  0.00    +0.024 C 
ATOM      7  C   UNL     1       9.366   7.574   5.482  0.00  0.00    +0.051 C 
ATOM      8  C   UNL     1       8.902   6.502   6.465  0.00  0.00    +0.017 C 
ATOM      9  C   UNL     1       9.977   4.800   4.961  0.00  0.00    +0.090 C 
ATOM     10  C   UNL     1       9.412   6.976   4.055  0.00  0.00    +0.094 C 
ATOM     11  C   UNL     1      11.264   5.892   6.877  0.00  0.00    +0.130 C 
ATOM     12  C   UNL     1      10.733   8.143   5.880  0.00  0.00    +0.034 A 
ATOM     14  C   UNL     1      11.090   9.438   5.664  0.00  0.00    +0.009 A 
ATOM     15  C   UNL     1      12.953   7.640   6.837  0.00  0.00    +0.252 A 
ATOM     16  C   UNL     1      12.430   9.869   6.019  0.00  0.00    +0.016 A 
ATOM     17  C   UNL     1      13.328   9.044   6.557  0.00  0.00    +0.071 A 
ENDROOT
BRANCH  14  19
ATOM      1  S   UNL     1       9.079  11.224   6.090  0.00  0.00    -0.097 S 
ATOM     19  C   UNL     1      10.164  10.368   5.078  0.00  0.00    +0.021 A 
ATOM     22  C   UNL     1      10.001  10.697   3.751  0.00  0.00    +0.016 A 
ATOM     25  C   UNL     1       8.974  11.666   3.561  0.00  0.00    +0.008 A 
ATOM     26  C   UNL     1       8.390  12.040   4.752  0.00  0.00    +0.046 A 
ENDBRANCH  14  19
BRANCH   4  13
ATOM     13  C   UNL     1      10.331   5.264   2.619  0.00  0.00    +0.119 C 
BRANCH  13  18
ATOM     18  C   UNL     1      11.703   4.815   2.208  0.00  0.00    -0.033 A 
ATOM     20  C   UNL     1      12.736   5.740   2.136  0.00  0.00    +0.008 A 
ATOM     21  C   UNL     1      11.926   3.477   1.904  0.00  0.00    +0.008 A 
ATOM     23  C   UNL     1      14.012   5.324   1.753  0.00  0.00    +0.046 A 
ATOM     24  C   UNL     1      13.201   3.060   1.523  0.00  0.00    +0.046 A 
ATOM     27  C   UNL     1      14.244   3.983   1.447  0.00  0.00    +0.120 A 
BRANCH  27   3
ATOM      3  O   UNL     1      15.488   3.577   1.074  0.00  0.00    -0.495 OA
ATOM     28  C   UNL     1      16.022   4.134  -0.126  0.00  0.00    +0.277 C 
ENDBRANCH  27   3
ENDBRANCH  13  18
ENDBRANCH   4  13
TORSDOF 4
ENDMDL
MODEL 7
REMARK VINA RESULT:      -6.1     27.854     29.916
REMARK  Name = 7682247
REMARK  5 active torsions:
REMARK  status: ('A' for Active; 'I' for Inactive)
REMARK    1  A    between atoms: O_3  and  C_27
REMARK    2  A    between atoms: O_3  and  C_28
REMARK    3  A    between atoms: N_4  and  C_13
REMARK    4  A    between atoms: C_13  and  C_18
REMARK    5  A    between atoms: C_14  and  C_19
REMARK                            x       y       z     vdW  Elec       q    Type
REMARK                         _______ _______ _______ _____ _____    ______ ____
ROOT
ATOM      2  O   UNL     1      -7.179 -14.641  13.533  0.00  0.00    -0.268 OA
ATOM      4  N   UNL     1      -3.467 -11.575  14.792  0.00  0.00    -0.297 NA
ATOM      5  N   UNL     1      -5.379 -13.279  12.910  0.00  0.00    -0.311 N 
ATOM      6  C   UNL     1      -2.987 -13.772  13.699  0.00  0.00    +0.024 C 
ATOM      7  C   UNL     1      -3.432 -11.813  12.301  0.00  0.00    +0.051 C 
ATOM      8  C   UNL     1      -2.582 -13.076  12.411  0.00  0.00    +0.017 C 
ATOM      9  C   UNL     1      -2.745 -12.846  14.909  0.00  0.00    +0.090 C 
ATOM     10  C   UNL     1      -3.159 -10.902  13.523  0.00  0.00    +0.094 C 
ATOM     11  C   UNL     1      -4.450 -14.203  13.577  0.00  0.00    +0.130 C 
ATOM     12  C   UNL     1      -4.924 -12.151  12.195  0.00  0.00    +0.034 A 
ATOM     14  C   UNL     1      -5.804 -11.410  11.471  0.00  0.00    +0.009 A 
ATOM     15  C   UNL     1      -6.732 -13.661  12.937  0.00  0.00    +0.252 A 
ATOM     16  C   UNL     1      -7.210 -11.773  11.481  0.00  0.00    +0.016 A 
ATOM     17  C   UNL     1      -7.674 -12.814  12.172  0.00  0.00    +0.071 A 
ENDROOT
BRANCH  14  19
ATOM      1  S   UNL     1      -4.710 -10.503   9.148  0.00  0.00    -0.097 S 
ATOM     19  C   UNL     1      -5.359 -10.270  10.715  0.00  0.00    +0.021 A 
ATOM     22  C   UNL     1      -5.372  -8.942  11.077  0.00  0.00    +0.016 A 
ATOM     25  C   UNL     1      -4.844  -8.103  10.054  0.00  0.00    +0.008 A 
ATOM     26  C   UNL     1      -4.446  -8.823   8.949  0.00  0.00    +0.046 A 
ENDBRANCH  14  19
BRANCH   4  13
ATOM     13  C   UNL     1      -3.180 -10.704  15.930  0.00  0.00    +0.119 C 
BRANCH  13  18
ATOM     18  C   UNL     1      -4.266 -10.757  16.965  0.00  0.00    -0.033 A 
ATOM     20  C   UNL     1      -5.460 -10.082  16.743  0.00  0.00    +0.008 A 
ATOM     21  C   UNL     1      -4.067 -11.481  18.134  0.00  0.00    +0.008 A 
ATOM     23  C   UNL     1      -6.470 -10.130  17.704  0.00  0.00    +0.046 A 
ATOM     24  C   UNL     1      -5.076 -11.530  19.095  0.00  0.00    +0.046 A 
ATOM     27  C   UNL     1      -6.277 -10.855  18.881  0.00  0.00    +0.120 A 
BRANCH  27   3
ATOM      3  O   UNL     1      -7.263 -10.902  19.819  0.00  0.00    -0.495 OA
ATOM     28  C   UNL     1      -8.424 -11.669  19.504  0.00  0.00    +0.277 C 
ENDBRANCH  27   3
ENDBRANCH  13  18
ENDBRANCH   4  13
TORSDOF 4
ENDMDL
MODEL 8
REMARK VINA RESULT:      -6.0     14.376     16.697
REMARK  Name = 7682247
REMARK  5 active torsions:
REMARK  status: ('A' for Active; 'I' for Inactive)
REMARK    1  A    between atoms: O_3  and  C_27
REMARK    2  A    between atoms: O_3  and  C_28
REMARK    3  A    between atoms: N_4  and  C_13
REMARK    4  A    between atoms: C_13  and  C_18
REMARK    5  A    between atoms: C_14  and  C_19
REMARK                            x       y       z     vdW  Elec       q    Type
REMARK                         _______ _______ _______ _____ _____    ______ ____
ROOT
ATOM      2  O   UNL     1       9.046   5.889   8.188  0.00  0.00    -0.268 OA
ATOM      4  N   UNL     1       9.522   7.441   3.483  0.00  0.00    -0.297 NA
ATOM      5  N   UNL     1       9.858   7.451   6.644  0.00  0.00    -0.311 N 
ATOM      6  C   UNL     1       8.274   8.817   5.157  0.00  0.00    +0.024 C 
ATOM      7  C   UNL     1      10.695   9.101   4.944  0.00  0.00    +0.051 C 
ATOM      8  C   UNL     1       9.386   9.850   5.182  0.00  0.00    +0.017 C 
ATOM      9  C   UNL     1       8.245   8.091   3.796  0.00  0.00    +0.090 C 
ATOM     10  C   UNL     1      10.639   8.393   3.568  0.00  0.00    +0.094 C 
ATOM     11  C   UNL     1       8.480   7.855   6.328  0.00  0.00    +0.130 C 
ATOM     12  C   UNL     1      10.973   8.093   6.066  0.00  0.00    +0.034 A 
ATOM     14  C   UNL     1      12.227   7.790   6.498  0.00  0.00    +0.009 A 
ATOM     15  C   UNL     1       9.985   6.469   7.642  0.00  0.00    +0.252 A 
ATOM     16  C   UNL     1      12.394   6.776   7.523  0.00  0.00    +0.016 A 
ATOM     17  C   UNL     1      11.362   6.131   8.066  0.00  0.00    +0.071 A 
ENDROOT
BRANCH  14  19
ATOM      1  S   UNL     1      13.823   9.996   6.522  0.00  0.00    -0.097 S 
ATOM     19  C   UNL     1      13.377   8.448   5.940  0.00  0.00    +0.021 A 
ATOM     22  C   UNL     1      14.225   8.003   4.950  0.00  0.00    +0.016 A 
ATOM     25  C   UNL     1      15.256   8.945   4.666  0.00  0.00    +0.008 A 
ATOM     26  C   UNL     1      15.156  10.073   5.449  0.00  0.00    +0.046 A 
ENDBRANCH  14  19
BRANCH   4  13
ATOM     13  C   UNL     1       9.477   6.803   2.170  0.00  0.00    +0.119 C 
BRANCH  13  18
ATOM     18  C   UNL     1      10.571   5.790   2.000  0.00  0.00    -0.033 A 
ATOM     20  C   UNL     1      10.499   4.580   2.679  0.00  0.00    +0.008 A 
ATOM     21  C   UNL     1      11.645   6.071   1.164  0.00  0.00    +0.008 A 
ATOM     23  C   UNL     1      11.515   3.637   2.522  0.00  0.00    +0.046 A 
ATOM     24  C   UNL     1      12.661   5.129   1.006  0.00  0.00    +0.046 A 
ATOM     27  C   UNL     1      12.597   3.913   1.685  0.00  0.00    +0.120 A 
BRANCH  27   3
ATOM      3  O   UNL     1      13.588   2.993   1.531  0.00  0.00    -0.495 OA
ATOM     28  C   UNL     1      14.932   3.461   1.633  0.00  0.00    +0.277 C 
ENDBRANCH  27   3
ENDBRANCH  13  18
ENDBRANCH   4  13
TORSDOF 4
ENDMDL
MODEL 9
REMARK VINA RESULT:      -5.9     13.554     16.335
REMARK  Name = 7682247
REMARK  5 active torsions:
REMARK  status: ('A' for Active; 'I' for Inactive)
REMARK    1  A    between atoms: O_3  and  C_27
REMARK    2  A    between atoms: O_3  and  C_28
REMARK    3  A    between atoms: N_4  and  C_13
REMARK    4  A    between atoms: C_13  and  C_18
REMARK    5  A    between atoms: C_14  and  C_19
REMARK                            x       y       z     vdW  Elec       q    Type
REMARK                         _______ _______ _______ _____ _____    ______ ____
ROOT
ATOM      2  O   UNL     1      13.613   6.995   6.433  0.00  0.00    -0.268 OA
ATOM      4  N   UNL     1       8.753   7.370   5.431  0.00  0.00    -0.297 NA
ATOM      5  N   UNL     1      11.445   7.563   7.110  0.00  0.00    -0.311 N 
ATOM      6  C   UNL     1       9.569   5.815   7.211  0.00  0.00    +0.024 C 
ATOM      7  C   UNL     1       9.096   8.146   7.786  0.00  0.00    +0.051 C 
ATOM      8  C   UNL     1       8.999   6.710   8.296  0.00  0.00    +0.017 C 
ATOM      9  C   UNL     1       8.770   5.981   5.902  0.00  0.00    +0.090 C 
ATOM     10  C   UNL     1       8.276   8.283   6.480  0.00  0.00    +0.094 C 
ATOM     11  C   UNL     1      11.052   6.148   7.035  0.00  0.00    +0.130 C 
ATOM     12  C   UNL     1      10.555   8.561   7.560  0.00  0.00    +0.034 A 
ATOM     14  C   UNL     1      11.005   9.830   7.755  0.00  0.00    +0.009 A 
ATOM     15  C   UNL     1      12.794   7.830   6.815  0.00  0.00    +0.252 A 
ATOM     16  C   UNL     1      12.391  10.141   7.455  0.00  0.00    +0.016 A 
ATOM     17  C   UNL     1      13.247   9.227   7.000  0.00  0.00    +0.071 A 
ENDROOT
BRANCH  14  19
ATOM      1  S   UNL     1       9.404  11.938   7.119  0.00  0.00    -0.097 S 
ATOM     19  C   UNL     1      10.122  10.857   8.236  0.00  0.00    +0.021 A 
ATOM     22  C   UNL     1       9.743  11.126   9.533  0.00  0.00    +0.016 A 
ATOM     25  C   UNL     1       8.849  12.232   9.611  0.00  0.00    +0.008 A 
ATOM     26  C   UNL     1       8.580  12.768   8.370  0.00  0.00    +0.046 A 
ENDBRANCH  14  19
BRANCH   4  13
ATOM     13  C   UNL     1       7.951   7.502   4.217  0.00  0.00    +0.119 C 
BRANCH  13  18
ATOM     18  C   UNL     1       8.805   7.680   2.996  0.00  0.00    -0.033 A 
ATOM     20  C   UNL     1       9.756   6.718   2.677  0.00  0.00    +0.008 A 
ATOM     21  C   UNL     1       8.636   8.804   2.197  0.00  0.00    +0.008 A 
ATOM     23  C   UNL     1      10.550   6.882   1.542  0.00  0.00    +0.046 A 
ATOM     24  C   UNL     1       9.429   8.968   1.061  0.00  0.00    +0.046 A 
ATOM     27  C   UNL     1      10.387   8.009   0.734  0.00  0.00    +0.120 A 
BRANCH  27   3
ATOM      3  O   UNL     1      11.162   8.168  -0.373  0.00  0.00    -0.495 OA
ATOM     28  C   UNL     1      11.621   6.984  -1.023  0.00  0.00    +0.277 C 
ENDBRANCH  27   3
ENDBRANCH  13  18
ENDBRANCH   4  13
TORSDOF 4
ENDMDL
MODEL 10
REMARK VINA RESULT:      -5.9     23.895     26.981
REMARK  Name = 7682247
REMARK  5 active torsions:
REMARK  status: ('A' for Active; 'I' for Inactive)
REMARK    1  A    between atoms: O_3  and  C_27
REMARK    2  A    between atoms: O_3  and  C_28
REMARK    3  A    between atoms: N_4  and  C_13
REMARK    4  A    between atoms: C_13  and  C_18
REMARK    5  A    between atoms: C_14  and  C_19
REMARK                            x       y       z     vdW  Elec       q    Type
REMARK                         _______ _______ _______ _____ _____    ______ ____
ROOT
ATOM      2  O   UNL     1     -14.987  11.954  16.837  0.00  0.00    -0.268 OA
ATOM      4  N   UNL     1     -11.089   9.202  18.251  0.00  0.00    -0.297 NA
ATOM      5  N   UNL     1     -12.802  11.198  16.466  0.00  0.00    -0.311 N 
ATOM      6  C   UNL     1     -12.286   8.709  16.112  0.00  0.00    +0.024 C 
ATOM      7  C   UNL     1     -10.466  10.344  16.114  0.00  0.00    +0.051 C 
ATOM      8  C   UNL     1     -11.110   9.225  15.301  0.00  0.00    +0.017 C 
ATOM      9  C   UNL     1     -11.805   8.181  17.479  0.00  0.00    +0.090 C 
ATOM     10  C   UNL     1      -9.985   9.781  17.473  0.00  0.00    +0.094 C 
ATOM     11  C   UNL     1     -13.312   9.836  16.249  0.00  0.00    +0.130 C 
ATOM     12  C   UNL     1     -11.436  11.514  16.319  0.00  0.00    +0.034 A 
ATOM     14  C   UNL     1     -11.032  12.812  16.383  0.00  0.00    +0.009 A 
ATOM     15  C   UNL     1     -13.782  12.175  16.714  0.00  0.00    +0.252 A 
ATOM     16  C   UNL     1     -12.017  13.846  16.643  0.00  0.00    +0.016 A 
ATOM     17  C   UNL     1     -13.310  13.574  16.816  0.00  0.00    +0.071 A 
ENDROOT
BRANCH  14  19
ATOM      1  S   UNL     1      -9.082  13.617  14.662  0.00  0.00    -0.097 S 
ATOM     19  C   UNL     1      -9.648  13.161  16.212  0.00  0.00    +0.021 A 
ATOM     22  C   UNL     1      -8.645  13.184  17.156  0.00  0.00    +0.016 A 
ATOM     25  C   UNL     1      -7.396  13.584  16.600  0.00  0.00    +0.008 A 
ATOM     26  C   UNL     1      -7.491  13.850  15.252  0.00  0.00    +0.046 A 
ENDBRANCH  14  19
BRANCH   4  13
ATOM     13  C   UNL     1     -10.608   8.658  19.519  0.00  0.00    +0.119 C 
BRANCH  13  18
ATOM     18  C   UNL     1     -11.727   8.111  20.356  0.00  0.00    -0.033 A 
ATOM     20  C   UNL     1     -12.704   8.971  20.844  0.00  0.00    +0.008 A 
ATOM     21  C   UNL     1     -11.775   6.750  20.635  0.00  0.00    +0.008 A 
ATOM     23  C   UNL     1     -13.744   8.464  21.623  0.00  0.00    +0.046 A 
ATOM     24  C   UNL     1     -12.816   6.243  21.412  0.00  0.00    +0.046 A 
ATOM     27  C   UNL     1     -13.800   7.098  21.907  0.00  0.00    +0.120 A 
BRANCH  27   3
ATOM      3  O   UNL     1     -14.816   6.604  22.666  0.00  0.00    -0.495 OA
ATOM     28  C   UNL     1     -16.111   7.169  22.468  0.00  0.00    +0.277 C 
ENDBRANCH  27   3
ENDBRANCH  13  18
ENDBRANCH   4  13
TORSDOF 4
ENDMDL
