MODEL 1
REMARK VINA RESULT:      -7.2      0.000      0.000
REMARK  Name = 25388964
REMARK  5 active torsions:
REMARK  status: ('A' for Active; 'I' for Inactive)
REMARK    1  A    between atoms: N_4  and  C_22
REMARK    2  A    between atoms: N_5  and  C_16
REMARK    3  A    between atoms: C_9  and  C_15
REMARK    4  A    between atoms: C_10  and  C_16
REMARK    5  A    between atoms: C_18  and  C_19
REMARK                            x       y       z     vdW  Elec       q    Type
REMARK                         _______ _______ _______ _____ _____    ______ ____
ROOT
ATOM      3  N   UNL     1      -6.375 -10.512  17.593  0.00  0.00    -0.297 NA
ATOM      8  C   UNL     1      -4.247 -11.970  17.232  0.00  0.00    +0.002 C 
ATOM      9  C   UNL     1      -4.099 -10.603  16.507  0.00  0.00    +0.055 C 
ATOM     10  C   UNL     1      -6.762 -11.873  17.137  0.00  0.00    +0.074 C 
ATOM     11  C   UNL     1      -5.516 -12.684  16.721  0.00  0.00    +0.024 C 
ATOM     12  C   UNL     1      -5.474  -9.881  16.596  0.00  0.00    +0.094 C 
ATOM     13  C   UNL     1      -4.473 -11.659  18.727  0.00  0.00    +0.019 C 
ATOM     14  C   UNL     1      -5.629 -10.654  18.866  0.00  0.00    +0.085 C 
ENDROOT
BRANCH   9  15
ATOM      4  N   UNL     1      -2.202 -10.478  14.826  0.00  0.00    -0.271 N 
ATOM      6  N   UNL     1      -1.908 -10.495  13.514  0.00  0.00    -0.176 NA
ATOM     15  C   UNL     1      -3.534 -10.598  15.094  0.00  0.00    +0.044 A 
ATOM     17  C   UNL     1      -4.155 -10.699  13.873  0.00  0.00    +0.048 A 
ATOM     18  C   UNL     1      -3.106 -10.630  12.937  0.00  0.00    +0.066 A 
ATOM     22  C   UNL     1      -1.132 -10.341  15.787  0.00  0.00    +0.172 C 
BRANCH  18  19
ATOM     19  C   UNL     1      -3.209 -10.693  11.424  0.00  0.00    +0.040 C 
ATOM     20  C   UNL     1      -3.886  -9.438  10.845  0.00  0.00    +0.010 C 
ATOM     21  C   UNL     1      -3.925 -11.972  10.952  0.00  0.00    +0.010 C 
ATOM     23  C   UNL     1      -3.978  -9.507   9.321  0.00  0.00    +0.001 C 
ATOM     24  C   UNL     1      -4.015 -12.030   9.428  0.00  0.00    +0.001 C 
ATOM     25  C   UNL     1      -4.678 -10.780   8.856  0.00  0.00    +0.000 C 
ENDBRANCH  18  19
ENDBRANCH   9  15
BRANCH  10  16
ATOM     16  C   UNL     1      -7.817 -11.839  16.029  0.00  0.00    +0.124 C 
BRANCH  16   5
ATOM      1  O   UNL     1      -8.496  -9.548  14.543  0.00  0.00    -0.253 OA
ATOM      2  O   UNL     1     -12.650  -7.636  16.429  0.00  0.00    -0.377 OA
ATOM      5  N   UNL     1      -8.875 -10.908  16.351  0.00  0.00    -0.298 N 
ATOM      7  N   UNL     1     -10.201  -8.980  16.009  0.00  0.00    -0.281 N 
ATOM     26  C   UNL     1      -9.147  -9.796  15.563  0.00  0.00    +0.302 C 
ATOM     27  C   UNL     1     -10.551  -7.783  15.242  0.00  0.00    +0.137 C 
ATOM     28  C   UNL     1     -10.922  -9.116  17.283  0.00  0.00    +0.137 C 
ATOM     29  C   UNL     1     -12.060  -7.632  15.129  0.00  0.00    +0.179 C 
ATOM     30  C   UNL     1     -12.416  -8.881  17.088  0.00  0.00    +0.179 C 
ATOM     31  H   UNL     1      -9.407 -11.111  17.185  0.00  0.00    +0.150 HD
ENDBRANCH  16   5
ENDBRANCH  10  16
TORSDOF 4
ENDMDL
MODEL 2
REMARK VINA RESULT:      -7.1      1.897      2.817
REMARK  Name = 25388964
REMARK  5 active torsions:
REMARK  status: ('A' for Active; 'I' for Inactive)
REMARK    1  A    between atoms: N_4  and  C_22
REMARK    2  A    between atoms: N_5  and  C_16
REMARK    3  A    between atoms: C_9  and  C_15
REMARK    4  A    between atoms: C_10  and  C_16
REMARK    5  A    between atoms: C_18  and  C_19
REMARK                            x       y       z     vdW  Elec       q    Type
REMARK                         _______ _______ _______ _____ _____    ______ ____
ROOT
ATOM      3  N   UNL     1      -5.424 -10.468  17.973  0.00  0.00    -0.297 NA
ATOM      8  C   UNL     1      -4.937 -12.492  16.408  0.00  0.00    +0.002 C 
ATOM      9  C   UNL     1      -3.822 -11.417  16.270  0.00  0.00    +0.055 C 
ATOM     10  C   UNL     1      -6.632 -10.793  17.172  0.00  0.00    +0.074 C 
ATOM     11  C   UNL     1      -6.305 -11.851  16.096  0.00  0.00    +0.024 C 
ATOM     12  C   UNL     1      -4.283 -10.166  17.071  0.00  0.00    +0.094 C 
ATOM     13  C   UNL     1      -4.964 -12.918  17.891  0.00  0.00    +0.019 C 
ATOM     14  C   UNL     1      -5.074 -11.664  18.776  0.00  0.00    +0.085 C 
ENDROOT
BRANCH   9  15
ATOM      4  N   UNL     1      -2.096 -10.555  14.621  0.00  0.00    -0.271 N 
ATOM      6  N   UNL     1      -1.862 -10.307  13.321  0.00  0.00    -0.176 NA
ATOM     15  C   UNL     1      -3.337 -11.061  14.872  0.00  0.00    +0.044 A 
ATOM     17  C   UNL     1      -3.960 -11.149  13.651  0.00  0.00    +0.048 A 
ATOM     18  C   UNL     1      -3.005 -10.672  12.733  0.00  0.00    +0.066 A 
ATOM     22  C   UNL     1      -1.061 -10.275  15.590  0.00  0.00    +0.172 C 
BRANCH  18  19
ATOM     19  C   UNL     1      -3.151 -10.546  11.227  0.00  0.00    +0.040 C 
ATOM     20  C   UNL     1      -3.754  -9.189  10.824  0.00  0.00    +0.010 C 
ATOM     21  C   UNL     1      -3.963 -11.709  10.631  0.00  0.00    +0.010 C 
ATOM     23  C   UNL     1      -3.889  -9.067   9.307  0.00  0.00    +0.001 C 
ATOM     24  C   UNL     1      -4.096 -11.576   9.115  0.00  0.00    +0.001 C 
ATOM     25  C   UNL     1      -4.686 -10.226   8.717  0.00  0.00    +0.000 C 
ENDBRANCH  18  19
ENDBRANCH   9  15
BRANCH  10  16
ATOM     16  C   UNL     1      -7.286  -9.548  16.569  0.00  0.00    +0.124 C 
BRANCH  16   5
ATOM      1  O   UNL     1      -9.663  -9.885  15.101  0.00  0.00    -0.253 OA
ATOM      2  O   UNL     1      -8.594  -9.508  10.286  0.00  0.00    -0.377 OA
ATOM      5  N   UNL     1      -7.380  -9.659  15.130  0.00  0.00    -0.298 N 
ATOM      7  N   UNL     1      -8.527  -9.925  13.080  0.00  0.00    -0.281 N 
ATOM     26  C   UNL     1      -8.597  -9.825  14.480  0.00  0.00    +0.302 C 
ATOM     27  C   UNL     1      -9.761 -10.108  12.314  0.00  0.00    +0.137 C 
ATOM     28  C   UNL     1      -7.298 -10.016  12.278  0.00  0.00    +0.137 C 
ATOM     29  C   UNL     1      -9.761  -9.241  11.065  0.00  0.00    +0.179 C 
ATOM     30  C   UNL     1      -7.412  -9.172  11.013  0.00  0.00    +0.179 C 
ATOM     31  H   UNL     1      -6.509  -9.610  14.623  0.00  0.00    +0.150 HD
ENDBRANCH  16   5
ENDBRANCH  10  16
TORSDOF 4
ENDMDL
MODEL 3
REMARK VINA RESULT:      -7.0     26.673     29.825
REMARK  Name = 25388964
REMARK  5 active torsions:
REMARK  status: ('A' for Active; 'I' for Inactive)
REMARK    1  A    between atoms: N_4  and  C_22
REMARK    2  A    between atoms: N_5  and  C_16
REMARK    3  A    between atoms: C_9  and  C_15
REMARK    4  A    between atoms: C_10  and  C_16
REMARK    5  A    between atoms: C_18  and  C_19
REMARK                            x       y       z     vdW  Elec       q    Type
REMARK                         _______ _______ _______ _____ _____    ______ ____
ROOT
ATOM      3  N   UNL     1      12.759   6.727  21.050  0.00  0.00    -0.297 NA
ATOM      8  C   UNL     1      11.561   8.936  20.361  0.00  0.00    +0.002 C 
ATOM      9  C   UNL     1      12.022   8.151  19.101  0.00  0.00    +0.055 C 
ATOM     10  C   UNL     1      13.331   7.873  21.805  0.00  0.00    +0.074 C 
ATOM     11  C   UNL     1      12.782   9.211  21.265  0.00  0.00    +0.024 C 
ATOM     12  C   UNL     1      12.897   6.962  19.590  0.00  0.00    +0.094 C 
ATOM     13  C   UNL     1      10.617   8.002  21.147  0.00  0.00    +0.019 C 
ATOM     14  C   UNL     1      11.313   6.648  21.370  0.00  0.00    +0.085 C 
ENDROOT
BRANCH   9  15
ATOM      4  N   UNL     1      12.076   9.162  16.774  0.00  0.00    -0.271 N 
ATOM      6  N   UNL     1      12.827   9.868  15.912  0.00  0.00    -0.176 NA
ATOM     15  C   UNL     1      12.683   8.929  17.972  0.00  0.00    +0.044 A 
ATOM     17  C   UNL     1      13.919   9.523  17.888  0.00  0.00    +0.048 A 
ATOM     18  C   UNL     1      13.952  10.086  16.598  0.00  0.00    +0.066 A 
ATOM     22  C   UNL     1      10.755   8.734  16.372  0.00  0.00    +0.172 C 
BRANCH  18  19
ATOM     19  C   UNL     1      15.084  10.869  15.960  0.00  0.00    +0.040 C 
ATOM     20  C   UNL     1      15.613  11.973  16.893  0.00  0.00    +0.010 C 
ATOM     21  C   UNL     1      14.679  11.451  14.593  0.00  0.00    +0.010 C 
ATOM     23  C   UNL     1      16.758  12.750  16.245  0.00  0.00    +0.001 C 
ATOM     24  C   UNL     1      15.828  12.229  13.955  0.00  0.00    +0.001 C 
ATOM     25  C   UNL     1      16.356  13.317  14.887  0.00  0.00    +0.000 C 
ENDBRANCH  18  19
ENDBRANCH   9  15
BRANCH  10  16
ATOM     16  C   UNL     1      14.861   7.851  21.826  0.00  0.00    +0.124 C 
BRANCH  16   5
ATOM      1  O   UNL     1      17.476   8.448  20.977  0.00  0.00    -0.253 OA
ATOM      2  O   UNL     1      17.773  13.314  20.136  0.00  0.00    -0.377 OA
ATOM      5  N   UNL     1      15.400   9.177  21.625  0.00  0.00    -0.298 N 
ATOM      7  N   UNL     1      17.087  10.733  21.060  0.00  0.00    -0.281 N 
ATOM     26  C   UNL     1      16.707   9.388  21.203  0.00  0.00    +0.302 C 
ATOM     27  C   UNL     1      18.450  11.047  20.626  0.00  0.00    +0.137 C 
ATOM     28  C   UNL     1      16.291  11.905  21.450  0.00  0.00    +0.137 C 
ATOM     29  C   UNL     1      18.450  12.175  19.605  0.00  0.00    +0.179 C 
ATOM     30  C   UNL     1      16.404  13.010  20.405  0.00  0.00    +0.179 C 
ATOM     31  H   UNL     1      14.771   9.945  21.810  0.00  0.00    +0.150 HD
ENDBRANCH  16   5
ENDBRANCH  10  16
TORSDOF 4
ENDMDL
MODEL 4
REMARK VINA RESULT:      -7.0      1.719      2.115
REMARK  Name = 25388964
REMARK  5 active torsions:
REMARK  status: ('A' for Active; 'I' for Inactive)
REMARK    1  A    between atoms: N_4  and  C_22
REMARK    2  A    between atoms: N_5  and  C_16
REMARK    3  A    between atoms: C_9  and  C_15
REMARK    4  A    between atoms: C_10  and  C_16
REMARK    5  A    between atoms: C_18  and  C_19
REMARK                            x       y       z     vdW  Elec       q    Type
REMARK                         _______ _______ _______ _____ _____    ______ ____
ROOT
ATOM      3  N   UNL     1      -6.193 -10.993  18.668  0.00  0.00    -0.297 NA
ATOM      8  C   UNL     1      -4.196 -12.336  17.672  0.00  0.00    +0.002 C 
ATOM      9  C   UNL     1      -4.218 -10.891  17.100  0.00  0.00    +0.055 C 
ATOM     10  C   UNL     1      -6.669 -12.303  18.151  0.00  0.00    +0.074 C 
ATOM     11  C   UNL     1      -5.545 -13.023  17.374  0.00  0.00    +0.024 C 
ATOM     12  C   UNL     1      -5.540 -10.224  17.578  0.00  0.00    +0.094 C 
ATOM     13  C   UNL     1      -4.082 -12.207  19.205  0.00  0.00    +0.019 C 
ATOM     14  C   UNL     1      -5.180 -11.259  19.717  0.00  0.00    +0.085 C 
ENDROOT
BRANCH   9  15
ATOM      4  N   UNL     1      -2.741 -10.649  15.051  0.00  0.00    -0.271 N 
ATOM      6  N   UNL     1      -2.750 -10.481  13.717  0.00  0.00    -0.176 NA
ATOM     15  C   UNL     1      -3.984 -10.706  15.608  0.00  0.00    +0.044 A 
ATOM     17  C   UNL     1      -4.868 -10.563  14.566  0.00  0.00    +0.048 A 
ATOM     18  C   UNL     1      -4.052 -10.429  13.427  0.00  0.00    +0.066 A 
ATOM     22  C   UNL     1      -1.475 -10.749  15.741  0.00  0.00    +0.172 C 
BRANCH  18  19
ATOM     19  C   UNL     1      -4.496 -10.244  11.987  0.00  0.00    +0.040 C 
ATOM     20  C   UNL     1      -3.325  -9.838  11.076  0.00  0.00    +0.010 C 
ATOM     21  C   UNL     1      -5.658  -9.240  11.871  0.00  0.00    +0.010 C 
ATOM     23  C   UNL     1      -3.780  -9.661   9.628  0.00  0.00    +0.001 C 
ATOM     24  C   UNL     1      -6.103  -9.068  10.420  0.00  0.00    +0.001 C 
ATOM     25  C   UNL     1      -4.938  -8.674   9.517  0.00  0.00    +0.000 C 
ENDBRANCH  18  19
ENDBRANCH   9  15
BRANCH  10  16
ATOM     16  C   UNL     1      -7.945 -12.172  17.317  0.00  0.00    +0.124 C 
BRANCH  16   5
ATOM      1  O   UNL     1      -9.902 -10.411  16.323  0.00  0.00    -0.253 OA
ATOM      2  O   UNL     1     -13.237  -9.607  19.888  0.00  0.00    -0.377 OA
ATOM      5  N   UNL     1      -9.008 -11.568  18.090  0.00  0.00    -0.298 N 
ATOM      7  N   UNL     1     -10.905 -10.194  18.403  0.00  0.00    -0.281 N 
ATOM     26  C   UNL     1      -9.937 -10.706  17.522  0.00  0.00    +0.302 C 
ATOM     27  C   UNL     1     -11.920  -9.271  17.890  0.00  0.00    +0.137 C 
ATOM     28  C   UNL     1     -10.929 -10.370  19.862  0.00  0.00    +0.137 C 
ATOM     29  C   UNL     1     -13.291  -9.597  18.461  0.00  0.00    +0.179 C 
ATOM     30  C   UNL     1     -12.350 -10.624  20.354  0.00  0.00    +0.179 C 
ATOM     31  H   UNL     1      -9.036 -11.810  19.070  0.00  0.00    +0.150 HD
ENDBRANCH  16   5
ENDBRANCH  10  16
TORSDOF 4
ENDMDL
MODEL 5
REMARK VINA RESULT:      -6.9      2.059      5.681
REMARK  Name = 25388964
REMARK  5 active torsions:
REMARK  status: ('A' for Active; 'I' for Inactive)
REMARK    1  A    between atoms: N_4  and  C_22
REMARK    2  A    between atoms: N_5  and  C_16
REMARK    3  A    between atoms: C_9  and  C_15
REMARK    4  A    between atoms: C_10  and  C_16
REMARK    5  A    between atoms: C_18  and  C_19
REMARK                            x       y       z     vdW  Elec       q    Type
REMARK                         _______ _______ _______ _____ _____    ______ ____
ROOT
ATOM      3  N   UNL     1      -6.575 -11.088  10.506  0.00  0.00    -0.297 NA
ATOM      8  C   UNL     1      -5.444  -8.993  11.563  0.00  0.00    +0.002 C 
ATOM      9  C   UNL     1      -4.763 -10.294  12.072  0.00  0.00    +0.055 C 
ATOM     10  C   UNL     1      -7.609 -10.186  11.077  0.00  0.00    +0.074 C 
ATOM     11  C   UNL     1      -6.952  -9.047  11.886  0.00  0.00    +0.024 C 
ATOM     12  C   UNL     1      -5.615 -11.493  11.563  0.00  0.00    +0.094 C 
ATOM     13  C   UNL     1      -5.310  -8.993  10.025  0.00  0.00    +0.019 C 
ATOM     14  C   UNL     1      -5.831 -10.330   9.471  0.00  0.00    +0.085 C 
ENDROOT
BRANCH   9  15
ATOM      4  N   UNL     1      -3.178 -10.589  14.032  0.00  0.00    -0.271 N 
ATOM      6  N   UNL     1      -3.106 -10.659  15.373  0.00  0.00    -0.176 NA
ATOM     15  C   UNL     1      -4.442 -10.403  13.556  0.00  0.00    +0.044 A 
ATOM     17  C   UNL     1      -5.255 -10.349  14.662  0.00  0.00    +0.048 A 
ATOM     18  C   UNL     1      -4.379 -10.511  15.752  0.00  0.00    +0.066 A 
ATOM     22  C   UNL     1      -1.967 -10.713  13.254  0.00  0.00    +0.172 C 
BRANCH  18  19
ATOM     19  C   UNL     1      -4.731 -10.532  17.228  0.00  0.00    +0.040 C 
ATOM     20  C   UNL     1      -4.212 -11.803  17.922  0.00  0.00    +0.010 C 
ATOM     21  C   UNL     1      -6.244 -10.357  17.458  0.00  0.00    +0.010 C 
ATOM     23  C   UNL     1      -4.565 -11.810  19.409  0.00  0.00    +0.001 C 
ATOM     24  C   UNL     1      -6.586 -10.370  18.946  0.00  0.00    +0.001 C 
ATOM     25  C   UNL     1      -6.062 -11.627  19.634  0.00  0.00    +0.000 C 
ENDBRANCH  18  19
ENDBRANCH   9  15
BRANCH  10  16
ATOM     16  C   UNL     1      -8.653 -10.943  11.901  0.00  0.00    +0.124 C 
BRANCH  16   5
ATOM      1  O   UNL     1      -8.632 -11.448  14.669  0.00  0.00    -0.253 OA
ATOM      2  O   UNL     1     -10.386  -7.453  17.001  0.00  0.00    -0.377 OA
ATOM      5  N   UNL     1      -9.226 -10.090  12.919  0.00  0.00    -0.298 N 
ATOM      7  N   UNL     1      -9.781  -9.489  15.137  0.00  0.00    -0.281 N 
ATOM     26  C   UNL     1      -9.173 -10.413  14.269  0.00  0.00    +0.302 C 
ATOM     27  C   UNL     1      -9.779  -9.753  16.577  0.00  0.00    +0.137 C 
ATOM     28  C   UNL     1     -10.574  -8.317  14.737  0.00  0.00    +0.137 C 
ATOM     29  C   UNL     1      -9.470  -8.488  17.362  0.00  0.00    +0.179 C 
ATOM     30  C   UNL     1     -10.251  -7.117  15.620  0.00  0.00    +0.179 C 
ATOM     31  H   UNL     1      -9.668  -9.244  12.591  0.00  0.00    +0.150 HD
ENDBRANCH  16   5
ENDBRANCH  10  16
TORSDOF 4
ENDMDL
MODEL 6
REMARK VINA RESULT:      -6.7      2.421      7.563
REMARK  Name = 25388964
REMARK  5 active torsions:
REMARK  status: ('A' for Active; 'I' for Inactive)
REMARK    1  A    between atoms: N_4  and  C_22
REMARK    2  A    between atoms: N_5  and  C_16
REMARK    3  A    between atoms: C_9  and  C_15
REMARK    4  A    between atoms: C_10  and  C_16
REMARK    5  A    between atoms: C_18  and  C_19
REMARK                            x       y       z     vdW  Elec       q    Type
REMARK                         _______ _______ _______ _____ _____    ______ ____
ROOT
ATOM      3  N   UNL     1      -5.822 -12.923  17.073  0.00  0.00    -0.297 NA
ATOM      8  C   UNL     1      -5.760 -10.526  18.089  0.00  0.00    +0.002 C 
ATOM      9  C   UNL     1      -7.114 -11.218  18.410  0.00  0.00    +0.055 C 
ATOM     10  C   UNL     1      -5.395 -11.944  16.039  0.00  0.00    +0.074 C 
ATOM     11  C   UNL     1      -5.550 -10.499  16.561  0.00  0.00    +0.024 C 
ATOM     12  C   UNL     1      -7.156 -12.549  17.606  0.00  0.00    +0.094 C 
ATOM     13  C   UNL     1      -4.651 -11.421  18.683  0.00  0.00    +0.019 C 
ATOM     14  C   UNL     1      -4.845 -12.864  18.186  0.00  0.00    +0.085 C 
ENDROOT
BRANCH   9  15
ATOM      4  N   UNL     1      -9.528 -10.658  18.957  0.00  0.00    -0.271 N 
ATOM      6  N   UNL     1     -10.545  -9.827  18.668  0.00  0.00    -0.176 NA
ATOM     15  C   UNL     1      -8.391 -10.405  18.248  0.00  0.00    +0.044 A 
ATOM     17  C   UNL     1      -8.684  -9.335  17.438  0.00  0.00    +0.048 A 
ATOM     18  C   UNL     1     -10.023  -9.021  17.739  0.00  0.00    +0.066 A 
ATOM     22  C   UNL     1      -9.724 -11.695  19.944  0.00  0.00    +0.172 C 
BRANCH  18  19
ATOM     19  C   UNL     1     -10.872  -7.916  17.139  0.00  0.00    +0.040 C 
ATOM     20  C   UNL     1     -12.203  -8.454  16.586  0.00  0.00    +0.010 C 
ATOM     21  C   UNL     1     -10.106  -7.127  16.061  0.00  0.00    +0.010 C 
ATOM     23  C   UNL     1     -13.054  -7.332  15.992  0.00  0.00    +0.001 C 
ATOM     24  C   UNL     1     -10.966  -6.011  15.470  0.00  0.00    +0.001 C 
ATOM     25  C   UNL     1     -12.289  -6.546  14.931  0.00  0.00    +0.000 C 
ENDBRANCH  18  19
ENDBRANCH   9  15
BRANCH  10  16
ATOM     16  C   UNL     1      -6.118 -12.150  14.706  0.00  0.00    +0.124 C 
BRANCH  16   5
ATOM      1  O   UNL     1      -7.039 -10.599  12.547  0.00  0.00    -0.253 OA
ATOM      2  O   UNL     1      -3.134  -9.200   9.850  0.00  0.00    -0.377 OA
ATOM      5  N   UNL     1      -5.312 -11.678  13.603  0.00  0.00    -0.298 N 
ATOM      7  N   UNL     1      -4.937 -10.536  11.567  0.00  0.00    -0.281 N 
ATOM     26  C   UNL     1      -5.845 -10.914  12.572  0.00  0.00    +0.302 C 
ATOM     27  C   UNL     1      -5.416  -9.736  10.437  0.00  0.00    +0.137 C 
ATOM     28  C   UNL     1      -3.545 -10.992  11.440  0.00  0.00    +0.137 C 
ATOM     29  C   UNL     1      -4.424  -8.636  10.091  0.00  0.00    +0.179 C 
ATOM     30  C   UNL     1      -2.635  -9.842  11.023  0.00  0.00    +0.179 C 
ATOM     31  H   UNL     1      -4.336 -11.935  13.624  0.00  0.00    +0.150 HD
ENDBRANCH  16   5
ENDBRANCH  10  16
TORSDOF 4
ENDMDL
MODEL 7
REMARK VINA RESULT:      -6.7     26.294     29.592
REMARK  Name = 25388964
REMARK  5 active torsions:
REMARK  status: ('A' for Active; 'I' for Inactive)
REMARK    1  A    between atoms: N_4  and  C_22
REMARK    2  A    between atoms: N_5  and  C_16
REMARK    3  A    between atoms: C_9  and  C_15
REMARK    4  A    between atoms: C_10  and  C_16
REMARK    5  A    between atoms: C_18  and  C_19
REMARK                            x       y       z     vdW  Elec       q    Type
REMARK                         _______ _______ _______ _____ _____    ______ ____
ROOT
ATOM      3  N   UNL     1      13.139   7.713  21.398  0.00  0.00    -0.297 NA
ATOM      8  C   UNL     1      11.217   8.823  20.034  0.00  0.00    +0.002 C 
ATOM      9  C   UNL     1      12.229   8.127  19.081  0.00  0.00    +0.055 C 
ATOM     10  C   UNL     1      12.951   9.121  21.836  0.00  0.00    +0.074 C 
ATOM     11  C   UNL     1      11.963   9.855  20.905  0.00  0.00    +0.024 C 
ATOM     12  C   UNL     1      13.440   7.671  19.944  0.00  0.00    +0.094 C 
ATOM     13  C   UNL     1      10.679   7.732  20.985  0.00  0.00    +0.019 C 
ATOM     14  C   UNL     1      11.865   6.991  21.628  0.00  0.00    +0.085 C 
ENDROOT
BRANCH   9  15
ATOM      4  N   UNL     1      11.873   8.990  16.721  0.00  0.00    -0.271 N 
ATOM      6  N   UNL     1      12.439   9.686  15.720  0.00  0.00    -0.176 NA
ATOM     15  C   UNL     1      12.663   8.873  17.827  0.00  0.00    +0.044 A 
ATOM     17  C   UNL     1      13.827   9.537  17.529  0.00  0.00    +0.048 A 
ATOM     18  C   UNL     1      13.633  10.018  16.220  0.00  0.00    +0.066 A 
ATOM     22  C   UNL     1      10.543   8.454  16.543  0.00  0.00    +0.172 C 
BRANCH  18  19
ATOM     19  C   UNL     1      14.602  10.830  15.379  0.00  0.00    +0.040 C 
ATOM     20  C   UNL     1      15.639  11.560  16.249  0.00  0.00    +0.010 C 
ATOM     21  C   UNL     1      13.868  11.816  14.452  0.00  0.00    +0.010 C 
ATOM     23  C   UNL     1      16.615  12.368  15.394  0.00  0.00    +0.001 C 
ATOM     24  C   UNL     1      14.851  12.621  13.605  0.00  0.00    +0.001 C 
ATOM     25  C   UNL     1      15.885  13.337  14.469  0.00  0.00    +0.000 C 
ENDBRANCH  18  19
ENDBRANCH   9  15
BRANCH  10  16
ATOM     16  C   UNL     1      14.277   9.873  21.968  0.00  0.00    +0.124 C 
BRANCH  16   5
ATOM      1  O   UNL     1      16.998  10.581  22.091  0.00  0.00    -0.253 OA
ATOM      2  O   UNL     1      19.700   6.627  20.851  0.00  0.00    -0.377 OA
ATOM      5  N   UNL     1      15.384   9.050  21.534  0.00  0.00    -0.298 N 
ATOM      7  N   UNL     1      17.667   8.566  21.160  0.00  0.00    -0.281 N 
ATOM     26  C   UNL     1      16.703   9.474  21.629  0.00  0.00    +0.302 C 
ATOM     27  C   UNL     1      19.083   8.935  21.215  0.00  0.00    +0.137 C 
ATOM     28  C   UNL     1      17.398   7.301  20.460  0.00  0.00    +0.137 C 
ATOM     29  C   UNL     1      19.933   7.764  21.684  0.00  0.00    +0.179 C 
ATOM     30  C   UNL     1      18.340   6.203  20.942  0.00  0.00    +0.179 C 
ATOM     31  H   UNL     1      15.143   8.145  21.156  0.00  0.00    +0.150 HD
ENDBRANCH  16   5
ENDBRANCH  10  16
TORSDOF 4
ENDMDL
MODEL 8
REMARK VINA RESULT:      -6.6      2.739      6.568
REMARK  Name = 25388964
REMARK  5 active torsions:
REMARK  status: ('A' for Active; 'I' for Inactive)
REMARK    1  A    between atoms: N_4  and  C_22
REMARK    2  A    between atoms: N_5  and  C_16
REMARK    3  A    between atoms: C_9  and  C_15
REMARK    4  A    between atoms: C_10  and  C_16
REMARK    5  A    between atoms: C_18  and  C_19
REMARK                            x       y       z     vdW  Elec       q    Type
REMARK                         _______ _______ _______ _____ _____    ______ ____
ROOT
ATOM      3  N   UNL     1      -5.190 -11.774  14.861  0.00  0.00    -0.297 NA
ATOM      8  C   UNL     1      -4.972 -10.358  17.037  0.00  0.00    +0.002 C 
ATOM      9  C   UNL     1      -5.788 -11.653  17.310  0.00  0.00    +0.055 C 
ATOM     10  C   UNL     1      -5.574 -10.364  14.591  0.00  0.00    +0.074 C 
ATOM     11  C   UNL     1      -5.650  -9.558  15.905  0.00  0.00    +0.024 C 
ATOM     12  C   UNL     1      -6.047 -12.336  15.936  0.00  0.00    +0.094 C 
ATOM     13  C   UNL     1      -3.591 -10.804  16.511  0.00  0.00    +0.019 C 
ATOM     14  C   UNL     1      -3.786 -11.780  15.338  0.00  0.00    +0.085 C 
ENDROOT
BRANCH   9  15
ATOM      4  N   UNL     1      -7.040 -11.435  19.506  0.00  0.00    -0.271 N 
ATOM      6  N   UNL     1      -8.263 -11.346  20.057  0.00  0.00    -0.176 NA
ATOM     15  C   UNL     1      -7.054 -11.540  18.147  0.00  0.00    +0.044 A 
ATOM     17  C   UNL     1      -8.378 -11.521  17.783  0.00  0.00    +0.048 A 
ATOM     18  C   UNL     1      -9.076 -11.400  18.999  0.00  0.00    +0.066 A 
ATOM     22  C   UNL     1      -5.877 -11.411  20.364  0.00  0.00    +0.172 C 
BRANCH  18  19
ATOM     19  C   UNL     1     -10.579 -11.328  19.201  0.00  0.00    +0.040 C 
ATOM     20  C   UNL     1     -11.337 -11.365  17.862  0.00  0.00    +0.010 C 
ATOM     21  C   UNL     1     -10.988 -10.098  20.032  0.00  0.00    +0.010 C 
ATOM     23  C   UNL     1     -12.849 -11.301  18.076  0.00  0.00    +0.001 C 
ATOM     24  C   UNL     1     -12.500 -10.041  20.236  0.00  0.00    +0.001 C 
ATOM     25  C   UNL     1     -13.250 -10.087  18.907  0.00  0.00    +0.000 C 
ENDBRANCH  18  19
ENDBRANCH   9  15
BRANCH  10  16
ATOM     16  C   UNL     1      -6.867 -10.257  13.779  0.00  0.00    +0.124 C 
BRANCH  16   5
ATOM      1  O   UNL     1      -9.544  -9.905  12.988  0.00  0.00    -0.253 OA
ATOM      2  O   UNL     1     -11.962  -7.597  16.635  0.00  0.00    -0.377 OA
ATOM      5  N   UNL     1      -7.864  -9.493  14.494  0.00  0.00    -0.298 N 
ATOM      7  N   UNL     1     -10.021  -8.587  14.835  0.00  0.00    -0.281 N 
ATOM     26  C   UNL     1      -9.169  -9.367  14.035  0.00  0.00    +0.302 C 
ATOM     27  C   UNL     1     -11.413  -8.395  14.422  0.00  0.00    +0.137 C 
ATOM     28  C   UNL     1      -9.622  -7.791  16.006  0.00  0.00    +0.137 C 
ATOM     29  C   UNL     1     -12.354  -8.511  15.610  0.00  0.00    +0.179 C 
ATOM     30  C   UNL     1     -10.656  -7.911  17.120  0.00  0.00    +0.179 C 
ATOM     31  H   UNL     1      -7.558  -9.053  15.350  0.00  0.00    +0.150 HD
ENDBRANCH  16   5
ENDBRANCH  10  16
TORSDOF 4
ENDMDL
MODEL 9
REMARK VINA RESULT:      -6.5      2.468      3.661
REMARK  Name = 25388964
REMARK  5 active torsions:
REMARK  status: ('A' for Active; 'I' for Inactive)
REMARK    1  A    between atoms: N_4  and  C_22
REMARK    2  A    between atoms: N_5  and  C_16
REMARK    3  A    between atoms: C_9  and  C_15
REMARK    4  A    between atoms: C_10  and  C_16
REMARK    5  A    between atoms: C_18  and  C_19
REMARK                            x       y       z     vdW  Elec       q    Type
REMARK                         _______ _______ _______ _____ _____    ______ ____
ROOT
ATOM      3  N   UNL     1      -6.687 -10.732  18.484  0.00  0.00    -0.297 NA
ATOM      8  C   UNL     1      -4.571 -12.041  17.712  0.00  0.00    +0.002 C 
ATOM      9  C   UNL     1      -4.622 -10.643  17.036  0.00  0.00    +0.055 C 
ATOM     10  C   UNL     1      -7.069 -12.097  18.036  0.00  0.00    +0.074 C 
ATOM     11  C   UNL     1      -5.866 -12.814  17.385  0.00  0.00    +0.024 C 
ATOM     12  C   UNL     1      -6.001 -10.011  17.382  0.00  0.00    +0.094 C 
ATOM     13  C   UNL     1      -4.562 -11.799  19.237  0.00  0.00    +0.019 C 
ATOM     14  C   UNL     1      -5.733 -10.872  19.610  0.00  0.00    +0.085 C 
ENDROOT
BRANCH   9  15
ATOM      4  N   UNL     1      -3.038 -10.676  15.053  0.00  0.00    -0.271 N 
ATOM      6  N   UNL     1      -2.967 -10.565  13.715  0.00  0.00    -0.176 NA
ATOM     15  C   UNL     1      -4.302 -10.552  15.551  0.00  0.00    +0.044 A 
ATOM     17  C   UNL     1      -5.114 -10.344  14.463  0.00  0.00    +0.048 A 
ATOM     18  C   UNL     1      -4.239 -10.362  13.360  0.00  0.00    +0.066 A 
ATOM     22  C   UNL     1      -1.827 -10.905  15.807  0.00  0.00    +0.172 C 
BRANCH  18  19
ATOM     19  C   UNL     1      -4.592 -10.183  11.895  0.00  0.00    +0.040 C 
ATOM     20  C   UNL     1      -3.344  -9.915  11.036  0.00  0.00    +0.010 C 
ATOM     21  C   UNL     1      -5.648  -9.082  11.691  0.00  0.00    +0.010 C 
ATOM     23  C   UNL     1      -3.709  -9.745   9.561  0.00  0.00    +0.001 C 
ATOM     24  C   UNL     1      -6.003  -8.916  10.215  0.00  0.00    +0.001 C 
ATOM     25  C   UNL     1      -4.763  -8.660   9.363  0.00  0.00    +0.000 C 
ENDBRANCH  18  19
ENDBRANCH   9  15
BRANCH  10  16
ATOM     16  C   UNL     1      -8.294 -12.089  17.119  0.00  0.00    +0.124 C 
BRANCH  16   5
ATOM      1  O   UNL     1      -9.508 -11.277  14.714  0.00  0.00    -0.253 OA
ATOM      2  O   UNL     1      -6.984 -13.250  10.945  0.00  0.00    -0.377 OA
ATOM      5  N   UNL     1      -7.954 -12.570  15.799  0.00  0.00    -0.298 N 
ATOM      7  N   UNL     1      -8.168 -12.683  13.447  0.00  0.00    -0.281 N 
ATOM     26  C   UNL     1      -8.604 -12.117  14.657  0.00  0.00    +0.302 C 
ATOM     27  C   UNL     1      -8.804 -12.269  12.195  0.00  0.00    +0.137 C 
ATOM     28  C   UNL     1      -7.212 -13.791  13.303  0.00  0.00    +0.137 C 
ATOM     29  C   UNL     1      -7.769 -12.067  11.100  0.00  0.00    +0.179 C 
ATOM     30  C   UNL     1      -6.259 -13.537  12.141  0.00  0.00    +0.179 C 
ATOM     31  H   UNL     1      -7.215 -13.256  15.752  0.00  0.00    +0.150 HD
ENDBRANCH  16   5
ENDBRANCH  10  16
TORSDOF 4
ENDMDL
MODEL 10
REMARK VINA RESULT:      -6.4      2.247      5.899
REMARK  Name = 25388964
REMARK  5 active torsions:
REMARK  status: ('A' for Active; 'I' for Inactive)
REMARK    1  A    between atoms: N_4  and  C_22
REMARK    2  A    between atoms: N_5  and  C_16
REMARK    3  A    between atoms: C_9  and  C_15
REMARK    4  A    between atoms: C_10  and  C_16
REMARK    5  A    between atoms: C_18  and  C_19
REMARK                            x       y       z     vdW  Elec       q    Type
REMARK                         _______ _______ _______ _____ _____    ______ ____
ROOT
ATOM      3  N   UNL     1      -5.426 -11.082   9.632  0.00  0.00    -0.297 NA
ATOM      8  C   UNL     1      -4.694  -9.027  11.055  0.00  0.00    +0.002 C 
ATOM      9  C   UNL     1      -4.124 -10.339  11.661  0.00  0.00    +0.055 C 
ATOM     10  C   UNL     1      -6.607 -10.239   9.952  0.00  0.00    +0.074 C 
ATOM     11  C   UNL     1      -6.231  -9.134  10.962  0.00  0.00    +0.024 C 
ATOM     12  C   UNL     1      -4.764 -11.525  10.885  0.00  0.00    +0.094 C 
ATOM     13  C   UNL     1      -4.159  -8.934   9.610  0.00  0.00    +0.019 C 
ATOM     14  C   UNL     1      -4.464 -10.249   8.871  0.00  0.00    +0.085 C 
ENDROOT
BRANCH   9  15
ATOM      4  N   UNL     1      -3.106 -10.502  13.980  0.00  0.00    -0.271 N 
ATOM      6  N   UNL     1      -3.388 -10.686  15.282  0.00  0.00    -0.176 NA
ATOM     15  C   UNL     1      -4.202 -10.526  13.170  0.00  0.00    +0.044 A 
ATOM     17  C   UNL     1      -5.276 -10.743  13.998  0.00  0.00    +0.048 A 
ATOM     18  C   UNL     1      -4.715 -10.833  15.286  0.00  0.00    +0.066 A 
ATOM     22  C   UNL     1      -1.732 -10.304  13.577  0.00  0.00    +0.172 C 
BRANCH  18  19
ATOM     19  C   UNL     1      -5.443 -11.068  16.598  0.00  0.00    +0.040 C 
ATOM     20  C   UNL     1      -6.396  -9.909  16.937  0.00  0.00    +0.010 C 
ATOM     21  C   UNL     1      -4.464 -11.333  17.756  0.00  0.00    +0.010 C 
ATOM     23  C   UNL     1      -7.130 -10.158  18.254  0.00  0.00    +0.001 C 
ATOM     24  C   UNL     1      -5.206 -11.577  19.068  0.00  0.00    +0.001 C 
ATOM     25  C   UNL     1      -6.158 -10.431  19.398  0.00  0.00    +0.000 C 
ENDBRANCH  18  19
ENDBRANCH   9  15
BRANCH  10  16
ATOM     16  C   UNL     1      -7.802 -11.066  10.430  0.00  0.00    +0.124 C 
BRANCH  16   5
ATOM      1  O   UNL     1     -10.349  -9.928  10.799  0.00  0.00    -0.253 OA
ATOM      2  O   UNL     1     -11.028  -9.151  15.637  0.00  0.00    -0.377 OA
ATOM      5  N   UNL     1      -8.323 -10.550  11.676  0.00  0.00    -0.298 N 
ATOM      7  N   UNL     1      -9.957  -9.535  13.051  0.00  0.00    -0.281 N 
ATOM     26  C   UNL     1      -9.596 -10.002  11.775  0.00  0.00    +0.302 C 
ATOM     27  C   UNL     1     -11.279  -8.935  13.244  0.00  0.00    +0.137 C 
ATOM     28  C   UNL     1      -9.074  -9.445  14.223  0.00  0.00    +0.137 C 
ATOM     29  C   UNL     1     -11.909  -9.412  14.543  0.00  0.00    +0.179 C 
ATOM     30  C   UNL     1      -9.807  -9.875  15.488  0.00  0.00    +0.179 C 
ATOM     31  H   UNL     1      -7.707 -10.610  12.474  0.00  0.00    +0.150 HD
ENDBRANCH  16   5
ENDBRANCH  10  16
TORSDOF 4
ENDMDL
