MODEL 1
REMARK VINA RESULT:      -7.3      0.000      0.000
REMARK  Name = 26762283
REMARK  11 active torsions:
REMARK  status: ('A' for Active; 'I' for Inactive)
REMARK    1  A    between atoms: O_4  and  C_30
REMARK    2  A    between atoms: O_4  and  C_31
REMARK    3  A    between atoms: N_7  and  C_12
REMARK    4  A    between atoms: N_8  and  C_21
REMARK    5  A    between atoms: N_9  and  C_22
REMARK    6  A    between atoms: C_11  and  C_17
REMARK    7  A    between atoms: C_17  and  C_18
REMARK    8  A    between atoms: C_18  and  C_20
REMARK    9  A    between atoms: C_21  and  C_23
REMARK   10  A    between atoms: C_21  and  C_24
REMARK   11  A    between atoms: C_22  and  C_25
REMARK                            x       y       z     vdW  Elec       q    Type
REMARK                         _______ _______ _______ _____ _____    ______ ____
ROOT
ATOM      1  O   UNL     1      11.989   7.399  17.446  0.00  0.00    -0.274 OA
ATOM      5  N   UNL     1      13.421   8.078  20.608  0.00  0.00    -0.285 NA
ATOM      6  N   UNL     1      14.158   7.134  18.150  0.00  0.00    -0.313 N 
ATOM     10  C   UNL     1      12.396   7.393  19.815  0.00  0.00    +0.145 C 
ATOM     11  C   UNL     1      14.661   7.300  20.607  0.00  0.00    +0.075 C 
ATOM     12  C   UNL     1      11.378   8.739  21.534  0.00  0.00    +0.090 C 
ATOM     13  C   UNL     1      11.147   8.210  20.113  0.00  0.00    +0.052 C 
ATOM     14  C   UNL     1      12.791   8.289  21.911  0.00  0.00    +0.107 C 
ATOM     15  C   UNL     1      15.187   7.304  19.165  0.00  0.00    +0.123 C 
ATOM     16  C   UNL     1      12.810   7.351  18.361  0.00  0.00    +0.230 C 
ATOM     32  H   UNL     1      14.468   7.025  17.189  0.00  0.00    +0.149 HD
ENDROOT
BRANCH  12   7
ATOM      2  O   UNL     1      10.869  10.356  23.870  0.00  0.00    -0.253 OA
ATOM      7  N   UNL     1      11.238  10.172  21.584  0.00  0.00    -0.295 N 
ATOM      8  N   UNL     1      10.903  12.246  22.524  0.00  0.00    -0.297 N 
ATOM     19  C   UNL     1      10.992  10.877  22.762  0.00  0.00    +0.300 C 
ATOM     33  H   UNL     1      11.247  10.690  20.709  0.00  0.00    +0.151 HD
ATOM     34  H   UNL     1      11.096  12.587  21.587  0.00  0.00    +0.150 HD
BRANCH   8  21
ATOM     21  C   UNL     1      10.653  13.208  23.572  0.00  0.00    +0.068 C 
ATOM     23  C   UNL     1       9.725  14.307  23.072  0.00  0.00    +0.027 C 
ATOM     24  C   UNL     1      11.964  13.786  24.091  0.00  0.00    +0.027 C 
ENDBRANCH   8  21
ENDBRANCH  12   7
BRANCH  11  17
ATOM     17  C   UNL     1      15.728   7.870  21.544  0.00  0.00    +0.029 C 
BRANCH  17  18
ATOM     18  C   UNL     1      16.371   9.114  20.950  0.00  0.00    +0.097 C 
BRANCH  18  20
ATOM      3  O   UNL     1      18.562  10.144  20.934  0.00  0.00    -0.276 OA
ATOM      9  N   UNL     1      18.256   8.159  22.097  0.00  0.00    -0.311 N 
ATOM     20  C   UNL     1      17.843   9.222  21.308  0.00  0.00    +0.213 C 
ATOM     35  H   UNL     1      17.590   7.452  22.390  0.00  0.00    +0.149 HD
BRANCH   9  22
ATOM     22  C   UNL     1      19.616   8.033  22.568  0.00  0.00    +0.139 C 
BRANCH  22  25
ATOM     25  C   UNL     1      20.242   6.739  22.136  0.00  0.00    -0.030 A 
ATOM     26  C   UNL     1      19.859   6.145  20.933  0.00  0.00    +0.009 A 
ATOM     27  C   UNL     1      21.209   6.131  22.937  0.00  0.00    +0.009 A 
ATOM     28  C   UNL     1      20.442   4.944  20.531  0.00  0.00    +0.046 A 
ATOM     29  C   UNL     1      21.791   4.928  22.534  0.00  0.00    +0.046 A 
ATOM     30  C   UNL     1      21.408   4.335  21.332  0.00  0.00    +0.120 A 
BRANCH  30   4
ATOM      4  O   UNL     1      21.977   3.163  20.939  0.00  0.00    -0.495 OA
ATOM     31  C   UNL     1      23.402   3.097  20.952  0.00  0.00    +0.277 C 
ENDBRANCH  30   4
ENDBRANCH  22  25
ENDBRANCH   9  22
ENDBRANCH  18  20
ENDBRANCH  17  18
ENDBRANCH  11  17
TORSDOF 8
ENDMDL
MODEL 2
REMARK VINA RESULT:      -7.1      4.392      7.299
REMARK  Name = 26762283
REMARK  11 active torsions:
REMARK  status: ('A' for Active; 'I' for Inactive)
REMARK    1  A    between atoms: O_4  and  C_30
REMARK    2  A    between atoms: O_4  and  C_31
REMARK    3  A    between atoms: N_7  and  C_12
REMARK    4  A    between atoms: N_8  and  C_21
REMARK    5  A    between atoms: N_9  and  C_22
REMARK    6  A    between atoms: C_11  and  C_17
REMARK    7  A    between atoms: C_17  and  C_18
REMARK    8  A    between atoms: C_18  and  C_20
REMARK    9  A    between atoms: C_21  and  C_23
REMARK   10  A    between atoms: C_21  and  C_24
REMARK   11  A    between atoms: C_22  and  C_25
REMARK                            x       y       z     vdW  Elec       q    Type
REMARK                         _______ _______ _______ _____ _____    ______ ____
ROOT
ATOM      1  O   UNL     1      15.709   6.576  19.402  0.00  0.00    -0.274 OA
ATOM      5  N   UNL     1      12.486   8.028  19.340  0.00  0.00    -0.285 NA
ATOM      6  N   UNL     1      14.080   6.574  21.019  0.00  0.00    -0.313 N 
ATOM     10  C   UNL     1      13.472   7.135  18.725  0.00  0.00    +0.145 C 
ATOM     11  C   UNL     1      11.762   7.324  20.401  0.00  0.00    +0.075 C 
ATOM     12  C   UNL     1      12.733   8.796  17.145  0.00  0.00    +0.090 C 
ATOM     13  C   UNL     1      13.950   7.944  17.529  0.00  0.00    +0.052 C 
ATOM     14  C   UNL     1      11.680   8.508  18.217  0.00  0.00    +0.107 C 
ATOM     15  C   UNL     1      12.783   7.018  21.506  0.00  0.00    +0.123 C 
ATOM     16  C   UNL     1      14.541   6.777  19.732  0.00  0.00    +0.230 C 
ATOM     32  H   UNL     1      14.753   6.260  21.712  0.00  0.00    +0.149 HD
ENDROOT
BRANCH  12   7
ATOM      2  O   UNL     1      13.895  10.218  14.918  0.00  0.00    -0.253 OA
ATOM      7  N   UNL     1      13.076  10.196  17.091  0.00  0.00    -0.295 N 
ATOM      8  N   UNL     1      13.865  12.160  16.188  0.00  0.00    -0.297 N 
ATOM     19  C   UNL     1      13.636  10.804  15.968  0.00  0.00    +0.300 C 
ATOM     33  H   UNL     1      12.971  10.752  17.935  0.00  0.00    +0.151 HD
ATOM     34  H   UNL     1      13.545  12.568  17.061  0.00  0.00    +0.150 HD
BRANCH   8  21
ATOM     21  C   UNL     1      14.439  13.029  15.188  0.00  0.00    +0.068 C 
ATOM     23  C   UNL     1      15.960  12.982  15.257  0.00  0.00    +0.027 C 
ATOM     24  C   UNL     1      13.922  14.452  15.355  0.00  0.00    +0.027 C 
ENDBRANCH   8  21
ENDBRANCH  12   7
BRANCH  11  17
ATOM     17  C   UNL     1      10.606   8.141  20.983  0.00  0.00    +0.029 C 
BRANCH  17  18
ATOM     18  C   UNL     1      10.920   8.606  22.397  0.00  0.00    +0.097 C 
BRANCH  18  20
ATOM      3  O   UNL     1      11.021  10.784  23.449  0.00  0.00    -0.276 OA
ATOM      9  N   UNL     1      11.754  10.553  21.259  0.00  0.00    -0.311 N 
ATOM     20  C   UNL     1      11.225  10.092  22.455  0.00  0.00    +0.213 C 
ATOM     35  H   UNL     1      11.922   9.908  20.494  0.00  0.00    +0.149 HD
BRANCH   9  22
ATOM     22  C   UNL     1      12.126  11.934  21.063  0.00  0.00    +0.139 C 
BRANCH  22  25
ATOM     25  C   UNL     1      13.460  12.066  20.386  0.00  0.00    -0.030 A 
ATOM     26  C   UNL     1      14.308  10.962  20.293  0.00  0.00    +0.009 A 
ATOM     27  C   UNL     1      13.852  13.293  19.851  0.00  0.00    +0.009 A 
ATOM     28  C   UNL     1      15.546  11.085  19.664  0.00  0.00    +0.046 A 
ATOM     29  C   UNL     1      15.091  13.416  19.223  0.00  0.00    +0.046 A 
ATOM     30  C   UNL     1      15.938  12.312  19.129  0.00  0.00    +0.120 A 
BRANCH  30   4
ATOM      4  O   UNL     1      17.147  12.432  18.515  0.00  0.00    -0.495 OA
ATOM     31  C   UNL     1      18.275  12.695  19.348  0.00  0.00    +0.277 C 
ENDBRANCH  30   4
ENDBRANCH  22  25
ENDBRANCH   9  22
ENDBRANCH  18  20
ENDBRANCH  17  18
ENDBRANCH  11  17
TORSDOF 8
ENDMDL
MODEL 3
REMARK VINA RESULT:      -7.0     26.872     29.402
REMARK  Name = 26762283
REMARK  11 active torsions:
REMARK  status: ('A' for Active; 'I' for Inactive)
REMARK    1  A    between atoms: O_4  and  C_30
REMARK    2  A    between atoms: O_4  and  C_31
REMARK    3  A    between atoms: N_7  and  C_12
REMARK    4  A    between atoms: N_8  and  C_21
REMARK    5  A    between atoms: N_9  and  C_22
REMARK    6  A    between atoms: C_11  and  C_17
REMARK    7  A    between atoms: C_17  and  C_18
REMARK    8  A    between atoms: C_18  and  C_20
REMARK    9  A    between atoms: C_21  and  C_23
REMARK   10  A    between atoms: C_21  and  C_24
REMARK   11  A    between atoms: C_22  and  C_25
REMARK                            x       y       z     vdW  Elec       q    Type
REMARK                         _______ _______ _______ _____ _____    ______ ____
ROOT
ATOM      1  O   UNL     1      -6.264  -7.916   9.175  0.00  0.00    -0.274 OA
ATOM      5  N   UNL     1      -5.464 -10.190  11.762  0.00  0.00    -0.285 NA
ATOM      6  N   UNL     1      -4.249  -8.888   9.688  0.00  0.00    -0.313 N 
ATOM     10  C   UNL     1      -6.294  -9.849  10.603  0.00  0.00    +0.145 C 
ATOM     11  C   UNL     1      -4.208 -10.800  11.319  0.00  0.00    +0.075 C 
ATOM     12  C   UNL     1      -7.671 -10.293  12.529  0.00  0.00    +0.090 C 
ATOM     13  C   UNL     1      -7.614  -9.452  11.247  0.00  0.00    +0.052 C 
ATOM     14  C   UNL     1      -6.329 -11.026  12.594  0.00  0.00    +0.107 C 
ATOM     15  C   UNL     1      -3.430  -9.713  10.563  0.00  0.00    +0.123 C 
ATOM     16  C   UNL     1      -5.622  -8.768   9.787  0.00  0.00    +0.230 C 
ATOM     32  H   UNL     1      -3.765  -8.226   9.089  0.00  0.00    +0.149 HD
ENDROOT
BRANCH  12   7
ATOM      2  O   UNL     1     -10.207  -9.550  13.688  0.00  0.00    -0.253 OA
ATOM      7  N   UNL     1      -7.886  -9.462  13.687  0.00  0.00    -0.295 N 
ATOM      8  N   UNL     1      -9.071  -8.334  15.306  0.00  0.00    -0.297 N 
ATOM     19  C   UNL     1      -9.152  -9.152  14.182  0.00  0.00    +0.300 C 
ATOM     33  H   UNL     1      -7.081  -9.020  14.122  0.00  0.00    +0.151 HD
ATOM     34  H   UNL     1      -8.152  -8.122  15.683  0.00  0.00    +0.150 HD
BRANCH   8  21
ATOM     21  C   UNL     1     -10.236  -7.863  16.017  0.00  0.00    +0.068 C 
ATOM     23  C   UNL     1     -10.542  -6.421  15.636  0.00  0.00    +0.027 C 
ATOM     24  C   UNL     1     -10.038  -8.006  17.521  0.00  0.00    +0.027 C 
ENDBRANCH   8  21
ENDBRANCH  12   7
BRANCH  11  17
ATOM     17  C   UNL     1      -3.357 -11.329  12.476  0.00  0.00    +0.029 C 
BRANCH  17  18
ATOM     18  C   UNL     1      -2.142 -10.446  12.711  0.00  0.00    +0.097 C 
BRANCH  18  20
ATOM      3  O   UNL     1      -1.003  -9.469  14.611  0.00  0.00    -0.276 OA
ATOM      9  N   UNL     1      -2.738 -10.965  14.982  0.00  0.00    -0.311 N 
ATOM     20  C   UNL     1      -1.877 -10.221  14.189  0.00  0.00    +0.213 C 
ATOM     35  H   UNL     1      -3.456 -11.540  14.554  0.00  0.00    +0.149 HD
BRANCH   9  22
ATOM     22  C   UNL     1      -2.686 -10.925  16.424  0.00  0.00    +0.139 C 
BRANCH  22  25
ATOM     25  C   UNL     1      -4.052 -10.798  17.033  0.00  0.00    -0.030 A 
ATOM     26  C   UNL     1      -5.045 -10.072  16.375  0.00  0.00    +0.009 A 
ATOM     27  C   UNL     1      -4.329 -11.407  18.257  0.00  0.00    +0.009 A 
ATOM     28  C   UNL     1      -6.315  -9.955  16.940  0.00  0.00    +0.046 A 
ATOM     29  C   UNL     1      -5.599 -11.290  18.823  0.00  0.00    +0.046 A 
ATOM     30  C   UNL     1      -6.591 -10.564  18.164  0.00  0.00    +0.120 A 
BRANCH  30   4
ATOM      4  O   UNL     1      -7.830 -10.451  18.716  0.00  0.00    -0.495 OA
ATOM     31  C   UNL     1      -8.759 -11.500  18.449  0.00  0.00    +0.277 C 
ENDBRANCH  30   4
ENDBRANCH  22  25
ENDBRANCH   9  22
ENDBRANCH  18  20
ENDBRANCH  17  18
ENDBRANCH  11  17
TORSDOF 8
ENDMDL
MODEL 4
REMARK VINA RESULT:      -6.8      2.842      9.461
REMARK  Name = 26762283
REMARK  11 active torsions:
REMARK  status: ('A' for Active; 'I' for Inactive)
REMARK    1  A    between atoms: O_4  and  C_30
REMARK    2  A    between atoms: O_4  and  C_31
REMARK    3  A    between atoms: N_7  and  C_12
REMARK    4  A    between atoms: N_8  and  C_21
REMARK    5  A    between atoms: N_9  and  C_22
REMARK    6  A    between atoms: C_11  and  C_17
REMARK    7  A    between atoms: C_17  and  C_18
REMARK    8  A    between atoms: C_18  and  C_20
REMARK    9  A    between atoms: C_21  and  C_23
REMARK   10  A    between atoms: C_21  and  C_24
REMARK   11  A    between atoms: C_22  and  C_25
REMARK                            x       y       z     vdW  Elec       q    Type
REMARK                         _______ _______ _______ _____ _____    ______ ____
ROOT
ATOM      1  O   UNL     1      21.709   4.402  20.792  0.00  0.00    -0.274 OA
ATOM      5  N   UNL     1      19.156   6.759  21.447  0.00  0.00    -0.285 NA
ATOM      6  N   UNL     1      19.702   4.709  19.722  0.00  0.00    -0.313 N 
ATOM     10  C   UNL     1      20.565   6.485  21.153  0.00  0.00    +0.145 C 
ATOM     11  C   UNL     1      18.380   6.792  20.206  0.00  0.00    +0.075 C 
ATOM     12  C   UNL     1      20.359   7.772  23.178  0.00  0.00    +0.090 C 
ATOM     13  C   UNL     1      21.234   6.711  22.500  0.00  0.00    +0.052 C 
ATOM     14  C   UNL     1      19.182   7.998  22.225  0.00  0.00    +0.107 C 
ATOM     15  C   UNL     1      18.409   5.371  19.627  0.00  0.00    +0.123 C 
ATOM     16  C   UNL     1      20.712   5.092  20.584  0.00  0.00    +0.230 C 
ATOM     32  H   UNL     1      19.798   3.810  19.260  0.00  0.00    +0.149 HD
ENDROOT
BRANCH  12   7
ATOM      2  O   UNL     1      21.721   8.157  25.693  0.00  0.00    -0.253 OA
ATOM      7  N   UNL     1      19.921   7.332  24.479  0.00  0.00    -0.295 N 
ATOM      8  N   UNL     1      19.994   7.031  26.759  0.00  0.00    -0.297 N 
ATOM     19  C   UNL     1      20.645   7.562  25.648  0.00  0.00    +0.300 C 
ATOM     33  H   UNL     1      19.081   6.764  24.539  0.00  0.00    +0.151 HD
ATOM     34  H   UNL     1      19.072   6.626  26.630  0.00  0.00    +0.150 HD
BRANCH   8  21
ATOM     21  C   UNL     1      20.526   7.128  28.098  0.00  0.00    +0.068 C 
ATOM     23  C   UNL     1      20.294   5.827  28.855  0.00  0.00    +0.027 C 
ATOM     24  C   UNL     1      19.912   8.313  28.833  0.00  0.00    +0.027 C 
ENDBRANCH   8  21
ENDBRANCH  12   7
BRANCH  11  17
ATOM     17  C   UNL     1      16.929   7.231  20.416  0.00  0.00    +0.029 C 
BRANCH  17  18
ATOM     18  C   UNL     1      15.959   6.233  19.802  0.00  0.00    +0.097 C 
BRANCH  18  20
ATOM      3  O   UNL     1      14.702   7.647  18.293  0.00  0.00    -0.276 OA
ATOM      9  N   UNL     1      13.591   6.579  20.028  0.00  0.00    -0.311 N 
ATOM     20  C   UNL     1      14.706   6.906  19.272  0.00  0.00    +0.213 C 
ATOM     35  H   UNL     1      13.674   5.932  20.805  0.00  0.00    +0.149 HD
BRANCH   9  22
ATOM     22  C   UNL     1      12.277   7.095  19.726  0.00  0.00    +0.139 C 
BRANCH  22  25
ATOM     25  C   UNL     1      11.918   8.264  20.597  0.00  0.00    -0.030 A 
ATOM     26  C   UNL     1      12.619   9.465  20.478  0.00  0.00    +0.009 A 
ATOM     27  C   UNL     1      10.884   8.150  21.525  0.00  0.00    +0.009 A 
ATOM     28  C   UNL     1      12.286  10.551  21.286  0.00  0.00    +0.046 A 
ATOM     29  C   UNL     1      10.550   9.237  22.334  0.00  0.00    +0.046 A 
ATOM     30  C   UNL     1      11.251  10.437  22.214  0.00  0.00    +0.120 A 
BRANCH  30   4
ATOM      4  O   UNL     1      10.925  11.497  23.004  0.00  0.00    -0.495 OA
ATOM     31  C   UNL     1      10.917  12.785  22.390  0.00  0.00    +0.277 C 
ENDBRANCH  30   4
ENDBRANCH  22  25
ENDBRANCH   9  22
ENDBRANCH  18  20
ENDBRANCH  17  18
ENDBRANCH  11  17
TORSDOF 8
ENDMDL
MODEL 5
REMARK VINA RESULT:      -6.8      3.185      6.136
REMARK  Name = 26762283
REMARK  11 active torsions:
REMARK  status: ('A' for Active; 'I' for Inactive)
REMARK    1  A    between atoms: O_4  and  C_30
REMARK    2  A    between atoms: O_4  and  C_31
REMARK    3  A    between atoms: N_7  and  C_12
REMARK    4  A    between atoms: N_8  and  C_21
REMARK    5  A    between atoms: N_9  and  C_22
REMARK    6  A    between atoms: C_11  and  C_17
REMARK    7  A    between atoms: C_17  and  C_18
REMARK    8  A    between atoms: C_18  and  C_20
REMARK    9  A    between atoms: C_21  and  C_23
REMARK   10  A    between atoms: C_21  and  C_24
REMARK   11  A    between atoms: C_22  and  C_25
REMARK                            x       y       z     vdW  Elec       q    Type
REMARK                         _______ _______ _______ _____ _____    ______ ____
ROOT
ATOM      1  O   UNL     1      15.603   6.438  19.437  0.00  0.00    -0.274 OA
ATOM      5  N   UNL     1      12.460   8.059  19.439  0.00  0.00    -0.285 NA
ATOM      6  N   UNL     1      13.997   6.500  21.076  0.00  0.00    -0.313 N 
ATOM     10  C   UNL     1      13.390   7.124  18.799  0.00  0.00    +0.145 C 
ATOM     11  C   UNL     1      11.714   7.380  20.500  0.00  0.00    +0.075 C 
ATOM     12  C   UNL     1      12.720   8.844  17.252  0.00  0.00    +0.090 C 
ATOM     13  C   UNL     1      13.894   7.923  17.607  0.00  0.00    +0.052 C 
ATOM     14  C   UNL     1      11.667   8.596  18.334  0.00  0.00    +0.107 C 
ATOM     15  C   UNL     1      12.731   7.005  21.587  0.00  0.00    +0.123 C 
ATOM     16  C   UNL     1      14.452   6.695  19.786  0.00  0.00    +0.230 C 
ATOM     32  H   UNL     1      14.661   6.140  21.756  0.00  0.00    +0.149 HD
ENDROOT
BRANCH  12   7
ATOM      2  O   UNL     1      13.816  10.266  14.991  0.00  0.00    -0.253 OA
ATOM      7  N   UNL     1      13.135  10.224  17.212  0.00  0.00    -0.295 N 
ATOM      8  N   UNL     1      13.974  12.169  16.310  0.00  0.00    -0.297 N 
ATOM     19  C   UNL     1      13.657  10.834  16.071  0.00  0.00    +0.300 C 
ATOM     33  H   UNL     1      13.115  10.760  18.075  0.00  0.00    +0.151 HD
ATOM     34  H   UNL     1      13.733  12.568  17.213  0.00  0.00    +0.150 HD
BRANCH   8  21
ATOM     21  C   UNL     1      14.531  13.034  15.298  0.00  0.00    +0.068 C 
ATOM     23  C   UNL     1      16.052  13.046  15.390  0.00  0.00    +0.027 C 
ATOM     24  C   UNL     1      13.959  14.441  15.423  0.00  0.00    +0.027 C 
ENDBRANCH   8  21
ENDBRANCH  12   7
BRANCH  11  17
ATOM     17  C   UNL     1      10.611   8.248  21.108  0.00  0.00    +0.029 C 
BRANCH  17  18
ATOM     18  C   UNL     1      11.061   8.865  22.424  0.00  0.00    +0.097 C 
BRANCH  18  20
ATOM      3  O   UNL     1      11.460  11.052  21.466  0.00  0.00    -0.276 OA
ATOM      9  N   UNL     1      13.000  10.179  22.967  0.00  0.00    -0.311 N 
ATOM     20  C   UNL     1      11.835  10.154  22.214  0.00  0.00    +0.213 C 
ATOM     35  H   UNL     1      13.222   9.408  23.587  0.00  0.00    +0.149 HD
BRANCH   9  22
ATOM     22  C   UNL     1      13.911  11.299  22.940  0.00  0.00    +0.139 C 
BRANCH  22  25
ATOM     25  C   UNL     1      15.285  10.896  22.489  0.00  0.00    -0.030 A 
ATOM     26  C   UNL     1      15.491   9.638  21.920  0.00  0.00    +0.009 A 
ATOM     27  C   UNL     1      16.354  11.778  22.637  0.00  0.00    +0.009 A 
ATOM     28  C   UNL     1      16.767   9.264  21.500  0.00  0.00    +0.046 A 
ATOM     29  C   UNL     1      17.631  11.403  22.217  0.00  0.00    +0.046 A 
ATOM     30  C   UNL     1      17.837  10.147  21.649  0.00  0.00    +0.120 A 
BRANCH  30   4
ATOM      4  O   UNL     1      19.082   9.781  21.239  0.00  0.00    -0.495 OA
ATOM     31  C   UNL     1      19.551   8.499  21.652  0.00  0.00    +0.277 C 
ENDBRANCH  30   4
ENDBRANCH  22  25
ENDBRANCH   9  22
ENDBRANCH  18  20
ENDBRANCH  17  18
ENDBRANCH  11  17
TORSDOF 8
ENDMDL
MODEL 6
REMARK VINA RESULT:      -6.8      4.418      8.536
REMARK  Name = 26762283
REMARK  11 active torsions:
REMARK  status: ('A' for Active; 'I' for Inactive)
REMARK    1  A    between atoms: O_4  and  C_30
REMARK    2  A    between atoms: O_4  and  C_31
REMARK    3  A    between atoms: N_7  and  C_12
REMARK    4  A    between atoms: N_8  and  C_21
REMARK    5  A    between atoms: N_9  and  C_22
REMARK    6  A    between atoms: C_11  and  C_17
REMARK    7  A    between atoms: C_17  and  C_18
REMARK    8  A    between atoms: C_18  and  C_20
REMARK    9  A    between atoms: C_21  and  C_23
REMARK   10  A    between atoms: C_21  and  C_24
REMARK   11  A    between atoms: C_22  and  C_25
REMARK                            x       y       z     vdW  Elec       q    Type
REMARK                         _______ _______ _______ _____ _____    ______ ____
ROOT
ATOM      1  O   UNL     1      15.634   6.521  19.398  0.00  0.00    -0.274 OA
ATOM      5  N   UNL     1      12.465   8.091  19.414  0.00  0.00    -0.285 NA
ATOM      6  N   UNL     1      14.067   6.621  21.072  0.00  0.00    -0.313 N 
ATOM     10  C   UNL     1      13.395   7.146  18.788  0.00  0.00    +0.145 C 
ATOM     11  C   UNL     1      11.757   7.442  20.519  0.00  0.00    +0.075 C 
ATOM     12  C   UNL     1      12.659   8.794  17.193  0.00  0.00    +0.090 C 
ATOM     13  C   UNL     1      13.857   7.906  17.554  0.00  0.00    +0.052 C 
ATOM     14  C   UNL     1      11.636   8.572  18.309  0.00  0.00    +0.107 C 
ATOM     15  C   UNL     1      12.805   7.125  21.594  0.00  0.00    +0.123 C 
ATOM     16  C   UNL     1      14.487   6.773  19.765  0.00  0.00    +0.230 C 
ATOM     32  H   UNL     1      14.753   6.299  21.748  0.00  0.00    +0.149 HD
ENDROOT
BRANCH  12   7
ATOM      2  O   UNL     1      13.826  10.104  14.901  0.00  0.00    -0.253 OA
ATOM      7  N   UNL     1      13.050  10.177  17.089  0.00  0.00    -0.295 N 
ATOM      8  N   UNL     1      13.891  12.084  16.111  0.00  0.00    -0.297 N 
ATOM     19  C   UNL     1      13.609  10.731  15.938  0.00  0.00    +0.300 C 
ATOM     33  H   UNL     1      12.982  10.762  17.917  0.00  0.00    +0.151 HD
ATOM     34  H   UNL     1      13.604  12.529  16.977  0.00  0.00    +0.150 HD
BRANCH   8  21
ATOM     21  C   UNL     1      14.476  12.900  15.074  0.00  0.00    +0.068 C 
ATOM     23  C   UNL     1      15.995  12.881  15.179  0.00  0.00    +0.027 C 
ATOM     24  C   UNL     1      13.935  14.323  15.145  0.00  0.00    +0.027 C 
ENDBRANCH   8  21
ENDBRANCH  12   7
BRANCH  11  17
ATOM     17  C   UNL     1      10.654   8.316  21.121  0.00  0.00    +0.029 C 
BRANCH  17  18
ATOM     18  C   UNL     1      11.084   8.901  22.457  0.00  0.00    +0.097 C 
BRANCH  18  20
ATOM      3  O   UNL     1      11.404  11.091  21.476  0.00  0.00    -0.276 OA
ATOM      9  N   UNL     1      10.636  10.933  23.661  0.00  0.00    -0.311 N 
ATOM     20  C   UNL     1      11.069  10.419  22.448  0.00  0.00    +0.213 C 
ATOM     35  H   UNL     1      10.347  10.308  24.405  0.00  0.00    +0.149 HD
BRANCH   9  22
ATOM     22  C   UNL     1      10.536  12.353  23.903  0.00  0.00    +0.139 C 
BRANCH  22  25
ATOM     25  C   UNL     1      11.560  12.829  24.892  0.00  0.00    -0.030 A 
ATOM     26  C   UNL     1      11.349  14.010  25.603  0.00  0.00    +0.009 A 
ATOM     27  C   UNL     1      12.724  12.089  25.099  0.00  0.00    +0.009 A 
ATOM     28  C   UNL     1      12.300  14.452  26.522  0.00  0.00    +0.046 A 
ATOM     29  C   UNL     1      13.677  12.531  26.018  0.00  0.00    +0.046 A 
ATOM     30  C   UNL     1      13.464  13.712  26.729  0.00  0.00    +0.120 A 
BRANCH  30   4
ATOM      4  O   UNL     1      14.393  14.142  27.626  0.00  0.00    -0.495 OA
ATOM     31  C   UNL     1      15.753  13.794  27.371  0.00  0.00    +0.277 C 
ENDBRANCH  30   4
ENDBRANCH  22  25
ENDBRANCH   9  22
ENDBRANCH  18  20
ENDBRANCH  17  18
ENDBRANCH  11  17
TORSDOF 8
ENDMDL
MODEL 7
REMARK VINA RESULT:      -6.8     27.128     30.742
REMARK  Name = 26762283
REMARK  11 active torsions:
REMARK  status: ('A' for Active; 'I' for Inactive)
REMARK    1  A    between atoms: O_4  and  C_30
REMARK    2  A    between atoms: O_4  and  C_31
REMARK    3  A    between atoms: N_7  and  C_12
REMARK    4  A    between atoms: N_8  and  C_21
REMARK    5  A    between atoms: N_9  and  C_22
REMARK    6  A    between atoms: C_11  and  C_17
REMARK    7  A    between atoms: C_17  and  C_18
REMARK    8  A    between atoms: C_18  and  C_20
REMARK    9  A    between atoms: C_21  and  C_23
REMARK   10  A    between atoms: C_21  and  C_24
REMARK   11  A    between atoms: C_22  and  C_25
REMARK                            x       y       z     vdW  Elec       q    Type
REMARK                         _______ _______ _______ _____ _____    ______ ____
ROOT
ATOM      1  O   UNL     1     -14.324  10.892  21.218  0.00  0.00    -0.274 OA
ATOM      5  N   UNL     1     -13.273   7.516  21.178  0.00  0.00    -0.285 NA
ATOM      6  N   UNL     1     -15.296   9.053  22.189  0.00  0.00    -0.313 N 
ATOM     10  C   UNL     1     -12.972   8.921  21.466  0.00  0.00    +0.145 C 
ATOM     11  C   UNL     1     -13.983   6.913  22.308  0.00  0.00    +0.075 C 
ATOM     12  C   UNL     1     -11.342   7.998  19.951  0.00  0.00    +0.090 C 
ATOM     13  C   UNL     1     -12.058   9.306  20.312  0.00  0.00    +0.052 C 
ATOM     14  C   UNL     1     -11.977   6.928  20.842  0.00  0.00    +0.107 C 
ATOM     15  C   UNL     1     -15.346   7.614  22.401  0.00  0.00    +0.123 C 
ATOM     16  C   UNL     1     -14.255   9.715  21.567  0.00  0.00    +0.230 C 
ATOM     32  H   UNL     1     -16.154   9.575  22.344  0.00  0.00    +0.149 HD
ENDROOT
BRANCH  12   7
ATOM      2  O   UNL     1      -9.986   9.261  17.738  0.00  0.00    -0.253 OA
ATOM      7  N   UNL     1     -11.494   7.691  18.551  0.00  0.00    -0.295 N 
ATOM      8  N   UNL     1     -11.131   7.859  16.284  0.00  0.00    -0.297 N 
ATOM     19  C   UNL     1     -10.795   8.354  17.542  0.00  0.00    +0.300 C 
ATOM     33  H   UNL     1     -12.196   7.009  18.279  0.00  0.00    +0.151 HD
ATOM     34  H   UNL     1     -11.751   7.057  16.231  0.00  0.00    +0.150 HD
BRANCH   8  21
ATOM     21  C   UNL     1     -10.553   8.369  15.063  0.00  0.00    +0.068 C 
ATOM     23  C   UNL     1     -11.446   9.448  14.465  0.00  0.00    +0.027 C 
ATOM     24  C   UNL     1     -10.314   7.237  14.071  0.00  0.00    +0.027 C 
ENDBRANCH   8  21
ENDBRANCH  12   7
BRANCH  11  17
ATOM     17  C   UNL     1     -14.192   5.405  22.150  0.00  0.00    +0.029 C 
BRANCH  17  18
ATOM     18  C   UNL     1     -14.073   4.691  23.487  0.00  0.00    +0.097 C 
BRANCH  18  20
ATOM      3  O   UNL     1     -16.146   3.535  23.013  0.00  0.00    -0.276 OA
ATOM      9  N   UNL     1     -15.461   3.766  25.219  0.00  0.00    -0.311 N 
ATOM     20  C   UNL     1     -15.340   3.937  23.847  0.00  0.00    +0.213 C 
ATOM     35  H   UNL     1     -14.733   4.101  25.840  0.00  0.00    +0.149 HD
BRANCH   9  22
ATOM     22  C   UNL     1     -16.584   3.079  25.813  0.00  0.00    +0.139 C 
BRANCH  22  25
ATOM     25  C   UNL     1     -16.274   2.591  27.199  0.00  0.00    -0.030 A 
ATOM     26  C   UNL     1     -15.694   3.453  28.130  0.00  0.00    +0.009 A 
ATOM     27  C   UNL     1     -16.567   1.274  27.555  0.00  0.00    +0.009 A 
ATOM     28  C   UNL     1     -15.408   2.999  29.417  0.00  0.00    +0.046 A 
ATOM     29  C   UNL     1     -16.280   0.820  28.842  0.00  0.00    +0.046 A 
ATOM     30  C   UNL     1     -15.700   1.683  29.773  0.00  0.00    +0.120 A 
BRANCH  30   4
ATOM      4  O   UNL     1     -15.421   1.240  31.029  0.00  0.00    -0.495 OA
ATOM     31  C   UNL     1     -15.016  -0.122  31.162  0.00  0.00    +0.277 C 
ENDBRANCH  30   4
ENDBRANCH  22  25
ENDBRANCH   9  22
ENDBRANCH  18  20
ENDBRANCH  17  18
ENDBRANCH  11  17
TORSDOF 8
ENDMDL
MODEL 8
REMARK VINA RESULT:      -6.7     26.987     29.711
REMARK  Name = 26762283
REMARK  11 active torsions:
REMARK  status: ('A' for Active; 'I' for Inactive)
REMARK    1  A    between atoms: O_4  and  C_30
REMARK    2  A    between atoms: O_4  and  C_31
REMARK    3  A    between atoms: N_7  and  C_12
REMARK    4  A    between atoms: N_8  and  C_21
REMARK    5  A    between atoms: N_9  and  C_22
REMARK    6  A    between atoms: C_11  and  C_17
REMARK    7  A    between atoms: C_17  and  C_18
REMARK    8  A    between atoms: C_18  and  C_20
REMARK    9  A    between atoms: C_21  and  C_23
REMARK   10  A    between atoms: C_21  and  C_24
REMARK   11  A    between atoms: C_22  and  C_25
REMARK                            x       y       z     vdW  Elec       q    Type
REMARK                         _______ _______ _______ _____ _____    ______ ____
ROOT
ATOM      1  O   UNL     1      -7.910 -13.100  18.998  0.00  0.00    -0.274 OA
ATOM      5  N   UNL     1      -6.062 -11.027  16.810  0.00  0.00    -0.285 NA
ATOM      6  N   UNL     1      -6.040 -13.590  17.761  0.00  0.00    -0.313 N 
ATOM     10  C   UNL     1      -6.630 -11.255  18.141  0.00  0.00    +0.145 C 
ATOM     11  C   UNL     1      -4.768 -11.703  16.693  0.00  0.00    +0.075 C 
ATOM     12  C   UNL     1      -7.403  -9.160  17.239  0.00  0.00    +0.090 C 
ATOM     13  C   UNL     1      -7.826 -10.315  18.156  0.00  0.00    +0.052 C 
ATOM     14  C   UNL     1      -6.044  -9.571  16.667  0.00  0.00    +0.107 C 
ATOM     15  C   UNL     1      -5.048 -13.211  16.766  0.00  0.00    +0.123 C 
ATOM     16  C   UNL     1      -6.958 -12.721  18.318  0.00  0.00    +0.230 C 
ATOM     32  H   UNL     1      -6.181 -14.583  17.920  0.00  0.00    +0.149 HD
ENDROOT
BRANCH  12   7
ATOM      2  O   UNL     1      -9.871  -7.680  17.459  0.00  0.00    -0.253 OA
ATOM      7  N   UNL     1      -8.378  -8.938  16.201  0.00  0.00    -0.295 N 
ATOM      8  N   UNL     1     -10.309  -8.147  15.228  0.00  0.00    -0.297 N 
ATOM     19  C   UNL     1      -9.550  -8.206  16.394  0.00  0.00    +0.300 C 
ATOM     33  H   UNL     1      -8.243  -9.396  15.304  0.00  0.00    +0.151 HD
ATOM     34  H   UNL     1      -9.921  -8.547  14.380  0.00  0.00    +0.150 HD
BRANCH   8  21
ATOM     21  C   UNL     1     -11.571  -7.451  15.151  0.00  0.00    +0.068 C 
ATOM     23  C   UNL     1     -12.472  -8.101  14.110  0.00  0.00    +0.027 C 
ATOM     24  C   UNL     1     -11.350  -5.974  14.846  0.00  0.00    +0.027 C 
ENDBRANCH   8  21
ENDBRANCH  12   7
BRANCH  11  17
ATOM     17  C   UNL     1      -4.038 -11.380  15.387  0.00  0.00    +0.029 C 
BRANCH  17  18
ATOM     18  C   UNL     1      -2.552 -11.165  15.628  0.00  0.00    +0.097 C 
BRANCH  18  20
ATOM      3  O   UNL     1      -1.096  -9.531  14.592  0.00  0.00    -0.276 OA
ATOM      9  N   UNL     1      -2.261 -11.020  13.246  0.00  0.00    -0.311 N 
ATOM     20  C   UNL     1      -1.879 -10.468  14.459  0.00  0.00    +0.213 C 
ATOM     35  H   UNL     1      -2.891 -11.815  13.223  0.00  0.00    +0.149 HD
BRANCH   9  22
ATOM     22  C   UNL     1      -1.759 -10.530  11.984  0.00  0.00    +0.139 C 
BRANCH  22  25
ATOM     25  C   UNL     1      -2.851 -10.377  10.965  0.00  0.00    -0.030 A 
ATOM     26  C   UNL     1      -2.996  -9.175  10.271  0.00  0.00    +0.009 A 
ATOM     27  C   UNL     1      -3.720 -11.438  10.711  0.00  0.00    +0.009 A 
ATOM     28  C   UNL     1      -4.010  -9.034   9.325  0.00  0.00    +0.046 A 
ATOM     29  C   UNL     1      -4.734 -11.296   9.764  0.00  0.00    +0.046 A 
ATOM     30  C   UNL     1      -4.879 -10.095   9.071  0.00  0.00    +0.120 A 
BRANCH  30   4
ATOM      4  O   UNL     1      -5.868  -9.957   8.146  0.00  0.00    -0.495 OA
ATOM     31  C   UNL     1      -5.577 -10.382   6.816  0.00  0.00    +0.277 C 
ENDBRANCH  30   4
ENDBRANCH  22  25
ENDBRANCH   9  22
ENDBRANCH  18  20
ENDBRANCH  17  18
ENDBRANCH  11  17
TORSDOF 8
ENDMDL
MODEL 9
REMARK VINA RESULT:      -6.6      3.110      6.112
REMARK  Name = 26762283
REMARK  11 active torsions:
REMARK  status: ('A' for Active; 'I' for Inactive)
REMARK    1  A    between atoms: O_4  and  C_30
REMARK    2  A    between atoms: O_4  and  C_31
REMARK    3  A    between atoms: N_7  and  C_12
REMARK    4  A    between atoms: N_8  and  C_21
REMARK    5  A    between atoms: N_9  and  C_22
REMARK    6  A    between atoms: C_11  and  C_17
REMARK    7  A    between atoms: C_17  and  C_18
REMARK    8  A    between atoms: C_18  and  C_20
REMARK    9  A    between atoms: C_21  and  C_23
REMARK   10  A    between atoms: C_21  and  C_24
REMARK   11  A    between atoms: C_22  and  C_25
REMARK                            x       y       z     vdW  Elec       q    Type
REMARK                         _______ _______ _______ _____ _____    ______ ____
ROOT
ATOM      1  O   UNL     1      17.771  10.999  22.416  0.00  0.00    -0.274 OA
ATOM      5  N   UNL     1      18.188   7.654  21.349  0.00  0.00    -0.285 NA
ATOM      6  N   UNL     1      19.502   9.547  22.820  0.00  0.00    -0.313 N 
ATOM     10  C   UNL     1      17.944   9.059  21.009  0.00  0.00    +0.145 C 
ATOM     11  C   UNL     1      19.625   7.414  21.496  0.00  0.00    +0.075 C 
ATOM     12  C   UNL     1      16.192   7.659  20.130  0.00  0.00    +0.090 C 
ATOM     13  C   UNL     1      16.460   9.066  20.679  0.00  0.00    +0.052 C 
ATOM     14  C   UNL     1      17.512   6.902  20.291  0.00  0.00    +0.107 C 
ATOM     15  C   UNL     1      20.086   8.217  22.721  0.00  0.00    +0.123 C 
ATOM     16  C   UNL     1      18.355   9.947  22.162  0.00  0.00    +0.230 C 
ATOM     32  H   UNL     1      19.855  10.154  23.554  0.00  0.00    +0.149 HD
ENDROOT
BRANCH  12   7
ATOM      2  O   UNL     1      13.374   7.816  19.526  0.00  0.00    -0.253 OA
ATOM      7  N   UNL     1      15.115   7.019  20.842  0.00  0.00    -0.295 N 
ATOM      8  N   UNL     1      12.946   6.427  21.336  0.00  0.00    -0.297 N 
ATOM     19  C   UNL     1      13.774   7.149  20.480  0.00  0.00    +0.300 C 
ATOM     33  H   UNL     1      15.334   6.507  21.692  0.00  0.00    +0.151 HD
ATOM     34  H   UNL     1      13.377   5.845  22.048  0.00  0.00    +0.150 HD
BRANCH   8  21
ATOM     21  C   UNL     1      11.510   6.389  21.188  0.00  0.00    +0.068 C 
ATOM     23  C   UNL     1      10.865   7.513  21.986  0.00  0.00    +0.027 C 
ATOM     24  C   UNL     1      10.966   5.029  21.608  0.00  0.00    +0.027 C 
ENDBRANCH   8  21
ENDBRANCH  12   7
BRANCH  11  17
ATOM     17  C   UNL     1      19.969   5.936  21.694  0.00  0.00    +0.029 C 
BRANCH  17  18
ATOM     18  C   UNL     1      20.682   5.370  20.475  0.00  0.00    +0.097 C 
BRANCH  18  20
ATOM      3  O   UNL     1      22.740   6.508  21.048  0.00  0.00    -0.276 OA
ATOM      9  N   UNL     1      22.846   4.405  20.071  0.00  0.00    -0.311 N 
ATOM     20  C   UNL     1      22.189   5.518  20.576  0.00  0.00    +0.213 C 
ATOM     35  H   UNL     1      22.316   3.613  19.727  0.00  0.00    +0.149 HD
BRANCH   9  22
ATOM     22  C   UNL     1      24.287   4.304  20.053  0.00  0.00    +0.139 C 
BRANCH  22  25
ATOM     25  C   UNL     1      24.775   3.099  20.803  0.00  0.00    -0.030 A 
ATOM     26  C   UNL     1      23.973   1.961  20.895  0.00  0.00    +0.009 A 
ATOM     27  C   UNL     1      26.032   3.116  21.407  0.00  0.00    +0.009 A 
ATOM     28  C   UNL     1      24.427   0.842  21.591  0.00  0.00    +0.046 A 
ATOM     29  C   UNL     1      26.486   1.996  22.104  0.00  0.00    +0.046 A 
ATOM     30  C   UNL     1      25.684   0.859  22.195  0.00  0.00    +0.120 A 
BRANCH  30   4
ATOM      4  O   UNL     1      26.127  -0.234  22.874  0.00  0.00    -0.495 OA
ATOM     31  C   UNL     1      27.516  -0.543  22.770  0.00  0.00    +0.277 C 
ENDBRANCH  30   4
ENDBRANCH  22  25
ENDBRANCH   9  22
ENDBRANCH  18  20
ENDBRANCH  17  18
ENDBRANCH  11  17
TORSDOF 8
ENDMDL
MODEL 10
REMARK VINA RESULT:      -6.6     27.709     30.745
REMARK  Name = 26762283
REMARK  11 active torsions:
REMARK  status: ('A' for Active; 'I' for Inactive)
REMARK    1  A    between atoms: O_4  and  C_30
REMARK    2  A    between atoms: O_4  and  C_31
REMARK    3  A    between atoms: N_7  and  C_12
REMARK    4  A    between atoms: N_8  and  C_21
REMARK    5  A    between atoms: N_9  and  C_22
REMARK    6  A    between atoms: C_11  and  C_17
REMARK    7  A    between atoms: C_17  and  C_18
REMARK    8  A    between atoms: C_18  and  C_20
REMARK    9  A    between atoms: C_21  and  C_23
REMARK   10  A    between atoms: C_21  and  C_24
REMARK   11  A    between atoms: C_22  and  C_25
REMARK                            x       y       z     vdW  Elec       q    Type
REMARK                         _______ _______ _______ _____ _____    ______ ____
ROOT
ATOM      1  O   UNL     1     -15.190  -8.724  15.631  0.00  0.00    -0.274 OA
ATOM      5  N   UNL     1     -12.011  -7.176  15.680  0.00  0.00    -0.285 NA
ATOM      6  N   UNL     1     -13.254  -9.405  16.659  0.00  0.00    -0.313 N 
ATOM     10  C   UNL     1     -13.454  -7.089  15.925  0.00  0.00    +0.145 C 
ATOM     11  C   UNL     1     -11.341  -7.784  16.831  0.00  0.00    +0.075 C 
ATOM     12  C   UNL     1     -12.743  -5.342  14.427  0.00  0.00    +0.090 C 
ATOM     13  C   UNL     1     -13.938  -6.247  14.755  0.00  0.00    +0.052 C 
ATOM     14  C   UNL     1     -11.615  -5.806  15.351  0.00  0.00    +0.107 C 
ATOM     15  C   UNL     1     -11.831  -9.236  16.913  0.00  0.00    +0.123 C 
ATOM     16  C   UNL     1     -14.047  -8.477  16.012  0.00  0.00    +0.230 C 
ATOM     32  H   UNL     1     -13.645 -10.331  16.805  0.00  0.00    +0.149 HD
ENDROOT
BRANCH  12   7
ATOM      2  O   UNL     1     -12.322  -3.174  12.568  0.00  0.00    -0.253 OA
ATOM      7  N   UNL     1     -12.377  -5.449  13.036  0.00  0.00    -0.295 N 
ATOM      8  N   UNL     1     -11.842  -4.732  10.915  0.00  0.00    -0.297 N 
ATOM     19  C   UNL     1     -12.192  -4.343  12.206  0.00  0.00    +0.300 C 
ATOM     33  H   UNL     1     -12.320  -6.374  12.621  0.00  0.00    +0.151 HD
ATOM     34  H   UNL     1     -11.685  -5.718  10.735  0.00  0.00    +0.150 HD
BRANCH   8  21
ATOM     21  C   UNL     1     -11.593  -3.785   9.854  0.00  0.00    +0.068 C 
ATOM     23  C   UNL     1     -12.850  -3.585   9.017  0.00  0.00    +0.027 C 
ATOM     24  C   UNL     1     -10.423  -4.244   8.993  0.00  0.00    +0.027 C 
ENDBRANCH   8  21
ENDBRANCH  12   7
BRANCH  11  17
ATOM     17  C   UNL     1      -9.815  -7.763  16.716  0.00  0.00    +0.029 C 
BRANCH  17  18
ATOM     18  C   UNL     1      -9.327  -8.781  15.697  0.00  0.00    +0.097 C 
BRANCH  18  20
ATOM      3  O   UNL     1      -8.727 -10.932  16.632  0.00  0.00    -0.276 OA
ATOM      9  N   UNL     1      -7.103  -9.282  16.461  0.00  0.00    -0.311 N 
ATOM     20  C   UNL     1      -8.382  -9.798  16.312  0.00  0.00    +0.213 C 
ATOM     35  H   UNL     1      -6.892  -8.343  16.141  0.00  0.00    +0.149 HD
BRANCH   9  22
ATOM     22  C   UNL     1      -6.022 -10.055  17.025  0.00  0.00    +0.139 C 
BRANCH  22  25
ATOM     25  C   UNL     1      -4.924 -10.297  16.029  0.00  0.00    -0.030 A 
ATOM     26  C   UNL     1      -5.211 -10.310  14.664  0.00  0.00    +0.009 A 
ATOM     27  C   UNL     1      -3.618 -10.508  16.470  0.00  0.00    +0.009 A 
ATOM     28  C   UNL     1      -4.191 -10.533  13.740  0.00  0.00    +0.046 A 
ATOM     29  C   UNL     1      -2.598 -10.732  15.545  0.00  0.00    +0.046 A 
ATOM     30  C   UNL     1      -2.885 -10.744  14.180  0.00  0.00    +0.120 A 
BRANCH  30   4
ATOM      4  O   UNL     1      -1.889 -10.962  13.278  0.00  0.00    -0.495 OA
ATOM     31  C   UNL     1      -2.163 -10.634  11.917  0.00  0.00    +0.277 C 
ENDBRANCH  30   4
ENDBRANCH  22  25
ENDBRANCH   9  22
ENDBRANCH  18  20
ENDBRANCH  17  18
ENDBRANCH  11  17
TORSDOF 8
ENDMDL
