MODEL 1
REMARK VINA RESULT:      -7.5      0.000      0.000
REMARK  Name = 25389521
REMARK  9 active torsions:
REMARK  status: ('A' for Active; 'I' for Inactive)
REMARK    1  A    between atoms: O_1  and  C_15
REMARK    2  A    between atoms: O_1  and  C_20
REMARK    3  A    between atoms: N_4  and  C_18
REMARK    4  A    between atoms: N_6  and  C_25
REMARK    5  A    between atoms: C_8  and  C_14
REMARK    6  A    between atoms: C_9  and  C_15
REMARK    7  A    between atoms: C_17  and  C_19
REMARK    8  A    between atoms: C_25  and  C_27
REMARK    9  A    between atoms: C_27  and  C_32
REMARK                            x       y       z     vdW  Elec       q    Type
REMARK                         _______ _______ _______ _____ _____    ______ ____
ROOT
ATOM      3  N   UNL     1      12.274   9.211  19.655  0.00  0.00    -0.296 NA
ATOM      7  C   UNL     1      13.022   7.765  21.688  0.00  0.00    +0.002 C 
ATOM      8  C   UNL     1      14.043   8.906  21.427  0.00  0.00    +0.055 C 
ATOM      9  C   UNL     1      12.238   7.770  19.294  0.00  0.00    +0.095 C 
ATOM     10  C   UNL     1      12.872   6.912  20.410  0.00  0.00    +0.026 C 
ATOM     11  C   UNL     1      11.657   8.441  21.945  0.00  0.00    +0.019 C 
ATOM     12  C   UNL     1      13.641   9.593  20.090  0.00  0.00    +0.094 C 
ATOM     13  C   UNL     1      11.350   9.417  20.796  0.00  0.00    +0.085 C 
ENDROOT
BRANCH   8  14
ATOM      4  N   UNL     1      16.487   9.482  21.797  0.00  0.00    -0.270 N 
ATOM      5  N   UNL     1      17.735   8.985  21.785  0.00  0.00    -0.171 NA
ATOM     14  C   UNL     1      15.526   8.568  21.477  0.00  0.00    +0.044 A 
ATOM     16  C   UNL     1      16.193   7.391  21.240  0.00  0.00    +0.053 A 
ATOM     17  C   UNL     1      17.549   7.707  21.444  0.00  0.00    +0.093 A 
ATOM     18  C   UNL     1      16.285  10.874  22.129  0.00  0.00    +0.172 C 
BRANCH  17  19
ATOM     19  C   UNL     1      18.670   6.813  21.319  0.00  0.00    +0.003 A 
ATOM     21  C   UNL     1      19.655   6.787  22.307  0.00  0.00    +0.018 A 
ATOM     22  C   UNL     1      18.773   5.975  20.212  0.00  0.00    +0.011 A 
ATOM     23  C   UNL     1      20.755   5.920  22.200  0.00  0.00    -0.017 A 
ATOM     24  C   UNL     1      19.858   5.107  20.090  0.00  0.00    +0.009 A 
ATOM     26  C   UNL     1      20.858   5.068  21.075  0.00  0.00    -0.018 A 
ATOM     28  C   UNL     1      21.756   5.881  23.185  0.00  0.00    +0.008 A 
ATOM     29  C   UNL     1      21.958   4.202  20.967  0.00  0.00    +0.008 A 
ATOM     30  C   UNL     1      22.842   5.014  23.063  0.00  0.00    +0.001 A 
ATOM     31  C   UNL     1      22.943   4.176  21.956  0.00  0.00    +0.001 A 
ENDBRANCH  17  19
ENDBRANCH   8  14
BRANCH   9  15
ATOM     15  C   UNL     1      12.876   7.495  17.930  0.00  0.00    +0.252 C 
BRANCH  15   1
ATOM      1  O   UNL     1      12.202   8.270  16.958  0.00  0.00    -0.449 OA
BRANCH   1  20
ATOM      2  O   UNL     1      13.568   8.640  15.149  0.00  0.00    -0.226 OA
ATOM      6  N   UNL     1      13.023  10.349  16.621  0.00  0.00    -0.281 N 
ATOM     20  C   UNL     1      12.988   9.054  16.147  0.00  0.00    +0.400 C 
ATOM     33  H   UNL     1      12.495  10.564  17.461  0.00  0.00    +0.152 HD
BRANCH   6  25
ATOM     25  C   UNL     1      13.766  11.414  15.988  0.00  0.00    +0.107 C 
BRANCH  25  27
ATOM     27  C   UNL     1      15.265  11.300  16.231  0.00  0.00    +0.015 C 
ATOM     32  C   UNL     1      16.063  11.172  14.941  0.00  0.00    +0.005 C 
ENDBRANCH  25  27
ENDBRANCH   6  25
ENDBRANCH   1  20
ENDBRANCH  15   1
ENDBRANCH   9  15
TORSDOF 7
ENDMDL
MODEL 2
REMARK VINA RESULT:      -7.0     26.881     30.063
REMARK  Name = 25389521
REMARK  9 active torsions:
REMARK  status: ('A' for Active; 'I' for Inactive)
REMARK    1  A    between atoms: O_1  and  C_15
REMARK    2  A    between atoms: O_1  and  C_20
REMARK    3  A    between atoms: N_4  and  C_18
REMARK    4  A    between atoms: N_6  and  C_25
REMARK    5  A    between atoms: C_8  and  C_14
REMARK    6  A    between atoms: C_9  and  C_15
REMARK    7  A    between atoms: C_17  and  C_19
REMARK    8  A    between atoms: C_25  and  C_27
REMARK    9  A    between atoms: C_27  and  C_32
REMARK                            x       y       z     vdW  Elec       q    Type
REMARK                         _______ _______ _______ _____ _____    ______ ____
ROOT
ATOM      3  N   UNL     1      -6.474 -10.761  18.127  0.00  0.00    -0.296 NA
ATOM      7  C   UNL     1      -4.314 -12.085  17.526  0.00  0.00    +0.002 C 
ATOM      8  C   UNL     1      -4.327 -10.709  16.805  0.00  0.00    +0.055 C 
ATOM      9  C   UNL     1      -6.827 -12.141  17.701  0.00  0.00    +0.095 C 
ATOM     10  C   UNL     1      -5.586 -12.872  17.146  0.00  0.00    +0.026 C 
ATOM     11  C   UNL     1      -4.396 -11.794  19.041  0.00  0.00    +0.019 C 
ATOM     12  C   UNL     1      -5.725 -10.070  17.048  0.00  0.00    +0.094 C 
ATOM     13  C   UNL     1      -5.591 -10.862  19.313  0.00  0.00    +0.085 C 
ENDROOT
BRANCH   8  14
ATOM      4  N   UNL     1      -2.617 -10.635  14.930  0.00  0.00    -0.270 N 
ATOM      5  N   UNL     1      -2.468 -10.596  13.596  0.00  0.00    -0.171 NA
ATOM     14  C   UNL     1      -3.918 -10.663  15.339  0.00  0.00    +0.044 A 
ATOM     16  C   UNL     1      -4.672 -10.639  14.192  0.00  0.00    +0.053 A 
ATOM     17  C   UNL     1      -3.727 -10.598  13.150  0.00  0.00    +0.093 A 
ATOM     18  C   UNL     1      -1.442 -10.643  15.772  0.00  0.00    +0.172 C 
BRANCH  17  19
ATOM     19  C   UNL     1      -4.003 -10.560  11.738  0.00  0.00    +0.003 A 
ATOM     21  C   UNL     1      -3.896 -11.724  10.975  0.00  0.00    +0.018 A 
ATOM     22  C   UNL     1      -4.375  -9.363  11.132  0.00  0.00    +0.011 A 
ATOM     23  C   UNL     1      -4.162 -11.704   9.596  0.00  0.00    -0.017 A 
ATOM     24  C   UNL     1      -4.644  -9.325   9.764  0.00  0.00    +0.009 A 
ATOM     26  C   UNL     1      -4.542 -10.487   8.981  0.00  0.00    -0.018 A 
ATOM     28  C   UNL     1      -4.060 -12.866   8.813  0.00  0.00    +0.008 A 
ATOM     29  C   UNL     1      -4.807 -10.466   7.603  0.00  0.00    +0.008 A 
ATOM     30  C   UNL     1      -4.328 -12.828   7.445  0.00  0.00    +0.001 A 
ATOM     31  C   UNL     1      -4.701 -11.631   6.841  0.00  0.00    +0.001 A 
ENDBRANCH  17  19
ENDBRANCH   8  14
BRANCH   9  15
ATOM     15  C   UNL     1      -7.995 -12.165  16.713  0.00  0.00    +0.252 C 
BRANCH  15   1
ATOM      1  O   UNL     1      -9.084 -11.473  17.293  0.00  0.00    -0.449 OA
BRANCH   1  20
ATOM      2  O   UNL     1     -10.520 -10.762  15.648  0.00  0.00    -0.226 OA
ATOM      6  N   UNL     1      -9.217  -9.262  16.847  0.00  0.00    -0.281 N 
ATOM     20  C   UNL     1      -9.686 -10.515  16.513  0.00  0.00    +0.400 C 
ATOM     33  H   UNL     1      -8.526  -9.192  17.587  0.00  0.00    +0.152 HD
BRANCH   6  25
ATOM     25  C   UNL     1      -9.657  -8.044  16.205  0.00  0.00    +0.107 C 
BRANCH  25  27
ATOM     27  C   UNL     1     -10.918  -7.476  16.843  0.00  0.00    +0.015 C 
ATOM     32  C   UNL     1     -11.253  -6.078  16.340  0.00  0.00    +0.005 C 
ENDBRANCH  25  27
ENDBRANCH   6  25
ENDBRANCH   1  20
ENDBRANCH  15   1
ENDBRANCH   9  15
TORSDOF 7
ENDMDL
MODEL 3
REMARK VINA RESULT:      -7.0     26.762     30.026
REMARK  Name = 25389521
REMARK  9 active torsions:
REMARK  status: ('A' for Active; 'I' for Inactive)
REMARK    1  A    between atoms: O_1  and  C_15
REMARK    2  A    between atoms: O_1  and  C_20
REMARK    3  A    between atoms: N_4  and  C_18
REMARK    4  A    between atoms: N_6  and  C_25
REMARK    5  A    between atoms: C_8  and  C_14
REMARK    6  A    between atoms: C_9  and  C_15
REMARK    7  A    between atoms: C_17  and  C_19
REMARK    8  A    between atoms: C_25  and  C_27
REMARK    9  A    between atoms: C_27  and  C_32
REMARK                            x       y       z     vdW  Elec       q    Type
REMARK                         _______ _______ _______ _____ _____    ______ ____
ROOT
ATOM      3  N   UNL     1      -6.391 -10.513  17.915  0.00  0.00    -0.296 NA
ATOM      7  C   UNL     1      -4.331 -11.996  17.331  0.00  0.00    +0.002 C 
ATOM      8  C   UNL     1      -4.232 -10.621  16.615  0.00  0.00    +0.055 C 
ATOM      9  C   UNL     1      -6.843 -11.861  17.481  0.00  0.00    +0.095 C 
ATOM     10  C   UNL     1      -5.656 -12.683  16.935  0.00  0.00    +0.026 C 
ATOM     11  C   UNL     1      -4.407 -11.704  18.845  0.00  0.00    +0.019 C 
ATOM     12  C   UNL     1      -5.581  -9.879  16.846  0.00  0.00    +0.094 C 
ATOM     13  C   UNL     1      -5.530 -10.685  19.109  0.00  0.00    +0.085 C 
ENDROOT
BRANCH   8  14
ATOM      4  N   UNL     1      -2.503 -10.518  14.759  0.00  0.00    -0.270 N 
ATOM      5  N   UNL     1      -2.338 -10.514  13.426  0.00  0.00    -0.171 NA
ATOM     14  C   UNL     1      -3.807 -10.601  15.153  0.00  0.00    +0.044 A 
ATOM     16  C   UNL     1      -4.545 -10.656  13.996  0.00  0.00    +0.053 A 
ATOM     17  C   UNL     1      -3.589 -10.599  12.965  0.00  0.00    +0.093 A 
ATOM     18  C   UNL     1      -1.341 -10.434  15.615  0.00  0.00    +0.172 C 
BRANCH  17  19
ATOM     19  C   UNL     1      -3.847 -10.623  11.550  0.00  0.00    +0.003 A 
ATOM     21  C   UNL     1      -4.000 -11.842  10.889  0.00  0.00    +0.018 A 
ATOM     22  C   UNL     1      -3.942  -9.430  10.839  0.00  0.00    +0.011 A 
ATOM     23  C   UNL     1      -4.253 -11.883   9.508  0.00  0.00    -0.017 A 
ATOM     24  C   UNL     1      -4.193  -9.451   9.467  0.00  0.00    +0.009 A 
ATOM     26  C   UNL     1      -4.350 -10.670   8.786  0.00  0.00    -0.018 A 
ATOM     28  C   UNL     1      -4.410 -13.101   8.827  0.00  0.00    +0.008 A 
ATOM     29  C   UNL     1      -4.602 -10.710   7.405  0.00  0.00    +0.008 A 
ATOM     30  C   UNL     1      -4.660 -13.123   7.455  0.00  0.00    +0.001 A 
ATOM     31  C   UNL     1      -4.756 -11.930   6.745  0.00  0.00    +0.001 A 
ENDBRANCH  17  19
ENDBRANCH   8  14
BRANCH   9  15
ATOM     15  C   UNL     1      -7.999 -11.794  16.480  0.00  0.00    +0.252 C 
BRANCH  15   1
ATOM      1  O   UNL     1      -7.611 -12.478  15.304  0.00  0.00    -0.449 OA
BRANCH   1  20
ATOM      2  O   UNL     1      -8.672 -12.783  13.290  0.00  0.00    -0.226 OA
ATOM      6  N   UNL     1      -8.083 -10.667  14.038  0.00  0.00    -0.281 N 
ATOM     20  C   UNL     1      -8.172 -12.040  14.128  0.00  0.00    +0.400 C 
ATOM     33  H   UNL     1      -7.646 -10.165  14.804  0.00  0.00    +0.152 HD
BRANCH   6  25
ATOM     25  C   UNL     1      -8.582  -9.903  12.917  0.00  0.00    +0.107 C 
BRANCH  25  27
ATOM     27  C   UNL     1      -7.481  -9.530  11.933  0.00  0.00    +0.015 C 
ATOM     32  C   UNL     1      -7.654 -10.195  10.575  0.00  0.00    +0.005 C 
ENDBRANCH  25  27
ENDBRANCH   6  25
ENDBRANCH   1  20
ENDBRANCH  15   1
ENDBRANCH   9  15
TORSDOF 7
ENDMDL
MODEL 4
REMARK VINA RESULT:      -6.9     24.564     26.797
REMARK  Name = 25389521
REMARK  9 active torsions:
REMARK  status: ('A' for Active; 'I' for Inactive)
REMARK    1  A    between atoms: O_1  and  C_15
REMARK    2  A    between atoms: O_1  and  C_20
REMARK    3  A    between atoms: N_4  and  C_18
REMARK    4  A    between atoms: N_6  and  C_25
REMARK    5  A    between atoms: C_8  and  C_14
REMARK    6  A    between atoms: C_9  and  C_15
REMARK    7  A    between atoms: C_17  and  C_19
REMARK    8  A    between atoms: C_25  and  C_27
REMARK    9  A    between atoms: C_27  and  C_32
REMARK                            x       y       z     vdW  Elec       q    Type
REMARK                         _______ _______ _______ _____ _____    ______ ____
ROOT
ATOM      3  N   UNL     1      15.225  -6.927  -5.887  0.00  0.00    -0.296 NA
ATOM      7  C   UNL     1      14.453  -5.514  -3.840  0.00  0.00    +0.002 C 
ATOM      8  C   UNL     1      15.916  -5.159  -4.226  0.00  0.00    +0.055 C 
ATOM      9  C   UNL     1      14.627  -7.814  -4.855  0.00  0.00    +0.095 C 
ATOM     10  C   UNL     1      14.354  -7.028  -3.555  0.00  0.00    +0.026 C 
ATOM     11  C   UNL     1      13.584  -5.230  -5.085  0.00  0.00    +0.019 C 
ATOM     12  C   UNL     1      16.369  -6.176  -5.313  0.00  0.00    +0.094 C 
ATOM     13  C   UNL     1      14.191  -5.950  -6.302  0.00  0.00    +0.085 C 
ENDROOT
BRANCH   8  14
ATOM      4  N   UNL     1      17.260  -3.817  -2.543  0.00  0.00    -0.270 N 
ATOM      5  N   UNL     1      18.185  -3.904  -1.572  0.00  0.00    -0.171 NA
ATOM     14  C   UNL     1      16.939  -5.017  -3.108  0.00  0.00    +0.044 A 
ATOM     16  C   UNL     1      17.707  -5.953  -2.461  0.00  0.00    +0.053 A 
ATOM     17  C   UNL     1      18.454  -5.212  -1.527  0.00  0.00    +0.093 A 
ATOM     18  C   UNL     1      16.717  -2.522  -2.886  0.00  0.00    +0.172 C 
BRANCH  17  19
ATOM     19  C   UNL     1      19.421  -5.728  -0.593  0.00  0.00    +0.003 A 
ATOM     21  C   UNL     1      19.928  -4.903   0.412  0.00  0.00    +0.018 A 
ATOM     22  C   UNL     1      19.850  -7.048  -0.692  0.00  0.00    +0.011 A 
ATOM     23  C   UNL     1      20.871  -5.390   1.331  0.00  0.00    -0.017 A 
ATOM     24  C   UNL     1      20.785  -7.550   0.212  0.00  0.00    +0.009 A 
ATOM     26  C   UNL     1      21.307  -6.733   1.230  0.00  0.00    -0.018 A 
ATOM     28  C   UNL     1      21.392  -4.575   2.349  0.00  0.00    +0.008 A 
ATOM     29  C   UNL     1      22.250  -7.221   2.149  0.00  0.00    +0.008 A 
ATOM     30  C   UNL     1      22.329  -5.075   3.254  0.00  0.00    +0.001 A 
ATOM     31  C   UNL     1      22.756  -6.396   3.154  0.00  0.00    +0.001 A 
ENDBRANCH  17  19
ENDBRANCH   8  14
BRANCH   9  15
ATOM     15  C   UNL     1      15.472  -9.064  -4.600  0.00  0.00    +0.252 C 
BRANCH  15   1
ATOM      1  O   UNL     1      15.921  -9.033  -3.259  0.00  0.00    -0.449 OA
BRANCH   1  20
ATOM      2  O   UNL     1      18.107  -9.390  -3.866  0.00  0.00    -0.226 OA
ATOM      6  N   UNL     1      17.330  -9.960  -1.755  0.00  0.00    -0.281 N 
ATOM     20  C   UNL     1      17.209  -9.457  -3.034  0.00  0.00    +0.400 C 
ATOM     33  H   UNL     1      16.508  -9.957  -1.161  0.00  0.00    +0.152 HD
BRANCH   6  25
ATOM     25  C   UNL     1      18.562 -10.486  -1.215  0.00  0.00    +0.107 C 
BRANCH  25  27
ATOM     27  C   UNL     1      18.351 -11.218   0.104  0.00  0.00    +0.015 C 
ATOM     32  C   UNL     1      18.625 -10.339   1.316  0.00  0.00    +0.005 C 
ENDBRANCH  25  27
ENDBRANCH   6  25
ENDBRANCH   1  20
ENDBRANCH  15   1
ENDBRANCH   9  15
TORSDOF 7
ENDMDL
MODEL 5
REMARK VINA RESULT:      -6.8     29.467     33.210
REMARK  Name = 25389521
REMARK  9 active torsions:
REMARK  status: ('A' for Active; 'I' for Inactive)
REMARK    1  A    between atoms: O_1  and  C_15
REMARK    2  A    between atoms: O_1  and  C_20
REMARK    3  A    between atoms: N_4  and  C_18
REMARK    4  A    between atoms: N_6  and  C_25
REMARK    5  A    between atoms: C_8  and  C_14
REMARK    6  A    between atoms: C_9  and  C_15
REMARK    7  A    between atoms: C_17  and  C_19
REMARK    8  A    between atoms: C_25  and  C_27
REMARK    9  A    between atoms: C_27  and  C_32
REMARK                            x       y       z     vdW  Elec       q    Type
REMARK                         _______ _______ _______ _____ _____    ______ ____
ROOT
ATOM      3  N   UNL     1      -6.109 -11.772  17.141  0.00  0.00    -0.296 NA
ATOM      7  C   UNL     1      -6.344 -11.639  19.732  0.00  0.00    +0.002 C 
ATOM      8  C   UNL     1      -7.447 -12.554  19.131  0.00  0.00    +0.055 C 
ATOM      9  C   UNL     1      -6.086 -10.352  17.581  0.00  0.00    +0.095 C 
ATOM     10  C   UNL     1      -6.431 -10.241  19.082  0.00  0.00    +0.026 C 
ATOM     11  C   UNL     1      -4.987 -12.249  19.317  0.00  0.00    +0.019 C 
ATOM     12  C   UNL     1      -7.368 -12.422  17.583  0.00  0.00    +0.094 C 
ATOM     13  C   UNL     1      -4.974 -12.468  17.794  0.00  0.00    +0.085 C 
ENDROOT
BRANCH   8  14
ATOM      4  N   UNL     1      -9.483 -13.336  20.429  0.00  0.00    -0.270 N 
ATOM      5  N   UNL     1     -10.738 -13.012  20.783  0.00  0.00    -0.171 NA
ATOM     14  C   UNL     1      -8.870 -12.399  19.650  0.00  0.00    +0.044 A 
ATOM     16  C   UNL     1      -9.788 -11.391  19.484  0.00  0.00    +0.053 A 
ATOM     17  C   UNL     1     -10.918 -11.822  20.203  0.00  0.00    +0.093 A 
ATOM     18  C   UNL     1      -8.924 -14.590  20.881  0.00  0.00    +0.172 C 
BRANCH  17  19
ATOM     19  C   UNL     1     -12.167 -11.122  20.345  0.00  0.00    +0.003 A 
ATOM     21  C   UNL     1     -13.142 -11.604  21.219  0.00  0.00    +0.018 A 
ATOM     22  C   UNL     1     -12.404  -9.963  19.610  0.00  0.00    +0.011 A 
ATOM     23  C   UNL     1     -14.366 -10.932  21.370  0.00  0.00    -0.017 A 
ATOM     24  C   UNL     1     -13.613  -9.282  19.748  0.00  0.00    +0.009 A 
ATOM     26  C   UNL     1     -14.606  -9.754  20.624  0.00  0.00    -0.018 A 
ATOM     28  C   UNL     1     -15.358 -11.403  22.246  0.00  0.00    +0.008 A 
ATOM     29  C   UNL     1     -15.829  -9.082  20.773  0.00  0.00    +0.008 A 
ATOM     30  C   UNL     1     -16.568 -10.723  22.383  0.00  0.00    +0.001 A 
ATOM     31  C   UNL     1     -16.803  -9.565  21.649  0.00  0.00    +0.001 A 
ENDBRANCH  17  19
ENDBRANCH   8  14
BRANCH   9  15
ATOM     15  C   UNL     1      -6.986  -9.461  16.721  0.00  0.00    +0.252 C 
BRANCH  15   1
ATOM      1  O   UNL     1      -8.047  -8.988  17.528  0.00  0.00    -0.449 OA
BRANCH   1  20
ATOM      2  O   UNL     1      -9.742  -9.562  16.089  0.00  0.00    -0.226 OA
ATOM      6  N   UNL     1      -9.809  -7.590  17.310  0.00  0.00    -0.281 N 
ATOM     20  C   UNL     1      -9.251  -8.783  16.899  0.00  0.00    +0.400 C 
ATOM     33  H   UNL     1      -9.301  -7.035  17.991  0.00  0.00    +0.152 HD
BRANCH   6  25
ATOM     25  C   UNL     1     -11.076  -7.090  16.829  0.00  0.00    +0.107 C 
BRANCH  25  27
ATOM     27  C   UNL     1     -10.912  -6.117  15.667  0.00  0.00    +0.015 C 
ATOM     32  C   UNL     1     -12.230  -5.805  14.971  0.00  0.00    +0.005 C 
ENDBRANCH  25  27
ENDBRANCH   6  25
ENDBRANCH   1  20
ENDBRANCH  15   1
ENDBRANCH   9  15
TORSDOF 7
ENDMDL
MODEL 6
REMARK VINA RESULT:      -6.7      5.029      7.661
REMARK  Name = 25389521
REMARK  9 active torsions:
REMARK  status: ('A' for Active; 'I' for Inactive)
REMARK    1  A    between atoms: O_1  and  C_15
REMARK    2  A    between atoms: O_1  and  C_20
REMARK    3  A    between atoms: N_4  and  C_18
REMARK    4  A    between atoms: N_6  and  C_25
REMARK    5  A    between atoms: C_8  and  C_14
REMARK    6  A    between atoms: C_9  and  C_15
REMARK    7  A    between atoms: C_17  and  C_19
REMARK    8  A    between atoms: C_25  and  C_27
REMARK    9  A    between atoms: C_27  and  C_32
REMARK                            x       y       z     vdW  Elec       q    Type
REMARK                         _______ _______ _______ _____ _____    ______ ____
ROOT
ATOM      3  N   UNL     1      11.436  12.617  24.423  0.00  0.00    -0.296 NA
ATOM      7  C   UNL     1      11.887  12.387  21.869  0.00  0.00    +0.002 C 
ATOM      8  C   UNL     1      11.526  11.007  22.484  0.00  0.00    +0.055 C 
ATOM      9  C   UNL     1      12.722  13.275  24.074  0.00  0.00    +0.095 C 
ATOM     10  C   UNL     1      13.109  12.972  22.611  0.00  0.00    +0.026 C 
ATOM     11  C   UNL     1      10.694  13.326  22.150  0.00  0.00    +0.019 C 
ATOM     12  C   UNL     1      11.471  11.187  24.029  0.00  0.00    +0.094 C 
ATOM     13  C   UNL     1      10.360  13.284  23.652  0.00  0.00    +0.085 C 
ENDROOT
BRANCH   8  14
ATOM      4  N   UNL     1      11.853   8.531  22.033  0.00  0.00    -0.270 N 
ATOM      5  N   UNL     1      12.746   7.605  21.646  0.00  0.00    -0.171 NA
ATOM     14  C   UNL     1      12.356   9.798  22.074  0.00  0.00    +0.044 A 
ATOM     16  C   UNL     1      13.669   9.693  21.687  0.00  0.00    +0.053 A 
ATOM     17  C   UNL     1      13.854   8.321  21.436  0.00  0.00    +0.093 A 
ATOM     18  C   UNL     1      10.506   8.120  22.358  0.00  0.00    +0.172 C 
BRANCH  17  19
ATOM     19  C   UNL     1      15.067   7.680  21.001  0.00  0.00    +0.003 A 
ATOM     21  C   UNL     1      16.282   8.006  21.605  0.00  0.00    +0.018 A 
ATOM     22  C   UNL     1      15.029   6.738  19.977  0.00  0.00    +0.011 A 
ATOM     23  C   UNL     1      17.475   7.389  21.193  0.00  0.00    -0.017 A 
ATOM     24  C   UNL     1      16.204   6.115  19.556  0.00  0.00    +0.009 A 
ATOM     26  C   UNL     1      17.436   6.430  20.153  0.00  0.00    -0.018 A 
ATOM     28  C   UNL     1      18.707   7.704  21.790  0.00  0.00    +0.008 A 
ATOM     29  C   UNL     1      18.628   5.814  19.740  0.00  0.00    +0.008 A 
ATOM     30  C   UNL     1      19.882   7.083  21.368  0.00  0.00    +0.001 A 
ATOM     31  C   UNL     1      19.843   6.139  20.345  0.00  0.00    +0.001 A 
ENDBRANCH  17  19
ENDBRANCH   8  14
BRANCH   9  15
ATOM     15  C   UNL     1      13.846  12.911  25.048  0.00  0.00    +0.252 C 
BRANCH  15   1
ATOM      1  O   UNL     1      13.314  12.907  26.359  0.00  0.00    -0.449 OA
BRANCH   1  20
ATOM      2  O   UNL     1      14.686  14.596  27.096  0.00  0.00    -0.226 OA
ATOM      6  N   UNL     1      13.928  12.940  28.534  0.00  0.00    -0.281 N 
ATOM     20  C   UNL     1      14.039  13.577  27.316  0.00  0.00    +0.400 C 
ATOM     33  H   UNL     1      13.357  12.102  28.584  0.00  0.00    +0.152 HD
BRANCH   6  25
ATOM     25  C   UNL     1      14.576  13.399  29.741  0.00  0.00    +0.107 C 
BRANCH  25  27
ATOM     27  C   UNL     1      14.464  12.392  30.878  0.00  0.00    +0.015 C 
ATOM     32  C   UNL     1      13.170  12.536  31.667  0.00  0.00    +0.005 C 
ENDBRANCH  25  27
ENDBRANCH   6  25
ENDBRANCH   1  20
ENDBRANCH  15   1
ENDBRANCH   9  15
TORSDOF 7
ENDMDL
MODEL 7
REMARK VINA RESULT:      -6.7     28.159     31.137
REMARK  Name = 25389521
REMARK  9 active torsions:
REMARK  status: ('A' for Active; 'I' for Inactive)
REMARK    1  A    between atoms: O_1  and  C_15
REMARK    2  A    between atoms: O_1  and  C_20
REMARK    3  A    between atoms: N_4  and  C_18
REMARK    4  A    between atoms: N_6  and  C_25
REMARK    5  A    between atoms: C_8  and  C_14
REMARK    6  A    between atoms: C_9  and  C_15
REMARK    7  A    between atoms: C_17  and  C_19
REMARK    8  A    between atoms: C_25  and  C_27
REMARK    9  A    between atoms: C_27  and  C_32
REMARK                            x       y       z     vdW  Elec       q    Type
REMARK                         _______ _______ _______ _____ _____    ______ ____
ROOT
ATOM      3  N   UNL     1      -5.341 -12.791  17.152  0.00  0.00    -0.296 NA
ATOM      7  C   UNL     1      -5.630 -10.604  18.536  0.00  0.00    +0.002 C 
ATOM      8  C   UNL     1      -6.994 -11.328  18.371  0.00  0.00    +0.055 C 
ATOM      9  C   UNL     1      -4.695 -11.654  16.445  0.00  0.00    +0.095 C 
ATOM     10  C   UNL     1      -5.032 -10.318  17.142  0.00  0.00    +0.026 C 
ATOM     11  C   UNL     1      -4.682 -11.599  19.241  0.00  0.00    +0.019 C 
ATOM     12  C   UNL     1      -6.780 -12.502  17.373  0.00  0.00    +0.094 C 
ATOM     13  C   UNL     1      -4.688 -12.934  18.475  0.00  0.00    +0.085 C 
ENDROOT
BRANCH   8  14
ATOM      4  N   UNL     1      -9.367 -10.509  18.748  0.00  0.00    -0.270 N 
ATOM      5  N   UNL     1     -10.326  -9.697  18.273  0.00  0.00    -0.171 NA
ATOM     14  C   UNL     1      -8.214 -10.488  18.019  0.00  0.00    +0.044 A 
ATOM     16  C   UNL     1      -8.436  -9.601  16.994  0.00  0.00    +0.053 A 
ATOM     17  C   UNL     1      -9.751  -9.145  17.201  0.00  0.00    +0.093 A 
ATOM     18  C   UNL     1      -9.632 -11.295  19.932  0.00  0.00    +0.172 C 
BRANCH  17  19
ATOM     19  C   UNL     1     -10.469  -8.194  16.394  0.00  0.00    +0.003 A 
ATOM     21  C   UNL     1     -10.927  -8.559  15.127  0.00  0.00    +0.018 A 
ATOM     22  C   UNL     1     -10.707  -6.910  16.876  0.00  0.00    +0.011 A 
ATOM     23  C   UNL     1     -11.630  -7.643  14.328  0.00  0.00    -0.017 A 
ATOM     24  C   UNL     1     -11.404  -5.987  16.097  0.00  0.00    +0.009 A 
ATOM     26  C   UNL     1     -11.873  -6.338  14.819  0.00  0.00    -0.018 A 
ATOM     28  C   UNL     1     -12.098  -7.994  13.051  0.00  0.00    +0.008 A 
ATOM     29  C   UNL     1     -12.575  -5.422  14.020  0.00  0.00    +0.008 A 
ATOM     30  C   UNL     1     -12.795  -7.071  12.270  0.00  0.00    +0.001 A 
ATOM     31  C   UNL     1     -13.033  -5.788  12.753  0.00  0.00    +0.001 A 
ENDBRANCH  17  19
ENDBRANCH   8  14
BRANCH   9  15
ATOM     15  C   UNL     1      -5.040 -11.623  14.954  0.00  0.00    +0.252 C 
BRANCH  15   1
ATOM      1  O   UNL     1      -4.141 -10.744  14.307  0.00  0.00    -0.449 OA
BRANCH   1  20
ATOM      2  O   UNL     1      -5.405  -9.968  12.553  0.00  0.00    -0.226 OA
ATOM      6  N   UNL     1      -3.314 -10.915  12.210  0.00  0.00    -0.281 N 
ATOM     20  C   UNL     1      -4.380 -10.493  12.977  0.00  0.00    +0.400 C 
ATOM     33  H   UNL     1      -2.521 -11.334  12.686  0.00  0.00    +0.152 HD
BRANCH   6  25
ATOM     25  C   UNL     1      -3.262 -10.791  10.772  0.00  0.00    +0.107 C 
BRANCH  25  27
ATOM     27  C   UNL     1      -2.999  -9.359  10.323  0.00  0.00    +0.015 C 
ATOM     32  C   UNL     1      -4.013  -8.868   9.299  0.00  0.00    +0.005 C 
ENDBRANCH  25  27
ENDBRANCH   6  25
ENDBRANCH   1  20
ENDBRANCH  15   1
ENDBRANCH   9  15
TORSDOF 7
ENDMDL
MODEL 8
REMARK VINA RESULT:      -6.7     13.602     15.515
REMARK  Name = 25389521
REMARK  9 active torsions:
REMARK  status: ('A' for Active; 'I' for Inactive)
REMARK    1  A    between atoms: O_1  and  C_15
REMARK    2  A    between atoms: O_1  and  C_20
REMARK    3  A    between atoms: N_4  and  C_18
REMARK    4  A    between atoms: N_6  and  C_25
REMARK    5  A    between atoms: C_8  and  C_14
REMARK    6  A    between atoms: C_9  and  C_15
REMARK    7  A    between atoms: C_17  and  C_19
REMARK    8  A    between atoms: C_25  and  C_27
REMARK    9  A    between atoms: C_27  and  C_32
REMARK                            x       y       z     vdW  Elec       q    Type
REMARK                         _______ _______ _______ _____ _____    ______ ____
ROOT
ATOM      3  N   UNL     1       9.329   7.197   5.384  0.00  0.00    -0.296 NA
ATOM      7  C   UNL     1      10.550   7.755   7.616  0.00  0.00    +0.002 C 
ATOM      8  C   UNL     1      11.037   8.695   6.479  0.00  0.00    +0.055 C 
ATOM      9  C   UNL     1       9.877   5.954   5.987  0.00  0.00    +0.095 C 
ATOM     10  C   UNL     1      10.777   6.287   7.196  0.00  0.00    +0.026 C 
ATOM     11  C   UNL     1       9.024   7.960   7.738  0.00  0.00    +0.019 C 
ATOM     12  C   UNL     1      10.422   8.173   5.148  0.00  0.00    +0.094 C 
ATOM     13  C   UNL     1       8.377   7.791   6.352  0.00  0.00    +0.085 C 
ENDROOT
BRANCH   8  14
ATOM      4  N   UNL     1      13.151  10.017   6.957  0.00  0.00    -0.270 N 
ATOM      5  N   UNL     1      14.473  10.074   6.729  0.00  0.00    -0.171 NA
ATOM     14  C   UNL     1      12.532   8.959   6.358  0.00  0.00    +0.044 A 
ATOM     16  C   UNL     1      13.519   8.278   5.690  0.00  0.00    +0.053 A 
ATOM     17  C   UNL     1      14.692   9.008   5.954  0.00  0.00    +0.093 A 
ATOM     18  C   UNL     1      12.532  11.035   7.777  0.00  0.00    +0.172 C 
BRANCH  17  19
ATOM     19  C   UNL     1      16.018   8.710   5.479  0.00  0.00    +0.003 A 
ATOM     21  C   UNL     1      17.102   8.771   6.355  0.00  0.00    +0.018 A 
ATOM     22  C   UNL     1      16.219   8.362   4.146  0.00  0.00    +0.011 A 
ATOM     23  C   UNL     1      18.402   8.482   5.909  0.00  0.00    -0.017 A 
ATOM     24  C   UNL     1      17.503   8.071   3.685  0.00  0.00    +0.009 A 
ATOM     26  C   UNL     1      18.606   8.127   4.553  0.00  0.00    -0.018 A 
ATOM     28  C   UNL     1      19.505   8.538   6.776  0.00  0.00    +0.008 A 
ATOM     29  C   UNL     1      19.905   7.839   4.106  0.00  0.00    +0.008 A 
ATOM     30  C   UNL     1      20.789   8.248   6.315  0.00  0.00    +0.001 A 
ATOM     31  C   UNL     1      20.989   7.899   4.983  0.00  0.00    +0.001 A 
ENDBRANCH  17  19
ENDBRANCH   8  14
BRANCH   9  15
ATOM     15  C   UNL     1      10.599   5.077   4.962  0.00  0.00    +0.252 C 
BRANCH  15   1
ATOM      1  O   UNL     1       9.860   5.100   3.756  0.00  0.00    -0.449 OA
BRANCH   1  20
ATOM      2  O   UNL     1      10.098   5.336   1.484  0.00  0.00    -0.226 OA
ATOM      6  N   UNL     1      11.925   4.924   2.855  0.00  0.00    -0.281 N 
ATOM     20  C   UNL     1      10.588   5.139   2.591  0.00  0.00    +0.400 C 
ATOM     33  H   UNL     1      12.203   4.775   3.820  0.00  0.00    +0.152 HD
BRANCH   6  25
ATOM     25  C   UNL     1      12.949   4.904   1.836  0.00  0.00    +0.107 C 
BRANCH  25  27
ATOM     27  C   UNL     1      13.524   3.509   1.620  0.00  0.00    +0.015 C 
ATOM     32  C   UNL     1      15.046   3.499   1.581  0.00  0.00    +0.005 C 
ENDBRANCH  25  27
ENDBRANCH   6  25
ENDBRANCH   1  20
ENDBRANCH  15   1
ENDBRANCH   9  15
TORSDOF 7
ENDMDL
MODEL 9
REMARK VINA RESULT:      -6.6      2.605      4.055
REMARK  Name = 25389521
REMARK  9 active torsions:
REMARK  status: ('A' for Active; 'I' for Inactive)
REMARK    1  A    between atoms: O_1  and  C_15
REMARK    2  A    between atoms: O_1  and  C_20
REMARK    3  A    between atoms: N_4  and  C_18
REMARK    4  A    between atoms: N_6  and  C_25
REMARK    5  A    between atoms: C_8  and  C_14
REMARK    6  A    between atoms: C_9  and  C_15
REMARK    7  A    between atoms: C_17  and  C_19
REMARK    8  A    between atoms: C_25  and  C_27
REMARK    9  A    between atoms: C_27  and  C_32
REMARK                            x       y       z     vdW  Elec       q    Type
REMARK                         _______ _______ _______ _____ _____    ______ ____
ROOT
ATOM      3  N   UNL     1      11.645  11.710  21.466  0.00  0.00    -0.296 NA
ATOM      7  C   UNL     1      13.214  12.535  23.374  0.00  0.00    +0.002 C 
ATOM      8  C   UNL     1      13.986  12.463  22.028  0.00  0.00    +0.055 C 
ATOM      9  C   UNL     1      11.544  10.799  22.636  0.00  0.00    +0.095 C 
ATOM     10  C   UNL     1      12.613  11.149  23.693  0.00  0.00    +0.026 C 
ATOM     11  C   UNL     1      12.030  13.503  23.155  0.00  0.00    +0.019 C 
ATOM     12  C   UNL     1      13.050  11.776  20.992  0.00  0.00    +0.094 C 
ATOM     13  C   UNL     1      11.241  13.065  21.908  0.00  0.00    +0.085 C 
ENDROOT
BRANCH   8  14
ATOM      4  N   UNL     1      16.495  12.558  22.400  0.00  0.00    -0.270 N 
ATOM      5  N   UNL     1      17.631  11.844  22.336  0.00  0.00    -0.171 NA
ATOM     14  C   UNL     1      15.383  11.858  22.033  0.00  0.00    +0.044 A 
ATOM     16  C   UNL     1      15.824  10.599  21.707  0.00  0.00    +0.053 A 
ATOM     17  C   UNL     1      17.215  10.648  21.912  0.00  0.00    +0.093 A 
ATOM     18  C   UNL     1      16.551  13.937  22.828  0.00  0.00    +0.172 C 
BRANCH  17  19
ATOM     19  C   UNL     1      18.154   9.576  21.710  0.00  0.00    +0.003 A 
ATOM     21  C   UNL     1      17.744   8.399  21.082  0.00  0.00    +0.018 A 
ATOM     22  C   UNL     1      19.470   9.712  22.142  0.00  0.00    +0.011 A 
ATOM     23  C   UNL     1      18.647   7.344  20.877  0.00  0.00    -0.017 A 
ATOM     24  C   UNL     1      20.381   8.675  21.946  0.00  0.00    +0.009 A 
ATOM     26  C   UNL     1      19.986   7.483  21.315  0.00  0.00    -0.018 A 
ATOM     28  C   UNL     1      18.252   6.153  20.246  0.00  0.00    +0.008 A 
ATOM     29  C   UNL     1      20.890   6.428  21.111  0.00  0.00    +0.008 A 
ATOM     30  C   UNL     1      19.163   5.114  20.050  0.00  0.00    +0.001 A 
ATOM     31  C   UNL     1      20.479   5.252  20.481  0.00  0.00    +0.001 A 
ENDBRANCH  17  19
ENDBRANCH   8  14
BRANCH   9  15
ATOM     15  C   UNL     1      11.602   9.323  22.233  0.00  0.00    +0.252 C 
BRANCH  15   1
ATOM      1  O   UNL     1      10.590   9.083  21.274  0.00  0.00    -0.449 OA
BRANCH   1  20
ATOM      2  O   UNL     1      10.350   8.453  19.078  0.00  0.00    -0.226 OA
ATOM      6  N   UNL     1      12.130   7.702  20.364  0.00  0.00    -0.281 N 
ATOM     20  C   UNL     1      10.970   8.412  20.136  0.00  0.00    +0.400 C 
ATOM     33  H   UNL     1      12.548   7.754  21.288  0.00  0.00    +0.152 HD
BRANCH   6  25
ATOM     25  C   UNL     1      12.784   6.892  19.363  0.00  0.00    +0.107 C 
BRANCH  25  27
ATOM     27  C   UNL     1      13.762   7.695  18.514  0.00  0.00    +0.015 C 
ATOM     32  C   UNL     1      15.214   7.326  18.781  0.00  0.00    +0.005 C 
ENDBRANCH  25  27
ENDBRANCH   6  25
ENDBRANCH   1  20
ENDBRANCH  15   1
ENDBRANCH   9  15
TORSDOF 7
ENDMDL
MODEL 10
REMARK VINA RESULT:      -6.6     27.332     30.323
REMARK  Name = 25389521
REMARK  9 active torsions:
REMARK  status: ('A' for Active; 'I' for Inactive)
REMARK    1  A    between atoms: O_1  and  C_15
REMARK    2  A    between atoms: O_1  and  C_20
REMARK    3  A    between atoms: N_4  and  C_18
REMARK    4  A    between atoms: N_6  and  C_25
REMARK    5  A    between atoms: C_8  and  C_14
REMARK    6  A    between atoms: C_9  and  C_15
REMARK    7  A    between atoms: C_17  and  C_19
REMARK    8  A    between atoms: C_25  and  C_27
REMARK    9  A    between atoms: C_27  and  C_32
REMARK                            x       y       z     vdW  Elec       q    Type
REMARK                         _______ _______ _______ _____ _____    ______ ____
ROOT
ATOM      3  N   UNL     1      -5.864 -10.771   9.192  0.00  0.00    -0.296 NA
ATOM      7  C   UNL     1      -4.588  -8.930  10.521  0.00  0.00    +0.002 C 
ATOM      8  C   UNL     1      -4.225 -10.341  11.060  0.00  0.00    +0.055 C 
ATOM      9  C   UNL     1      -6.813  -9.719   9.640  0.00  0.00    +0.095 C 
ATOM     10  C   UNL     1      -6.117  -8.731  10.601  0.00  0.00    +0.026 C 
ATOM     11  C   UNL     1      -4.206  -8.916   9.024  0.00  0.00    +0.019 C 
ATOM     12  C   UNL     1      -5.169 -11.363  10.363  0.00  0.00    +0.094 C 
ATOM     13  C   UNL     1      -4.847 -10.128   8.326  0.00  0.00    +0.085 C 
ENDROOT
BRANCH   8  14
ATOM      4  N   UNL     1      -3.013 -10.504  13.285  0.00  0.00    -0.270 N 
ATOM      5  N   UNL     1      -3.180 -10.704  14.602  0.00  0.00    -0.171 NA
ATOM     14  C   UNL     1      -4.174 -10.541  12.569  0.00  0.00    +0.044 A 
ATOM     16  C   UNL     1      -5.170 -10.783  13.483  0.00  0.00    +0.053 A 
ATOM     17  C   UNL     1      -4.500 -10.873  14.718  0.00  0.00    +0.093 A 
ATOM     18  C   UNL     1      -1.681 -10.281  12.769  0.00  0.00    +0.172 C 
BRANCH  17  19
ATOM     19  C   UNL     1      -5.096 -11.120  16.004  0.00  0.00    +0.003 A 
ATOM     21  C   UNL     1      -6.151 -12.027  16.122  0.00  0.00    +0.018 A 
ATOM     22  C   UNL     1      -4.622 -10.455  17.131  0.00  0.00    +0.011 A 
ATOM     23  C   UNL     1      -6.743 -12.280  17.370  0.00  0.00    -0.017 A 
ATOM     24  C   UNL     1      -5.198 -10.694  18.379  0.00  0.00    +0.009 A 
ATOM     26  C   UNL     1      -6.260 -11.604  18.515  0.00  0.00    -0.018 A 
ATOM     28  C   UNL     1      -7.805 -13.189  17.506  0.00  0.00    +0.008 A 
ATOM     29  C   UNL     1      -6.852 -11.855  19.763  0.00  0.00    +0.008 A 
ATOM     30  C   UNL     1      -8.382 -13.428  18.754  0.00  0.00    +0.001 A 
ATOM     31  C   UNL     1      -7.906 -12.763  19.880  0.00  0.00    +0.001 A 
ENDBRANCH  17  19
ENDBRANCH   8  14
BRANCH   9  15
ATOM     15  C   UNL     1      -8.088 -10.306  10.250  0.00  0.00    +0.252 C 
BRANCH  15   1
ATOM      1  O   UNL     1      -8.638  -9.351  11.136  0.00  0.00    -0.449 OA
BRANCH   1  20
ATOM      2  O   UNL     1     -10.477 -10.204  12.218  0.00  0.00    -0.226 OA
ATOM      6  N   UNL     1      -8.467  -9.873  13.329  0.00  0.00    -0.281 N 
ATOM     20  C   UNL     1      -9.304  -9.845  12.233  0.00  0.00    +0.400 C 
ATOM     33  H   UNL     1      -7.512  -9.549  13.208  0.00  0.00    +0.152 HD
BRANCH   6  25
ATOM     25  C   UNL     1      -8.871 -10.339  14.635  0.00  0.00    +0.107 C 
BRANCH  25  27
ATOM     27  C   UNL     1      -9.267  -9.197  15.562  0.00  0.00    +0.015 C 
ATOM     32  C   UNL     1      -8.297  -9.016  16.721  0.00  0.00    +0.005 C 
ENDBRANCH  25  27
ENDBRANCH   6  25
ENDBRANCH   1  20
ENDBRANCH  15   1
ENDBRANCH   9  15
TORSDOF 7
ENDMDL
