MODEL 1
REMARK VINA RESULT:      -6.7      0.000      0.000
REMARK  Name = 51136676
REMARK  11 active torsions:
REMARK  status: ('A' for Active; 'I' for Inactive)
REMARK    1  A    between atoms: S_1  and  N_7
REMARK    2  A    between atoms: S_1  and  C_17
REMARK    3  A    between atoms: O_4  and  C_18
REMARK    4  A    between atoms: O_6  and  C_28
REMARK    5  A    between atoms: O_6  and  C_29
REMARK    6  A    between atoms: C_9  and  C_14
REMARK    7  A    between atoms: C_10  and  C_15
REMARK    8  A    between atoms: C_14  and  C_16
REMARK    9  A    between atoms: C_15  and  C_18
REMARK   10  A    between atoms: C_17  and  C_20
REMARK   11  A    between atoms: C_20  and  C_25
REMARK                            x       y       z     vdW  Elec       q    Type
REMARK                         _______ _______ _______ _____ _____    ______ ____
ROOT
ATOM      7  N   UNL     1      13.409   8.784  17.214  0.00  0.00    -0.181 NA
ATOM      9  C   UNL     1      13.955   8.976  19.631  0.00  0.00    +0.014 C 
ATOM     10  C   UNL     1      12.669   8.180  19.962  0.00  0.00    +0.006 C 
ATOM     11  C   UNL     1      13.772   9.734  18.307  0.00  0.00    +0.113 C 
ATOM     12  C   UNL     1      12.248   7.281  18.789  0.00  0.00    +0.021 C 
ATOM     13  C   UNL     1      12.128   8.075  17.492  0.00  0.00    +0.109 C 
ENDROOT
BRANCH   7   1
ATOM      1  S   UNL     1      13.577   9.398  15.623  0.00  0.00    +0.032 S 
ATOM      2  O   UNL     1      12.292   9.893  15.180  0.00  0.00    -0.158 OA
ATOM      3  O   UNL     1      14.341   8.453  14.840  0.00  0.00    -0.158 OA
BRANCH   1  17
ATOM     17  C   UNL     1      14.615  10.795  15.967  0.00  0.00    +0.185 C 
BRANCH  17  20
ATOM     20  C   UNL     1      14.296  11.961  15.046  0.00  0.00    +0.021 C 
ATOM     25  C   UNL     1      15.055  11.856  13.735  0.00  0.00    +0.005 C 
ENDBRANCH  17  20
ENDBRANCH   1  17
ENDBRANCH   7   1
BRANCH   9  14
ATOM     14  C   UNL     1      15.227   8.120  19.590  0.00  0.00    +0.060 C 
BRANCH  14  16
ATOM      8  N   UNL     1      16.013   9.847  21.063  0.00  0.00    -0.287 NA
ATOM     16  C   UNL     1      16.264   8.700  20.522  0.00  0.00    +0.044 C 
ATOM     19  C   UNL     1      17.514   7.937  20.766  0.00  0.00    -0.001 A 
ATOM     21  C   UNL     1      18.594   8.650  21.302  0.00  0.00    -0.033 A 
ATOM     22  C   UNL     1      16.992  10.382  22.015  0.00  0.00    +0.146 C 
ATOM     23  C   UNL     1      18.426  10.115  21.577  0.00  0.00    +0.059 C 
ATOM     24  C   UNL     1      17.640   6.578  20.470  0.00  0.00    +0.013 A 
ATOM     26  C   UNL     1      19.812   7.998  21.517  0.00  0.00    +0.050 A 
ATOM     27  C   UNL     1      18.854   5.934  20.704  0.00  0.00    +0.046 A 
ATOM     28  C   UNL     1      19.939   6.641  21.223  0.00  0.00    +0.120 A 
BRANCH  28   6
ATOM      6  O   UNL     1      21.124   6.006  21.440  0.00  0.00    -0.495 OA
ATOM     29  C   UNL     1      21.534   5.050  20.464  0.00  0.00    +0.277 C 
ENDBRANCH  28   6
ENDBRANCH  14  16
ENDBRANCH   9  14
BRANCH  10  15
ATOM     15  C   UNL     1      12.781   7.366  21.252  0.00  0.00    +0.124 C 
BRANCH  15  18
ATOM      5  O   UNL     1      10.418   7.221  21.830  0.00  0.00    -0.251 OA
ATOM     18  C   UNL     1      11.486   6.680  21.589  0.00  0.00    +0.305 C 
BRANCH  18   4
ATOM      4  O   UNL     1      11.668   5.334  21.589  0.00  0.00    -0.481 OA
ATOM     30  H   UNL     1      10.937   4.866  21.131  0.00  0.00    +0.295 HD
ENDBRANCH  18   4
ENDBRANCH  15  18
ENDBRANCH  10  15
TORSDOF 9
ENDMDL
MODEL 2
REMARK VINA RESULT:      -6.5     12.325     16.325
REMARK  Name = 51136676
REMARK  11 active torsions:
REMARK  status: ('A' for Active; 'I' for Inactive)
REMARK    1  A    between atoms: S_1  and  N_7
REMARK    2  A    between atoms: S_1  and  C_17
REMARK    3  A    between atoms: O_4  and  C_18
REMARK    4  A    between atoms: O_6  and  C_28
REMARK    5  A    between atoms: O_6  and  C_29
REMARK    6  A    between atoms: C_9  and  C_14
REMARK    7  A    between atoms: C_10  and  C_15
REMARK    8  A    between atoms: C_14  and  C_16
REMARK    9  A    between atoms: C_15  and  C_18
REMARK   10  A    between atoms: C_17  and  C_20
REMARK   11  A    between atoms: C_20  and  C_25
REMARK                            x       y       z     vdW  Elec       q    Type
REMARK                         _______ _______ _______ _____ _____    ______ ____
ROOT
ATOM      7  N   UNL     1      10.238   8.546   6.497  0.00  0.00    -0.181 NA
ATOM      9  C   UNL     1      10.421   6.081   6.743  0.00  0.00    +0.014 C 
ATOM     10  C   UNL     1       9.932   6.212   8.206  0.00  0.00    +0.006 C 
ATOM     11  C   UNL     1      11.139   7.370   6.315  0.00  0.00    +0.113 C 
ATOM     12  C   UNL     1       9.090   7.482   8.403  0.00  0.00    +0.021 C 
ATOM     13  C   UNL     1       9.831   8.725   7.919  0.00  0.00    +0.109 C 
ENDROOT
BRANCH   7   1
ATOM      1  S   UNL     1      10.728   9.977   5.690  0.00  0.00    +0.032 S 
ATOM      2  O   UNL     1      11.519  10.775   6.601  0.00  0.00    -0.158 OA
ATOM      3  O   UNL     1       9.591  10.526   4.987  0.00  0.00    -0.158 OA
BRANCH   1  17
ATOM     17  C   UNL     1      11.825   9.264   4.491  0.00  0.00    +0.185 C 
BRANCH  17  20
ATOM     20  C   UNL     1      11.942  10.143   3.257  0.00  0.00    +0.021 C 
ATOM     25  C   UNL     1      13.066   9.676   2.349  0.00  0.00    +0.005 C 
ENDBRANCH  17  20
ENDBRANCH   1  17
ENDBRANCH   7   1
BRANCH   9  14
ATOM     14  C   UNL     1       9.314   5.723   5.743  0.00  0.00    +0.060 C 
BRANCH  14  16
ATOM      8  N   UNL     1      10.620   4.436   4.192  0.00  0.00    -0.287 NA
ATOM     16  C   UNL     1       9.913   5.502   4.375  0.00  0.00    +0.044 C 
ATOM     19  C   UNL     1       9.669   6.513   3.315  0.00  0.00    -0.001 A 
ATOM     21  C   UNL     1      10.529   6.489   2.210  0.00  0.00    -0.033 A 
ATOM     22  C   UNL     1      11.150   4.190   2.846  0.00  0.00    +0.146 C 
ATOM     23  C   UNL     1      11.629   5.470   2.175  0.00  0.00    +0.059 C 
ATOM     24  C   UNL     1       8.650   7.464   3.399  0.00  0.00    +0.013 A 
ATOM     26  C   UNL     1      10.378   7.441   1.198  0.00  0.00    +0.050 A 
ATOM     27  C   UNL     1       8.497   8.400   2.376  0.00  0.00    +0.046 A 
ATOM     28  C   UNL     1       9.360   8.390   1.279  0.00  0.00    +0.120 A 
BRANCH  28   6
ATOM      6  O   UNL     1       9.210   9.313   0.288  0.00  0.00    -0.495 OA
ATOM     29  C   UNL     1      10.401   9.831  -0.300  0.00  0.00    +0.277 C 
ENDBRANCH  28   6
ENDBRANCH  14  16
ENDBRANCH   9  14
BRANCH  10  15
ATOM     15  C   UNL     1       9.173   4.980   8.700  0.00  0.00    +0.124 C 
BRANCH  15  18
ATOM      5  O   UNL     1      10.418   4.614  10.763  0.00  0.00    -0.251 OA
ATOM     18  C   UNL     1       9.357   4.771  10.177  0.00  0.00    +0.305 C 
BRANCH  18   4
ATOM      4  O   UNL     1       8.148   4.778  10.795  0.00  0.00    -0.481 OA
ATOM     30  H   UNL     1       7.987   5.619  11.274  0.00  0.00    +0.295 HD
ENDBRANCH  18   4
ENDBRANCH  15  18
ENDBRANCH  10  15
TORSDOF 9
ENDMDL
MODEL 3
REMARK VINA RESULT:      -6.5      2.679      3.133
REMARK  Name = 51136676
REMARK  11 active torsions:
REMARK  status: ('A' for Active; 'I' for Inactive)
REMARK    1  A    between atoms: S_1  and  N_7
REMARK    2  A    between atoms: S_1  and  C_17
REMARK    3  A    between atoms: O_4  and  C_18
REMARK    4  A    between atoms: O_6  and  C_28
REMARK    5  A    between atoms: O_6  and  C_29
REMARK    6  A    between atoms: C_9  and  C_14
REMARK    7  A    between atoms: C_10  and  C_15
REMARK    8  A    between atoms: C_14  and  C_16
REMARK    9  A    between atoms: C_15  and  C_18
REMARK   10  A    between atoms: C_17  and  C_20
REMARK   11  A    between atoms: C_20  and  C_25
REMARK                            x       y       z     vdW  Elec       q    Type
REMARK                         _______ _______ _______ _____ _____    ______ ____
ROOT
ATOM      7  N   UNL     1      12.493   8.569  19.598  0.00  0.00    -0.181 NA
ATOM      9  C   UNL     1      12.806  10.163  21.478  0.00  0.00    +0.014 C 
ATOM     10  C   UNL     1      11.288  10.083  21.770  0.00  0.00    +0.006 C 
ATOM     11  C   UNL     1      13.066   9.891  19.988  0.00  0.00    +0.113 C 
ATOM     12  C   UNL     1      10.690   8.759  21.271  0.00  0.00    +0.021 C 
ATOM     13  C   UNL     1      11.018   8.517  19.801  0.00  0.00    +0.109 C 
ENDROOT
BRANCH   7   1
ATOM      1  S   UNL     1      13.050   7.941  18.104  0.00  0.00    +0.032 S 
ATOM      2  O   UNL     1      12.081   6.986  17.613  0.00  0.00    -0.158 OA
ATOM      3  O   UNL     1      14.450   7.607  18.234  0.00  0.00    -0.158 OA
BRANCH   1  17
ATOM     17  C   UNL     1      12.923   9.409  17.115  0.00  0.00    +0.185 C 
BRANCH  17  20
ATOM     20  C   UNL     1      14.141   9.581  16.223  0.00  0.00    +0.021 C 
ATOM     25  C   UNL     1      14.531  11.044  16.092  0.00  0.00    +0.005 C 
ENDBRANCH  17  20
ENDBRANCH   1  17
ENDBRANCH   7   1
BRANCH   9  14
ATOM     14  C   UNL     1      13.661   9.236  22.352  0.00  0.00    +0.060 C 
BRANCH  14  16
ATOM      8  N   UNL     1      15.521  10.751  22.454  0.00  0.00    -0.287 NA
ATOM     16  C   UNL     1      15.123   9.557  22.161  0.00  0.00    +0.044 C 
ATOM     19  C   UNL     1      16.027   8.498  21.644  0.00  0.00    -0.001 A 
ATOM     21  C   UNL     1      17.256   8.919  21.119  0.00  0.00    -0.033 A 
ATOM     22  C   UNL     1      16.953  11.046  22.328  0.00  0.00    +0.146 C 
ATOM     23  C   UNL     1      17.568  10.386  21.101  0.00  0.00    +0.059 C 
ATOM     24  C   UNL     1      15.687   7.144  21.653  0.00  0.00    +0.013 A 
ATOM     26  C   UNL     1      18.134   7.975  20.579  0.00  0.00    +0.050 A 
ATOM     27  C   UNL     1      16.578   6.209  21.127  0.00  0.00    +0.046 A 
ATOM     28  C   UNL     1      17.797   6.622  20.588  0.00  0.00    +0.120 A 
BRANCH  28   6
ATOM      6  O   UNL     1      18.656   5.703  20.068  0.00  0.00    -0.495 OA
ATOM     29  C   UNL     1      19.976   5.671  20.609  0.00  0.00    +0.277 C 
ENDBRANCH  28   6
ENDBRANCH  14  16
ENDBRANCH   9  14
BRANCH  10  15
ATOM     15  C   UNL     1      10.946  10.308  23.243  0.00  0.00    +0.124 C 
BRANCH  15  18
ATOM      5  O   UNL     1      10.288  12.224  24.598  0.00  0.00    -0.251 OA
ATOM     18  C   UNL     1      10.564  11.737  23.513  0.00  0.00    +0.305 C 
BRANCH  18   4
ATOM      4  O   UNL     1      10.567  12.438  22.350  0.00  0.00    -0.481 OA
ATOM     30  H   UNL     1      10.343  13.382  22.491  0.00  0.00    +0.295 HD
ENDBRANCH  18   4
ENDBRANCH  15  18
ENDBRANCH  10  15
TORSDOF 9
ENDMDL
MODEL 4
REMARK VINA RESULT:      -6.5      3.476      7.223
REMARK  Name = 51136676
REMARK  11 active torsions:
REMARK  status: ('A' for Active; 'I' for Inactive)
REMARK    1  A    between atoms: S_1  and  N_7
REMARK    2  A    between atoms: S_1  and  C_17
REMARK    3  A    between atoms: O_4  and  C_18
REMARK    4  A    between atoms: O_6  and  C_28
REMARK    5  A    between atoms: O_6  and  C_29
REMARK    6  A    between atoms: C_9  and  C_14
REMARK    7  A    between atoms: C_10  and  C_15
REMARK    8  A    between atoms: C_14  and  C_16
REMARK    9  A    between atoms: C_15  and  C_18
REMARK   10  A    between atoms: C_17  and  C_20
REMARK   11  A    between atoms: C_20  and  C_25
REMARK                            x       y       z     vdW  Elec       q    Type
REMARK                         _______ _______ _______ _____ _____    ______ ____
ROOT
ATOM      7  N   UNL     1      13.496   8.509  18.754  0.00  0.00    -0.181 NA
ATOM      9  C   UNL     1      14.743  10.609  18.301  0.00  0.00    +0.014 C 
ATOM     10  C   UNL     1      14.403  10.462  16.798  0.00  0.00    +0.006 C 
ATOM     11  C   UNL     1      14.789   9.224  18.964  0.00  0.00    +0.113 C 
ATOM     12  C   UNL     1      13.123   9.636  16.592  0.00  0.00    +0.021 C 
ATOM     13  C   UNL     1      13.204   8.292  17.309  0.00  0.00    +0.109 C 
ENDROOT
BRANCH   7   1
ATOM      1  S   UNL     1      13.237   7.150  19.766  0.00  0.00    +0.032 S 
ATOM      2  O   UNL     1      14.507   6.499  20.001  0.00  0.00    -0.158 OA
ATOM      3  O   UNL     1      12.086   6.423  19.280  0.00  0.00    -0.158 OA
BRANCH   1  17
ATOM     17  C   UNL     1      12.767   7.992  21.256  0.00  0.00    +0.185 C 
BRANCH  17  20
ATOM     20  C   UNL     1      11.385   8.610  21.129  0.00  0.00    +0.021 C 
ATOM     25  C   UNL     1      10.644   8.589  22.455  0.00  0.00    +0.005 C 
ENDBRANCH  17  20
ENDBRANCH   1  17
ENDBRANCH   7   1
BRANCH   9  14
ATOM     14  C   UNL     1      13.798  11.543  19.068  0.00  0.00    +0.060 C 
BRANCH  14  16
ATOM      8  N   UNL     1      15.470  11.498  20.792  0.00  0.00    -0.287 NA
ATOM     16  C   UNL     1      14.212  11.612  20.518  0.00  0.00    +0.044 C 
ATOM     19  C   UNL     1      13.164  11.799  21.554  0.00  0.00    -0.001 A 
ATOM     21  C   UNL     1      13.514  11.475  22.871  0.00  0.00    -0.033 A 
ATOM     22  C   UNL     1      15.880  11.627  22.194  0.00  0.00    +0.146 C 
ATOM     23  C   UNL     1      14.895  10.957  23.144  0.00  0.00    +0.059 C 
ATOM     24  C   UNL     1      11.880  12.258  21.255  0.00  0.00    +0.013 A 
ATOM     26  C   UNL     1      12.560  11.590  23.886  0.00  0.00    +0.050 A 
ATOM     27  C   UNL     1      10.940  12.384  22.277  0.00  0.00    +0.046 A 
ATOM     28  C   UNL     1      11.277  12.050  23.589  0.00  0.00    +0.120 A 
BRANCH  28   6
ATOM      6  O   UNL     1      10.351  12.168  24.580  0.00  0.00    -0.495 OA
ATOM     29  C   UNL     1      10.564  13.195  25.547  0.00  0.00    +0.277 C 
ENDBRANCH  28   6
ENDBRANCH  14  16
ENDBRANCH   9  14
BRANCH  10  15
ATOM     15  C   UNL     1      14.302  11.803  16.070  0.00  0.00    +0.124 C 
BRANCH  15  18
ATOM      5  O   UNL     1      14.856  11.021  13.829  0.00  0.00    -0.251 OA
ATOM     18  C   UNL     1      14.109  11.617  14.590  0.00  0.00    +0.305 C 
BRANCH  18   4
ATOM      4  O   UNL     1      12.957  12.219  14.200  0.00  0.00    -0.481 OA
ATOM     30  H   UNL     1      12.326  11.581  13.803  0.00  0.00    +0.295 HD
ENDBRANCH  18   4
ENDBRANCH  15  18
ENDBRANCH  10  15
TORSDOF 9
ENDMDL
MODEL 5
REMARK VINA RESULT:      -6.2      3.412      7.201
REMARK  Name = 51136676
REMARK  11 active torsions:
REMARK  status: ('A' for Active; 'I' for Inactive)
REMARK    1  A    between atoms: S_1  and  N_7
REMARK    2  A    between atoms: S_1  and  C_17
REMARK    3  A    between atoms: O_4  and  C_18
REMARK    4  A    between atoms: O_6  and  C_28
REMARK    5  A    between atoms: O_6  and  C_29
REMARK    6  A    between atoms: C_9  and  C_14
REMARK    7  A    between atoms: C_10  and  C_15
REMARK    8  A    between atoms: C_14  and  C_16
REMARK    9  A    between atoms: C_15  and  C_18
REMARK   10  A    between atoms: C_17  and  C_20
REMARK   11  A    between atoms: C_20  and  C_25
REMARK                            x       y       z     vdW  Elec       q    Type
REMARK                         _______ _______ _______ _____ _____    ______ ____
ROOT
ATOM      7  N   UNL     1      13.647   7.793  20.577  0.00  0.00    -0.181 NA
ATOM      9  C   UNL     1      15.568   8.720  21.851  0.00  0.00    +0.014 C 
ATOM     10  C   UNL     1      16.462   7.588  21.286  0.00  0.00    +0.006 C 
ATOM     11  C   UNL     1      14.109   8.246  21.923  0.00  0.00    +0.113 C 
ATOM     12  C   UNL     1      15.917   7.060  19.949  0.00  0.00    +0.021 C 
ATOM     13  C   UNL     1      14.453   6.649  20.065  0.00  0.00    +0.109 C 
ENDROOT
BRANCH   7   1
ATOM      1  S   UNL     1      11.950   7.632  20.401  0.00  0.00    +0.032 S 
ATOM      2  O   UNL     1      11.642   6.243  20.138  0.00  0.00    -0.158 OA
ATOM      3  O   UNL     1      11.470   8.694  19.546  0.00  0.00    -0.158 OA
BRANCH   1  17
ATOM     17  C   UNL     1      11.457   7.998  22.065  0.00  0.00    +0.185 C 
BRANCH  17  20
ATOM     20  C   UNL     1      10.631   9.272  22.129  0.00  0.00    +0.021 C 
ATOM     25  C   UNL     1      10.980  10.099  23.355  0.00  0.00    +0.005 C 
ENDBRANCH  17  20
ENDBRANCH   1  17
ENDBRANCH   7   1
BRANCH   9  14
ATOM     14  C   UNL     1      15.669  10.041  21.078  0.00  0.00    +0.060 C 
BRANCH  14  16
ATOM      8  N   UNL     1      16.248  11.502  22.895  0.00  0.00    -0.287 NA
ATOM     16  C   UNL     1      15.366  11.198  22.000  0.00  0.00    +0.044 C 
ATOM     19  C   UNL     1      14.078  11.920  21.843  0.00  0.00    -0.001 A 
ATOM     21  C   UNL     1      13.659  12.705  22.924  0.00  0.00    -0.033 A 
ATOM     22  C   UNL     1      15.982  12.664  23.750  0.00  0.00    +0.146 C 
ATOM     23  C   UNL     1      14.516  12.755  24.154  0.00  0.00    +0.059 C 
ATOM     24  C   UNL     1      13.295  11.826  20.690  0.00  0.00    +0.013 A 
ATOM     26  C   UNL     1      12.436  13.378  22.854  0.00  0.00    +0.050 A 
ATOM     27  C   UNL     1      12.084  12.514  20.625  0.00  0.00    +0.046 A 
ATOM     28  C   UNL     1      11.653  13.286  21.704  0.00  0.00    +0.120 A 
BRANCH  28   6
ATOM      6  O   UNL     1      10.465  13.948  21.635  0.00  0.00    -0.495 OA
ATOM     29  C   UNL     1      10.333  14.939  20.617  0.00  0.00    +0.277 C 
ENDBRANCH  28   6
ENDBRANCH  14  16
ENDBRANCH   9  14
BRANCH  10  15
ATOM     15  C   UNL     1      17.930   7.992  21.148  0.00  0.00    +0.124 C 
BRANCH  15  18
ATOM      5  O   UNL     1      19.269   6.061  20.504  0.00  0.00    -0.251 OA
ATOM     18  C   UNL     1      18.849   6.822  21.362  0.00  0.00    +0.305 C 
BRANCH  18   4
ATOM      4  O   UNL     1      19.161   6.720  22.680  0.00  0.00    -0.481 OA
ATOM     30  H   UNL     1      20.013   6.255  22.820  0.00  0.00    +0.295 HD
ENDBRANCH  18   4
ENDBRANCH  15  18
ENDBRANCH  10  15
TORSDOF 9
ENDMDL
MODEL 6
REMARK VINA RESULT:      -6.2     12.664     16.615
REMARK  Name = 51136676
REMARK  11 active torsions:
REMARK  status: ('A' for Active; 'I' for Inactive)
REMARK    1  A    between atoms: S_1  and  N_7
REMARK    2  A    between atoms: S_1  and  C_17
REMARK    3  A    between atoms: O_4  and  C_18
REMARK    4  A    between atoms: O_6  and  C_28
REMARK    5  A    between atoms: O_6  and  C_29
REMARK    6  A    between atoms: C_9  and  C_14
REMARK    7  A    between atoms: C_10  and  C_15
REMARK    8  A    between atoms: C_14  and  C_16
REMARK    9  A    between atoms: C_15  and  C_18
REMARK   10  A    between atoms: C_17  and  C_20
REMARK   11  A    between atoms: C_20  and  C_25
REMARK                            x       y       z     vdW  Elec       q    Type
REMARK                         _______ _______ _______ _____ _____    ______ ____
ROOT
ATOM      7  N   UNL     1      10.821   8.818   6.061  0.00  0.00    -0.181 NA
ATOM      9  C   UNL     1      10.540   6.404   6.577  0.00  0.00    +0.014 C 
ATOM     10  C   UNL     1      10.104   6.784   8.013  0.00  0.00    +0.006 C 
ATOM     11  C   UNL     1      11.482   7.481   6.016  0.00  0.00    +0.113 C 
ATOM     12  C   UNL     1       9.519   8.204   8.064  0.00  0.00    +0.021 C 
ATOM     13  C   UNL     1      10.474   9.224   7.452  0.00  0.00    +0.109 C 
ENDROOT
BRANCH   7   1
ATOM      1  S   UNL     1      11.561  10.034   5.106  0.00  0.00    +0.032 S 
ATOM      2  O   UNL     1      11.479   9.645   3.715  0.00  0.00    -0.158 OA
ATOM      3  O   UNL     1      12.816  10.406   5.719  0.00  0.00    -0.158 OA
BRANCH   1  17
ATOM     17  C   UNL     1      10.403  11.351   5.377  0.00  0.00    +0.185 C 
BRANCH  17  20
ATOM     20  C   UNL     1       9.247  11.281   4.393  0.00  0.00    +0.021 C 
ATOM     25  C   UNL     1       7.968  10.821   5.072  0.00  0.00    +0.005 C 
ENDBRANCH  17  20
ENDBRANCH   1  17
ENDBRANCH   7   1
BRANCH   9  14
ATOM     14  C   UNL     1       9.372   6.155   5.614  0.00  0.00    +0.060 C 
BRANCH  14  16
ATOM      8  N   UNL     1      10.555   4.649   4.165  0.00  0.00    -0.287 NA
ATOM     16  C   UNL     1       9.903   5.761   4.257  0.00  0.00    +0.044 C 
ATOM     19  C   UNL     1       9.658   6.664   3.103  0.00  0.00    -0.001 A 
ATOM     21  C   UNL     1      10.470   6.481   1.977  0.00  0.00    -0.033 A 
ATOM     22  C   UNL     1      11.017   4.236   2.836  0.00  0.00    +0.146 C 
ATOM     23  C   UNL     1      11.523   5.413   2.012  0.00  0.00    +0.059 C 
ATOM     24  C   UNL     1       8.686   7.665   3.120  0.00  0.00    +0.013 A 
ATOM     26  C   UNL     1      10.318   7.325   0.873  0.00  0.00    +0.050 A 
ATOM     27  C   UNL     1       8.531   8.492   2.008  0.00  0.00    +0.046 A 
ATOM     28  C   UNL     1       9.346   8.325   0.888  0.00  0.00    +0.120 A 
BRANCH  28   6
ATOM      6  O   UNL     1       9.195   9.142  -0.191  0.00  0.00    -0.495 OA
ATOM     29  C   UNL     1       8.314   8.698  -1.222  0.00  0.00    +0.277 C 
ENDBRANCH  28   6
ENDBRANCH  14  16
ENDBRANCH   9  14
BRANCH  10  15
ATOM     15  C   UNL     1       9.133   5.779   8.633  0.00  0.00    +0.124 C 
BRANCH  15  18
ATOM      5  O   UNL     1      10.087   4.641  10.566  0.00  0.00    -0.251 OA
ATOM     18  C   UNL     1       9.860   4.686   9.366  0.00  0.00    +0.305 C 
BRANCH  18   4
ATOM      4  O   UNL     1      10.244   3.724   8.489  0.00  0.00    -0.481 OA
ATOM     30  H   UNL     1      10.184   4.030   7.559  0.00  0.00    +0.295 HD
ENDBRANCH  18   4
ENDBRANCH  15  18
ENDBRANCH  10  15
TORSDOF 9
ENDMDL
MODEL 7
REMARK VINA RESULT:      -6.2     27.794     30.315
REMARK  Name = 51136676
REMARK  11 active torsions:
REMARK  status: ('A' for Active; 'I' for Inactive)
REMARK    1  A    between atoms: S_1  and  N_7
REMARK    2  A    between atoms: S_1  and  C_17
REMARK    3  A    between atoms: O_4  and  C_18
REMARK    4  A    between atoms: O_6  and  C_28
REMARK    5  A    between atoms: O_6  and  C_29
REMARK    6  A    between atoms: C_9  and  C_14
REMARK    7  A    between atoms: C_10  and  C_15
REMARK    8  A    between atoms: C_14  and  C_16
REMARK    9  A    between atoms: C_15  and  C_18
REMARK   10  A    between atoms: C_17  and  C_20
REMARK   11  A    between atoms: C_20  and  C_25
REMARK                            x       y       z     vdW  Elec       q    Type
REMARK                         _______ _______ _______ _____ _____    ______ ____
ROOT
ATOM      7  N   UNL     1      -5.705 -10.337  14.381  0.00  0.00    -0.181 NA
ATOM      9  C   UNL     1      -6.567 -11.057  16.597  0.00  0.00    +0.014 C 
ATOM     10  C   UNL     1      -5.115 -11.360  17.040  0.00  0.00    +0.006 C 
ATOM     11  C   UNL     1      -6.692 -11.216  15.074  0.00  0.00    +0.113 C 
ATOM     12  C   UNL     1      -4.101 -10.521  16.246  0.00  0.00    +0.021 C 
ATOM     13  C   UNL     1      -4.300 -10.680  14.742  0.00  0.00    +0.109 C 
ENDROOT
BRANCH   7   1
ATOM      1  S   UNL     1      -5.992 -10.087  12.710  0.00  0.00    +0.032 S 
ATOM      2  O   UNL     1      -6.521  -8.753  12.525  0.00  0.00    -0.158 OA
ATOM      3  O   UNL     1      -6.659 -11.252  12.175  0.00  0.00    -0.158 OA
BRANCH   1  17
ATOM     17  C   UNL     1      -4.315 -10.097  12.131  0.00  0.00    +0.185 C 
BRANCH  17  20
ATOM     20  C   UNL     1      -4.133 -11.077  10.983  0.00  0.00    +0.021 C 
ATOM     25  C   UNL     1      -3.252 -12.247  11.387  0.00  0.00    +0.005 C 
ENDBRANCH  17  20
ENDBRANCH   1  17
ENDBRANCH   7   1
BRANCH   9  14
ATOM     14  C   UNL     1      -7.082  -9.681  17.040  0.00  0.00    +0.060 C 
BRANCH  14  16
ATOM      8  N   UNL     1      -8.471 -10.669  18.731  0.00  0.00    -0.287 NA
ATOM     16  C   UNL     1      -8.406  -9.833  17.748  0.00  0.00    +0.044 C 
ATOM     19  C   UNL     1      -9.564  -9.029  17.281  0.00  0.00    -0.001 A 
ATOM     21  C   UNL     1     -10.835  -9.461  17.680  0.00  0.00    -0.033 A 
ATOM     22  C   UNL     1      -9.741 -10.772  19.458  0.00  0.00    +0.146 C 
ATOM     23  C   UNL     1     -10.944 -10.694  18.527  0.00  0.00    +0.059 C 
ATOM     24  C   UNL     1      -9.422  -7.901  16.469  0.00  0.00    +0.013 A 
ATOM     26  C   UNL     1     -11.968  -8.771  17.240  0.00  0.00    +0.050 A 
ATOM     27  C   UNL     1     -10.559  -7.210  16.049  0.00  0.00    +0.046 A 
ATOM     28  C   UNL     1     -11.828  -7.644  16.431  0.00  0.00    +0.120 A 
BRANCH  28   6
ATOM      6  O   UNL     1     -12.933  -6.969  16.009  0.00  0.00    -0.495 OA
ATOM     29  C   UNL     1     -14.198  -7.585  16.244  0.00  0.00    +0.277 C 
ENDBRANCH  28   6
ENDBRANCH  14  16
ENDBRANCH   9  14
BRANCH  10  15
ATOM     15  C   UNL     1      -4.896 -11.189  18.543  0.00  0.00    +0.124 C 
BRANCH  15  18
ATOM      5  O   UNL     1      -3.172 -12.169  19.960  0.00  0.00    -0.251 OA
ATOM     18  C   UNL     1      -4.038 -12.288  19.107  0.00  0.00    +0.305 C 
BRANCH  18   4
ATOM      4  O   UNL     1      -4.365 -13.469  18.523  0.00  0.00    -0.481 OA
ATOM     30  H   UNL     1      -5.044 -13.956  19.036  0.00  0.00    +0.295 HD
ENDBRANCH  18   4
ENDBRANCH  15  18
ENDBRANCH  10  15
TORSDOF 9
ENDMDL
MODEL 8
REMARK VINA RESULT:      -6.2     26.645     29.379
REMARK  Name = 51136676
REMARK  11 active torsions:
REMARK  status: ('A' for Active; 'I' for Inactive)
REMARK    1  A    between atoms: S_1  and  N_7
REMARK    2  A    between atoms: S_1  and  C_17
REMARK    3  A    between atoms: O_4  and  C_18
REMARK    4  A    between atoms: O_6  and  C_28
REMARK    5  A    between atoms: O_6  and  C_29
REMARK    6  A    between atoms: C_9  and  C_14
REMARK    7  A    between atoms: C_10  and  C_15
REMARK    8  A    between atoms: C_14  and  C_16
REMARK    9  A    between atoms: C_15  and  C_18
REMARK   10  A    between atoms: C_17  and  C_20
REMARK   11  A    between atoms: C_20  and  C_25
REMARK                            x       y       z     vdW  Elec       q    Type
REMARK                         _______ _______ _______ _____ _____    ______ ____
ROOT
ATOM      7  N   UNL     1      -3.087 -10.824  13.841  0.00  0.00    -0.181 NA
ATOM      9  C   UNL     1      -4.810 -11.320  15.561  0.00  0.00    +0.014 C 
ATOM     10  C   UNL     1      -3.682 -11.512  16.605  0.00  0.00    +0.006 C 
ATOM     11  C   UNL     1      -4.285 -11.656  14.157  0.00  0.00    +0.113 C 
ATOM     12  C   UNL     1      -2.418 -10.730  16.214  0.00  0.00    +0.021 C 
ATOM     13  C   UNL     1      -1.969 -11.067  14.796  0.00  0.00    +0.109 C 
ENDROOT
BRANCH   7   1
ATOM      1  S   UNL     1      -2.642 -10.778  12.187  0.00  0.00    +0.032 S 
ATOM      2  O   UNL     1      -2.620 -12.130  11.675  0.00  0.00    -0.158 OA
ATOM      3  O   UNL     1      -1.513  -9.887  12.035  0.00  0.00    -0.158 OA
BRANCH   1  17
ATOM     17  C   UNL     1      -4.076  -9.965  11.531  0.00  0.00    +0.185 C 
BRANCH  17  20
ATOM     20  C   UNL     1      -3.734  -9.154  10.292  0.00  0.00    +0.021 C 
ATOM     25  C   UNL     1      -4.957  -8.441   9.741  0.00  0.00    +0.005 C 
ENDBRANCH  17  20
ENDBRANCH   1  17
ENDBRANCH   7   1
BRANCH   9  14
ATOM     14  C   UNL     1      -5.446  -9.924  15.579  0.00  0.00    +0.060 C 
BRANCH  14  16
ATOM      8  N   UNL     1      -7.370  -9.998  14.143  0.00  0.00    -0.287 NA
ATOM     16  C   UNL     1      -6.935 -10.038  15.360  0.00  0.00    +0.044 C 
ATOM     19  C   UNL     1      -7.823 -10.183  16.541  0.00  0.00    -0.001 A 
ATOM     21  C   UNL     1      -9.181  -9.899  16.348  0.00  0.00    -0.033 A 
ATOM     22  C   UNL     1      -8.810 -10.170  13.926  0.00  0.00    +0.146 C 
ATOM     23  C   UNL     1      -9.640  -9.462  14.988  0.00  0.00    +0.059 C 
ATOM     24  C   UNL     1      -7.352 -10.566  17.798  0.00  0.00    +0.013 A 
ATOM     26  C   UNL     1     -10.063  -9.977  17.429  0.00  0.00    +0.050 A 
ATOM     27  C   UNL     1      -8.243 -10.656  18.868  0.00  0.00    +0.046 A 
ATOM     28  C   UNL     1      -9.594 -10.360  18.686  0.00  0.00    +0.120 A 
BRANCH  28   6
ATOM      6  O   UNL     1     -10.456 -10.442  19.737  0.00  0.00    -0.495 OA
ATOM     29  C   UNL     1     -11.499 -11.411  19.646  0.00  0.00    +0.277 C 
ENDBRANCH  28   6
ENDBRANCH  14  16
ENDBRANCH   9  14
BRANCH  10  15
ATOM     15  C   UNL     1      -4.113 -11.163  18.029  0.00  0.00    +0.124 C 
BRANCH  15  18
ATOM      5  O   UNL     1      -3.268 -12.268  20.030  0.00  0.00    -0.251 OA
ATOM     18  C   UNL     1      -3.883 -12.308  18.975  0.00  0.00    +0.305 C 
BRANCH  18   4
ATOM      4  O   UNL     1      -4.469 -13.431  18.486  0.00  0.00    -0.481 OA
ATOM     30  H   UNL     1      -4.352 -14.197  19.086  0.00  0.00    +0.295 HD
ENDBRANCH  18   4
ENDBRANCH  15  18
ENDBRANCH  10  15
TORSDOF 9
ENDMDL
MODEL 9
REMARK VINA RESULT:      -6.1     31.011     33.550
REMARK  Name = 51136676
REMARK  11 active torsions:
REMARK  status: ('A' for Active; 'I' for Inactive)
REMARK    1  A    between atoms: S_1  and  N_7
REMARK    2  A    between atoms: S_1  and  C_17
REMARK    3  A    between atoms: O_4  and  C_18
REMARK    4  A    between atoms: O_6  and  C_28
REMARK    5  A    between atoms: O_6  and  C_29
REMARK    6  A    between atoms: C_9  and  C_14
REMARK    7  A    between atoms: C_10  and  C_15
REMARK    8  A    between atoms: C_14  and  C_16
REMARK    9  A    between atoms: C_15  and  C_18
REMARK   10  A    between atoms: C_17  and  C_20
REMARK   11  A    between atoms: C_20  and  C_25
REMARK                            x       y       z     vdW  Elec       q    Type
REMARK                         _______ _______ _______ _____ _____    ______ ____
ROOT
ATOM      7  N   UNL     1     -14.807   4.540  33.115  0.00  0.00    -0.181 NA
ATOM      9  C   UNL     1     -14.886   3.179  31.038  0.00  0.00    +0.014 C 
ATOM     10  C   UNL     1     -14.537   1.923  31.874  0.00  0.00    +0.006 C 
ATOM     11  C   UNL     1     -14.307   4.432  31.713  0.00  0.00    +0.113 C 
ATOM     12  C   UNL     1     -14.965   2.089  33.340  0.00  0.00    +0.021 C 
ATOM     13  C   UNL     1     -14.402   3.371  33.945  0.00  0.00    +0.109 C 
ENDROOT
BRANCH   7   1
ATOM      1  S   UNL     1     -14.593   6.072  33.854  0.00  0.00    +0.032 S 
ATOM      2  O   UNL     1     -13.904   5.887  35.112  0.00  0.00    -0.158 OA
ATOM      3  O   UNL     1     -15.834   6.807  33.766  0.00  0.00    -0.158 OA
BRANCH   1  17
ATOM     17  C   UNL     1     -13.448   6.784  32.700  0.00  0.00    +0.185 C 
BRANCH  17  20
ATOM     20  C   UNL     1     -12.850   8.074  33.239  0.00  0.00    +0.021 C 
ATOM     25  C   UNL     1     -11.875   8.688  32.250  0.00  0.00    +0.005 C 
ENDBRANCH  17  20
ENDBRANCH   1  17
ENDBRANCH   7   1
BRANCH   9  14
ATOM     14  C   UNL     1     -16.386   3.355  30.771  0.00  0.00    +0.060 C 
BRANCH  14  16
ATOM      8  N   UNL     1     -16.809   5.683  30.357  0.00  0.00    -0.287 NA
ATOM     16  C   UNL     1     -16.606   4.519  29.834  0.00  0.00    +0.044 C 
ATOM     19  C   UNL     1     -16.585   4.272  28.370  0.00  0.00    -0.001 A 
ATOM     21  C   UNL     1     -17.163   5.254  27.556  0.00  0.00    -0.033 A 
ATOM     22  C   UNL     1     -16.961   6.824  29.447  0.00  0.00    +0.146 C 
ATOM     23  C   UNL     1     -17.767   6.465  28.205  0.00  0.00    +0.059 C 
ATOM     24  C   UNL     1     -16.038   3.117  27.806  0.00  0.00    +0.013 A 
ATOM     26  C   UNL     1     -17.213   5.063  26.173  0.00  0.00    +0.050 A 
ATOM     27  C   UNL     1     -16.078   2.943  26.423  0.00  0.00    +0.046 A 
ATOM     28  C   UNL     1     -16.665   3.911  25.608  0.00  0.00    +0.120 A 
BRANCH  28   6
ATOM      6  O   UNL     1     -16.708   3.729  24.259  0.00  0.00    -0.495 OA
ATOM     29  C   UNL     1     -16.131   4.752  23.448  0.00  0.00    +0.277 C 
ENDBRANCH  28   6
ENDBRANCH  14  16
ENDBRANCH   9  14
BRANCH  10  15
ATOM     15  C   UNL     1     -15.109   0.632  31.288  0.00  0.00    +0.124 C 
BRANCH  15  18
ATOM      5  O   UNL     1     -15.004  -0.087  28.961  0.00  0.00    -0.251 OA
ATOM     18  C   UNL     1     -14.446   0.272  29.987  0.00  0.00    +0.305 C 
BRANCH  18   4
ATOM      4  O   UNL     1     -13.100   0.404  30.108  0.00  0.00    -0.481 OA
ATOM     30  H   UNL     1     -12.649  -0.466  30.142  0.00  0.00    +0.295 HD
ENDBRANCH  18   4
ENDBRANCH  15  18
ENDBRANCH  10  15
TORSDOF 9
ENDMDL
MODEL 10
REMARK VINA RESULT:      -6.1     32.295     34.021
REMARK  Name = 51136676
REMARK  11 active torsions:
REMARK  status: ('A' for Active; 'I' for Inactive)
REMARK    1  A    between atoms: S_1  and  N_7
REMARK    2  A    between atoms: S_1  and  C_17
REMARK    3  A    between atoms: O_4  and  C_18
REMARK    4  A    between atoms: O_6  and  C_28
REMARK    5  A    between atoms: O_6  and  C_29
REMARK    6  A    between atoms: C_9  and  C_14
REMARK    7  A    between atoms: C_10  and  C_15
REMARK    8  A    between atoms: C_14  and  C_16
REMARK    9  A    between atoms: C_15  and  C_18
REMARK   10  A    between atoms: C_17  and  C_20
REMARK   11  A    between atoms: C_20  and  C_25
REMARK                            x       y       z     vdW  Elec       q    Type
REMARK                         _______ _______ _______ _____ _____    ______ ____
ROOT
ATOM      7  N   UNL     1     -14.968   3.538  32.009  0.00  0.00    -0.181 NA
ATOM      9  C   UNL     1     -14.836   2.148  29.955  0.00  0.00    +0.014 C 
ATOM     10  C   UNL     1     -14.265   0.985  30.804  0.00  0.00    +0.006 C 
ATOM     11  C   UNL     1     -14.474   3.493  30.602  0.00  0.00    +0.113 C 
ATOM     12  C   UNL     1     -14.698   1.101  32.274  0.00  0.00    +0.021 C 
ATOM     13  C   UNL     1     -14.357   2.471  32.851  0.00  0.00    +0.109 C 
ENDROOT
BRANCH   7   1
ATOM      1  S   UNL     1     -15.012   5.097  32.721  0.00  0.00    +0.032 S 
ATOM      2  O   UNL     1     -14.962   6.088  31.669  0.00  0.00    -0.158 OA
ATOM      3  O   UNL     1     -14.095   5.123  33.838  0.00  0.00    -0.158 OA
BRANCH   1  17
ATOM     17  C   UNL     1     -16.665   5.065  33.367  0.00  0.00    +0.185 C 
BRANCH  17  20
ATOM     20  C   UNL     1     -17.602   4.294  32.451  0.00  0.00    +0.021 C 
ATOM     25  C   UNL     1     -18.373   5.228  31.534  0.00  0.00    +0.005 C 
ENDBRANCH  17  20
ENDBRANCH   1  17
ENDBRANCH   7   1
BRANCH   9  14
ATOM     14  C   UNL     1     -16.347   2.058  29.708  0.00  0.00    +0.060 C 
BRANCH  14  16
ATOM      8  N   UNL     1     -16.582   0.875  27.630  0.00  0.00    -0.287 NA
ATOM     16  C   UNL     1     -16.622   2.022  28.224  0.00  0.00    +0.044 C 
ATOM     19  C   UNL     1     -16.916   3.297  27.520  0.00  0.00    -0.001 A 
ATOM     21  C   UNL     1     -16.781   3.293  26.126  0.00  0.00    -0.033 A 
ATOM     22  C   UNL     1     -16.909   0.832  26.201  0.00  0.00    +0.146 C 
ATOM     23  C   UNL     1     -16.344   2.029  25.447  0.00  0.00    +0.059 C 
ATOM     24  C   UNL     1     -17.294   4.461  28.191  0.00  0.00    +0.013 A 
ATOM     26  C   UNL     1     -17.004   4.471  25.408  0.00  0.00    +0.050 A 
ATOM     27  C   UNL     1     -17.529   5.628  27.464  0.00  0.00    +0.046 A 
ATOM     28  C   UNL     1     -17.383   5.635  26.077  0.00  0.00    +0.120 A 
BRANCH  28   6
ATOM      6  O   UNL     1     -17.606   6.781  25.376  0.00  0.00    -0.495 OA
ATOM     29  C   UNL     1     -18.290   7.833  26.054  0.00  0.00    +0.277 C 
ENDBRANCH  28   6
ENDBRANCH  14  16
ENDBRANCH   9  14
BRANCH  10  15
ATOM     15  C   UNL     1     -14.613  -0.395  30.246  0.00  0.00    +0.124 C 
BRANCH  15  18
ATOM      5  O   UNL     1     -13.413  -1.609  28.506  0.00  0.00    -0.251 OA
ATOM     18  C   UNL     1     -13.426  -1.042  29.588  0.00  0.00    +0.305 C 
BRANCH  18   4
ATOM      4  O   UNL     1     -12.334  -0.910  30.383  0.00  0.00    -0.481 OA
ATOM     30  H   UNL     1     -12.574  -0.868  31.333  0.00  0.00    +0.295 HD
ENDBRANCH  18   4
ENDBRANCH  15  18
ENDBRANCH  10  15
TORSDOF 9
ENDMDL
