MODEL 1
REMARK VINA RESULT:      -8.5      0.000      0.000
REMARK  Name = 11884024
REMARK  7 active torsions:
REMARK  status: ('A' for Active; 'I' for Inactive)
REMARK    1  A    between atoms: O_3  and  C_12
REMARK    2  A    between atoms: O_3  and  C_22
REMARK    3  A    between atoms: O_6  and  C_28
REMARK    4  A    between atoms: O_6  and  C_29
REMARK    5  A    between atoms: N_7  and  C_11
REMARK    6  A    between atoms: N_8  and  C_23
REMARK    7  A    between atoms: C_15  and  C_16
REMARK                            x       y       z     vdW  Elec       q    Type
REMARK                         _______ _______ _______ _____ _____    ______ ____
ROOT
ATOM      3  O   UNL     1     -16.372   5.089  22.521  0.00  0.00    -0.442 OA
ENDROOT
BRANCH   3  12
ATOM      1  O   UNL     1     -16.743   4.993  25.271  0.00  0.00    -0.368 OA
ATOM      2  O   UNL     1     -16.788   2.057  24.385  0.00  0.00    -0.368 OA
ATOM      9  C   UNL     1     -15.904   2.775  25.272  0.00  0.00    +0.173 C 
ATOM     10  C   UNL     1     -15.726   4.162  24.688  0.00  0.00    +0.192 C 
ATOM     11  C   UNL     1     -16.588   3.025  26.596  0.00  0.00    +0.130 C 
ATOM     12  C   UNL     1     -15.970   3.929  23.216  0.00  0.00    +0.235 C 
ATOM     13  C   UNL     1     -17.426   4.257  26.298  0.00  0.00    +0.185 C 
ATOM     14  C   UNL     1     -17.052   2.874  23.235  0.00  0.00    +0.207 C 
BRANCH  11   7
ATOM      4  O   UNL     1     -16.659   2.062  29.335  0.00  0.00    -0.276 OA
ATOM      7  N   UNL     1     -15.628   3.283  27.641  0.00  0.00    -0.307 N 
ATOM     16  C   UNL     1     -15.747   2.776  28.925  0.00  0.00    +0.216 C 
ATOM     35  H   UNL     1     -14.794   3.810  27.395  0.00  0.00    +0.149 HD
BRANCH  16  15
ATOM     15  C   UNL     1     -14.599   3.176  29.806  0.00  0.00    +0.075 C 
ATOM     17  C   UNL     1     -15.072   4.072  30.953  0.00  0.00    +0.013 C 
ATOM     18  C   UNL     1     -13.853   1.933  30.296  0.00  0.00    +0.013 C 
ATOM     19  C   UNL     1     -15.784   3.308  32.068  0.00  0.00    +0.001 C 
ATOM     20  C   UNL     1     -14.593   1.189  31.406  0.00  0.00    +0.001 C 
ATOM     21  C   UNL     1     -14.965   2.118  32.555  0.00  0.00    +0.000 C 
ENDBRANCH  16  15
ENDBRANCH  11   7
ENDBRANCH   3  12
BRANCH   3  22
ATOM      5  O   UNL     1     -15.632   5.274  20.366  0.00  0.00    -0.226 OA
ATOM      8  N   UNL     1     -14.561   6.376  22.132  0.00  0.00    -0.251 N 
ATOM     22  C   UNL     1     -15.515   5.563  21.550  0.00  0.00    +0.405 C 
ATOM     36  H   UNL     1     -14.628   6.498  23.139  0.00  0.00    +0.158 HD
BRANCH   8  23
ATOM     23  C   UNL     1     -13.500   7.062  21.499  0.00  0.00    +0.037 A 
ATOM     24  C   UNL     1     -12.333   6.378  21.158  0.00  0.00    +0.027 A 
ATOM     25  C   UNL     1     -13.620   8.421  21.214  0.00  0.00    +0.027 A 
ATOM     26  C   UNL     1     -11.285   7.054  20.532  0.00  0.00    +0.048 A 
ATOM     27  C   UNL     1     -12.572   9.098  20.589  0.00  0.00    +0.048 A 
ATOM     28  C   UNL     1     -11.405   8.414  20.247  0.00  0.00    +0.129 A 
BRANCH  28   6
ATOM      6  O   UNL     1     -10.384   9.074  19.635  0.00  0.00    -0.456 OA
BRANCH   6  29
ATOM     29  C   UNL     1     -10.464   9.256  18.266  0.00  0.00    +0.128 A 
ATOM     30  C   UNL     1     -10.390  10.542  17.727  0.00  0.00    +0.046 A 
ATOM     31  C   UNL     1     -10.620   8.155  17.423  0.00  0.00    +0.046 A 
ATOM     32  C   UNL     1     -10.471  10.725  16.346  0.00  0.00    +0.004 A 
ATOM     33  C   UNL     1     -10.702   8.340  16.043  0.00  0.00    +0.004 A 
ATOM     34  C   UNL     1     -10.628   9.624  15.505  0.00  0.00    +0.000 A 
ENDBRANCH   6  29
ENDBRANCH  28   6
ENDBRANCH   8  23
ENDBRANCH   3  22
TORSDOF 7
ENDMDL
MODEL 2
REMARK VINA RESULT:      -7.9     26.547     30.219
REMARK  Name = 11884024
REMARK  7 active torsions:
REMARK  status: ('A' for Active; 'I' for Inactive)
REMARK    1  A    between atoms: O_3  and  C_12
REMARK    2  A    between atoms: O_3  and  C_22
REMARK    3  A    between atoms: O_6  and  C_28
REMARK    4  A    between atoms: O_6  and  C_29
REMARK    5  A    between atoms: N_7  and  C_11
REMARK    6  A    between atoms: N_8  and  C_23
REMARK    7  A    between atoms: C_15  and  C_16
REMARK                            x       y       z     vdW  Elec       q    Type
REMARK                         _______ _______ _______ _____ _____    ______ ____
ROOT
ATOM      3  O   UNL     1      12.396   6.695  20.073  0.00  0.00    -0.442 OA
ENDROOT
BRANCH   3  12
ATOM      1  O   UNL     1      12.197   9.395  20.691  0.00  0.00    -0.368 OA
ATOM      2  O   UNL     1      10.329   8.008  22.689  0.00  0.00    -0.368 OA
ATOM      9  C   UNL     1      11.514   8.807  22.884  0.00  0.00    +0.173 C 
ATOM     10  C   UNL     1      12.465   8.467  21.755  0.00  0.00    +0.192 C 
ATOM     11  C   UNL     1      11.198  10.268  22.663  0.00  0.00    +0.130 C 
ATOM     12  C   UNL     1      12.049   7.062  21.390  0.00  0.00    +0.235 C 
ATOM     13  C   UNL     1      11.267  10.387  21.150  0.00  0.00    +0.185 C 
ATOM     14  C   UNL     1      10.551   7.111  21.591  0.00  0.00    +0.207 C 
BRANCH  11   7
ATOM      4  O   UNL     1      11.085  11.385  25.342  0.00  0.00    -0.276 OA
ATOM      7  N   UNL     1      12.174  11.117  23.302  0.00  0.00    -0.307 N 
ATOM     16  C   UNL     1      12.032  11.604  24.592  0.00  0.00    +0.216 C 
ATOM     35  H   UNL     1      13.034  11.310  22.795  0.00  0.00    +0.149 HD
BRANCH  16  15
ATOM     15  C   UNL     1      13.202  12.441  25.018  0.00  0.00    +0.075 C 
ATOM     17  C   UNL     1      13.837  13.150  23.819  0.00  0.00    +0.013 C 
ATOM     18  C   UNL     1      12.780  13.412  26.123  0.00  0.00    +0.013 C 
ATOM     19  C   UNL     1      13.033  14.353  23.329  0.00  0.00    +0.001 C 
ATOM     20  C   UNL     1      11.974  14.600  25.601  0.00  0.00    +0.001 C 
ATOM     21  C   UNL     1      12.696  15.314  24.465  0.00  0.00    +0.000 C 
ENDBRANCH  16  15
ENDBRANCH  11   7
ENDBRANCH   3  12
BRANCH   3  22
ATOM      5  O   UNL     1      13.944   7.608  18.659  0.00  0.00    -0.226 OA
ATOM      8  N   UNL     1      14.578   6.412  20.570  0.00  0.00    -0.251 N 
ATOM     22  C   UNL     1      13.687   6.966  19.670  0.00  0.00    +0.405 C 
ATOM     36  H   UNL     1      14.170   5.912  21.356  0.00  0.00    +0.158 HD
BRANCH   8  23
ATOM     23  C   UNL     1      15.990   6.454  20.533  0.00  0.00    +0.037 A 
ATOM     24  C   UNL     1      16.694   7.108  21.544  0.00  0.00    +0.027 A 
ATOM     25  C   UNL     1      16.679   5.840  19.488  0.00  0.00    +0.027 A 
ATOM     26  C   UNL     1      18.089   7.148  21.510  0.00  0.00    +0.048 A 
ATOM     27  C   UNL     1      18.073   5.880  19.452  0.00  0.00    +0.048 A 
ATOM     28  C   UNL     1      18.778   6.534  20.464  0.00  0.00    +0.129 A 
BRANCH  28   6
ATOM      6  O   UNL     1      20.138   6.572  20.430  0.00  0.00    -0.456 OA
BRANCH   6  29
ATOM     29  C   UNL     1      20.827   5.583  21.111  0.00  0.00    +0.128 A 
ATOM     30  C   UNL     1      21.347   5.842  22.380  0.00  0.00    +0.046 A 
ATOM     31  C   UNL     1      21.003   4.328  20.528  0.00  0.00    +0.046 A 
ATOM     32  C   UNL     1      22.042   4.845  23.065  0.00  0.00    +0.004 A 
ATOM     33  C   UNL     1      21.698   3.332  21.213  0.00  0.00    +0.004 A 
ATOM     34  C   UNL     1      22.218   3.591  22.481  0.00  0.00    +0.000 A 
ENDBRANCH   6  29
ENDBRANCH  28   6
ENDBRANCH   8  23
ENDBRANCH   3  22
TORSDOF 7
ENDMDL
MODEL 3
REMARK VINA RESULT:      -7.4     17.520     19.724
REMARK  Name = 11884024
REMARK  7 active torsions:
REMARK  status: ('A' for Active; 'I' for Inactive)
REMARK    1  A    between atoms: O_3  and  C_12
REMARK    2  A    between atoms: O_3  and  C_22
REMARK    3  A    between atoms: O_6  and  C_28
REMARK    4  A    between atoms: O_6  and  C_29
REMARK    5  A    between atoms: N_7  and  C_11
REMARK    6  A    between atoms: N_8  and  C_23
REMARK    7  A    between atoms: C_15  and  C_16
REMARK                            x       y       z     vdW  Elec       q    Type
REMARK                         _______ _______ _______ _____ _____    ______ ____
ROOT
ATOM      3  O   UNL     1      -8.340 -10.123  18.445  0.00  0.00    -0.442 OA
ENDROOT
BRANCH   3  12
ATOM      1  O   UNL     1      -6.001 -10.024  16.953  0.00  0.00    -0.368 OA
ATOM      2  O   UNL     1      -5.623 -12.428  18.819  0.00  0.00    -0.368 OA
ATOM      9  C   UNL     1      -5.672 -12.333  17.380  0.00  0.00    +0.173 C 
ATOM     10  C   UNL     1      -6.703 -11.275  17.044  0.00  0.00    +0.192 C 
ATOM     11  C   UNL     1      -4.378 -11.758  16.853  0.00  0.00    +0.130 C 
ATOM     12  C   UNL     1      -7.617 -11.317  18.245  0.00  0.00    +0.235 C 
ATOM     13  C   UNL     1      -4.589 -10.265  17.042  0.00  0.00    +0.185 C 
ATOM     14  C   UNL     1      -6.649 -11.591  19.373  0.00  0.00    +0.207 C 
BRANCH  11   7
ATOM      4  O   UNL     1      -1.936 -11.511  15.301  0.00  0.00    -0.276 OA
ATOM      7  N   UNL     1      -4.185 -12.090  15.463  0.00  0.00    -0.307 N 
ATOM     16  C   UNL     1      -2.975 -11.937  14.805  0.00  0.00    +0.216 C 
ATOM     35  H   UNL     1      -4.965 -12.516  14.968  0.00  0.00    +0.149 HD
BRANCH  16  15
ATOM     15  C   UNL     1      -3.044 -12.381  13.372  0.00  0.00    +0.075 C 
ATOM     17  C   UNL     1      -4.374 -11.971  12.733  0.00  0.00    +0.013 C 
ATOM     18  C   UNL     1      -1.832 -11.858  12.600  0.00  0.00    +0.013 C 
ATOM     19  C   UNL     1      -4.445 -10.488  12.377  0.00  0.00    +0.001 C 
ATOM     20  C   UNL     1      -1.931 -10.371  12.264  0.00  0.00    +0.001 C 
ATOM     21  C   UNL     1      -3.240 -10.041  11.556  0.00  0.00    +0.000 C 
ENDBRANCH  16  15
ENDBRANCH  11   7
ENDBRANCH   3  12
BRANCH   3  22
ATOM      5  O   UNL     1      -9.888 -10.709  16.867  0.00  0.00    -0.226 OA
ATOM      8  N   UNL     1      -9.602  -8.486  17.544  0.00  0.00    -0.251 N 
ATOM     22  C   UNL     1      -9.344  -9.843  17.541  0.00  0.00    +0.405 C 
ATOM     36  H   UNL     1      -9.043  -7.922  18.179  0.00  0.00    +0.158 HD
BRANCH   8  23
ATOM     23  C   UNL     1     -10.551  -7.779  16.770  0.00  0.00    +0.037 A 
ATOM     24  C   UNL     1     -11.895  -8.154  16.803  0.00  0.00    +0.027 A 
ATOM     25  C   UNL     1     -10.145  -6.708  15.976  0.00  0.00    +0.027 A 
ATOM     26  C   UNL     1     -12.832  -7.455  16.041  0.00  0.00    +0.048 A 
ATOM     27  C   UNL     1     -11.081  -6.010  15.213  0.00  0.00    +0.048 A 
ATOM     28  C   UNL     1     -12.425  -6.383  15.247  0.00  0.00    +0.129 A 
BRANCH  28   6
ATOM      6  O   UNL     1     -13.340  -5.701  14.504  0.00  0.00    -0.456 OA
BRANCH   6  29
ATOM     29  C   UNL     1     -12.941  -5.232  13.265  0.00  0.00    +0.128 A 
ATOM     30  C   UNL     1     -12.726  -6.126  12.215  0.00  0.00    +0.046 A 
ATOM     31  C   UNL     1     -12.753  -3.864  13.064  0.00  0.00    +0.046 A 
ATOM     32  C   UNL     1     -12.324  -5.652  10.966  0.00  0.00    +0.004 A 
ATOM     33  C   UNL     1     -12.351  -3.391  11.815  0.00  0.00    +0.004 A 
ATOM     34  C   UNL     1     -12.136  -4.285  10.767  0.00  0.00    +0.000 A 
ENDBRANCH   6  29
ENDBRANCH  28   6
ENDBRANCH   8  23
ENDBRANCH   3  22
TORSDOF 7
ENDMDL
MODEL 4
REMARK VINA RESULT:      -7.4      1.968     11.581
REMARK  Name = 11884024
REMARK  7 active torsions:
REMARK  status: ('A' for Active; 'I' for Inactive)
REMARK    1  A    between atoms: O_3  and  C_12
REMARK    2  A    between atoms: O_3  and  C_22
REMARK    3  A    between atoms: O_6  and  C_28
REMARK    4  A    between atoms: O_6  and  C_29
REMARK    5  A    between atoms: N_7  and  C_11
REMARK    6  A    between atoms: N_8  and  C_23
REMARK    7  A    between atoms: C_15  and  C_16
REMARK                            x       y       z     vdW  Elec       q    Type
REMARK                         _______ _______ _______ _____ _____    ______ ____
ROOT
ATOM      3  O   UNL     1     -16.139   3.290  24.611  0.00  0.00    -0.442 OA
ENDROOT
BRANCH   3  12
ATOM      1  O   UNL     1     -15.052   4.365  22.293  0.00  0.00    -0.368 OA
ATOM      2  O   UNL     1     -16.978   6.522  23.313  0.00  0.00    -0.368 OA
ATOM      9  C   UNL     1     -15.549   6.535  23.108  0.00  0.00    +0.173 C 
ATOM     10  C   UNL     1     -15.038   5.160  23.490  0.00  0.00    +0.192 C 
ATOM     11  C   UNL     1     -15.237   6.640  21.634  0.00  0.00    +0.130 C 
ATOM     12  C   UNL     1     -16.073   4.692  24.485  0.00  0.00    +0.235 C 
ATOM     13  C   UNL     1     -15.375   5.200  21.171  0.00  0.00    +0.185 C 
ATOM     14  C   UNL     1     -17.347   5.274  23.917  0.00  0.00    +0.207 C 
BRANCH  11   7
ATOM      4  O   UNL     1     -14.460   9.314  20.810  0.00  0.00    -0.276 OA
ATOM      7  N   UNL     1     -13.901   7.137  21.415  0.00  0.00    -0.307 N 
ATOM     16  C   UNL     1     -13.627   8.437  21.021  0.00  0.00    +0.216 C 
ATOM     35  H   UNL     1     -13.126   6.513  21.626  0.00  0.00    +0.149 HD
BRANCH  16  15
ATOM     15  C   UNL     1     -12.154   8.696  20.892  0.00  0.00    +0.075 C 
ATOM     17  C   UNL     1     -11.402   7.419  20.510  0.00  0.00    +0.013 C 
ATOM     18  C   UNL     1     -11.906   9.844  19.910  0.00  0.00    +0.013 C 
ATOM     19  C   UNL     1     -11.561   7.037  19.039  0.00  0.00    +0.001 C 
ATOM     20  C   UNL     1     -12.077   9.430  18.450  0.00  0.00    +0.001 C 
ATOM     21  C   UNL     1     -11.241   8.202  18.110  0.00  0.00    +0.000 C 
ENDBRANCH  16  15
ENDBRANCH  11   7
ENDBRANCH   3  12
BRANCH   3  22
ATOM      5  O   UNL     1     -16.813   1.667  26.074  0.00  0.00    -0.226 OA
ATOM      8  N   UNL     1     -15.986   3.726  26.818  0.00  0.00    -0.251 N 
ATOM     22  C   UNL     1     -16.358   2.786  25.877  0.00  0.00    +0.405 C 
ATOM     36  H   UNL     1     -15.624   4.606  26.458  0.00  0.00    +0.158 HD
BRANCH   8  23
ATOM     23  C   UNL     1     -16.045   3.618  28.226  0.00  0.00    +0.037 A 
ATOM     24  C   UNL     1     -17.236   3.897  28.897  0.00  0.00    +0.027 A 
ATOM     25  C   UNL     1     -14.914   3.231  28.944  0.00  0.00    +0.027 A 
ATOM     26  C   UNL     1     -17.296   3.788  30.287  0.00  0.00    +0.048 A 
ATOM     27  C   UNL     1     -14.973   3.122  30.334  0.00  0.00    +0.048 A 
ATOM     28  C   UNL     1     -16.164   3.401  31.005  0.00  0.00    +0.129 A 
BRANCH  28   6
ATOM      6  O   UNL     1     -16.222   3.293  32.361  0.00  0.00    -0.456 OA
BRANCH   6  29
ATOM     29  C   UNL     1     -15.550   4.243  33.111  0.00  0.00    +0.128 A 
ATOM     30  C   UNL     1     -14.783   3.849  34.209  0.00  0.00    +0.046 A 
ATOM     31  C   UNL     1     -15.641   5.593  32.772  0.00  0.00    +0.046 A 
ATOM     32  C   UNL     1     -14.106   4.807  34.965  0.00  0.00    +0.004 A 
ATOM     33  C   UNL     1     -14.964   6.549  33.529  0.00  0.00    +0.004 A 
ATOM     34  C   UNL     1     -14.198   6.156  34.625  0.00  0.00    +0.000 A 
ENDBRANCH   6  29
ENDBRANCH  28   6
ENDBRANCH   8  23
ENDBRANCH   3  22
TORSDOF 7
ENDMDL
MODEL 5
REMARK VINA RESULT:      -7.3     29.493     33.397
REMARK  Name = 11884024
REMARK  7 active torsions:
REMARK  status: ('A' for Active; 'I' for Inactive)
REMARK    1  A    between atoms: O_3  and  C_12
REMARK    2  A    between atoms: O_3  and  C_22
REMARK    3  A    between atoms: O_6  and  C_28
REMARK    4  A    between atoms: O_6  and  C_29
REMARK    5  A    between atoms: N_7  and  C_11
REMARK    6  A    between atoms: N_8  and  C_23
REMARK    7  A    between atoms: C_15  and  C_16
REMARK                            x       y       z     vdW  Elec       q    Type
REMARK                         _______ _______ _______ _____ _____    ______ ____
ROOT
ATOM      3  O   UNL     1      10.964   4.986  -1.891  0.00  0.00    -0.442 OA
ENDROOT
BRANCH   3  12
ATOM      1  O   UNL     1      11.281   4.079   0.714  0.00  0.00    -0.368 OA
ATOM      2  O   UNL     1      12.168   7.013   0.807  0.00  0.00    -0.368 OA
ATOM      9  C   UNL     1      11.098   6.316   1.478  0.00  0.00    +0.173 C 
ATOM     10  C   UNL     1      10.552   5.299   0.497  0.00  0.00    +0.192 C 
ATOM     11  C   UNL     1      11.652   5.474   2.603  0.00  0.00    +0.130 C 
ATOM     12  C   UNL     1      10.887   5.920  -0.838  0.00  0.00    +0.235 C 
ATOM     13  C   UNL     1      12.118   4.226   1.872  0.00  0.00    +0.185 C 
ATOM     14  C   UNL     1      12.221   6.575  -0.559  0.00  0.00    +0.207 C 
BRANCH  11   7
ATOM      4  O   UNL     1      11.552   6.308   5.383  0.00  0.00    -0.276 OA
ATOM      7  N   UNL     1      10.633   5.163   3.576  0.00  0.00    -0.307 N 
ATOM     16  C   UNL     1      10.672   5.610   4.887  0.00  0.00    +0.216 C 
ATOM     35  H   UNL     1       9.820   4.644   3.256  0.00  0.00    +0.149 HD
BRANCH  16  15
ATOM     15  C   UNL     1       9.476   5.164   5.678  0.00  0.00    +0.075 C 
ATOM     17  C   UNL     1       9.830   4.984   7.156  0.00  0.00    +0.013 C 
ATOM     18  C   UNL     1       8.311   6.132   5.463  0.00  0.00    +0.013 C 
ATOM     19  C   UNL     1       9.959   6.303   7.915  0.00  0.00    +0.001 C 
ATOM     20  C   UNL     1       8.473   7.443   6.231  0.00  0.00    +0.001 C 
ATOM     21  C   UNL     1       8.742   7.198   7.711  0.00  0.00    +0.000 C 
ENDBRANCH  16  15
ENDBRANCH  11   7
ENDBRANCH   3  12
BRANCH   3  22
ATOM      5  O   UNL     1       9.425   3.546  -2.777  0.00  0.00    -0.226 OA
ATOM      8  N   UNL     1       9.145   5.868  -2.889  0.00  0.00    -0.251 N 
ATOM     22  C   UNL     1       9.790   4.694  -2.553  0.00  0.00    +0.405 C 
ATOM     36  H   UNL     1       9.607   6.730  -2.613  0.00  0.00    +0.158 HD
BRANCH   8  23
ATOM     23  C   UNL     1       7.916   6.020  -3.572  0.00  0.00    +0.037 A 
ATOM     24  C   UNL     1       6.819   6.578  -2.915  0.00  0.00    +0.027 A 
ATOM     25  C   UNL     1       7.802   5.615  -4.900  0.00  0.00    +0.027 A 
ATOM     26  C   UNL     1       5.606   6.731  -3.589  0.00  0.00    +0.048 A 
ATOM     27  C   UNL     1       6.590   5.767  -5.575  0.00  0.00    +0.048 A 
ATOM     28  C   UNL     1       5.493   6.325  -4.919  0.00  0.00    +0.129 A 
BRANCH  28   6
ATOM      6  O   UNL     1       4.310   6.475  -5.577  0.00  0.00    -0.456 OA
BRANCH   6  29
ATOM     29  C   UNL     1       3.300   5.571  -5.300  0.00  0.00    +0.128 A 
ATOM     30  C   UNL     1       3.518   4.204  -5.479  0.00  0.00    +0.046 A 
ATOM     31  C   UNL     1       2.062   6.025  -4.842  0.00  0.00    +0.046 A 
ATOM     32  C   UNL     1       2.498   3.293  -5.199  0.00  0.00    +0.004 A 
ATOM     33  C   UNL     1       1.044   5.114  -4.564  0.00  0.00    +0.004 A 
ATOM     34  C   UNL     1       1.262   3.748  -4.743  0.00  0.00    +0.000 A 
ENDBRANCH   6  29
ENDBRANCH  28   6
ENDBRANCH   8  23
ENDBRANCH   3  22
TORSDOF 7
ENDMDL
MODEL 6
REMARK VINA RESULT:      -7.3      5.512      7.171
REMARK  Name = 11884024
REMARK  7 active torsions:
REMARK  status: ('A' for Active; 'I' for Inactive)
REMARK    1  A    between atoms: O_3  and  C_12
REMARK    2  A    between atoms: O_3  and  C_22
REMARK    3  A    between atoms: O_6  and  C_28
REMARK    4  A    between atoms: O_6  and  C_29
REMARK    5  A    between atoms: N_7  and  C_11
REMARK    6  A    between atoms: N_8  and  C_23
REMARK    7  A    between atoms: C_15  and  C_16
REMARK                            x       y       z     vdW  Elec       q    Type
REMARK                         _______ _______ _______ _____ _____    ______ ____
ROOT
ATOM      3  O   UNL     1     -10.968  11.168  28.961  0.00  0.00    -0.442 OA
ENDROOT
BRANCH   3  12
ATOM      1  O   UNL     1     -11.495   9.179  30.825  0.00  0.00    -0.368 OA
ATOM      2  O   UNL     1     -12.748  11.708  32.023  0.00  0.00    -0.368 OA
ATOM      9  C   UNL     1     -13.332  10.454  31.614  0.00  0.00    +0.173 C 
ATOM     10  C   UNL     1     -12.583  10.003  30.376  0.00  0.00    +0.192 C 
ATOM     11  C   UNL     1     -13.024   9.382  32.633  0.00  0.00    +0.130 C 
ATOM     12  C   UNL     1     -12.094  11.309  29.797  0.00  0.00    +0.235 C 
ATOM     13  C   UNL     1     -11.621   8.953  32.237  0.00  0.00    +0.185 C 
ATOM     14  C   UNL     1     -11.784  12.112  31.040  0.00  0.00    +0.207 C 
BRANCH  11   7
ATOM      4  O   UNL     1     -13.676   7.433  34.685  0.00  0.00    -0.276 OA
ATOM      7  N   UNL     1     -13.956   8.284  32.536  0.00  0.00    -0.307 N 
ATOM     16  C   UNL     1     -14.202   7.402  33.576  0.00  0.00    +0.216 C 
ATOM     35  H   UNL     1     -14.499   8.202  31.681  0.00  0.00    +0.149 HD
BRANCH  16  15
ATOM     15  C   UNL     1     -15.233   6.370  33.217  0.00  0.00    +0.075 C 
ATOM     17  C   UNL     1     -14.814   5.584  31.972  0.00  0.00    +0.013 C 
ATOM     18  C   UNL     1     -15.514   5.467  34.419  0.00  0.00    +0.013 C 
ATOM     19  C   UNL     1     -13.730   4.543  32.246  0.00  0.00    +0.001 C 
ATOM     20  C   UNL     1     -14.410   4.441  34.670  0.00  0.00    +0.001 C 
ATOM     21  C   UNL     1     -14.096   3.635  33.415  0.00  0.00    +0.000 C 
ENDBRANCH  16  15
ENDBRANCH  11   7
ENDBRANCH   3  12
BRANCH   3  22
ATOM      5  O   UNL     1     -10.691   9.408  27.528  0.00  0.00    -0.226 OA
ATOM      8  N   UNL     1     -11.934  11.299  26.928  0.00  0.00    -0.251 N 
ATOM     22  C   UNL     1     -11.159  10.515  27.761  0.00  0.00    +0.405 C 
ATOM     36  H   UNL     1     -12.233  12.195  27.302  0.00  0.00    +0.158 HD
BRANCH   8  23
ATOM     23  C   UNL     1     -12.365  11.008  25.613  0.00  0.00    +0.037 A 
ATOM     24  C   UNL     1     -11.622  11.458  24.521  0.00  0.00    +0.027 A 
ATOM     25  C   UNL     1     -13.530  10.271  25.408  0.00  0.00    +0.027 A 
ATOM     26  C   UNL     1     -12.046  11.170  23.223  0.00  0.00    +0.048 A 
ATOM     27  C   UNL     1     -13.955   9.983  24.110  0.00  0.00    +0.048 A 
ATOM     28  C   UNL     1     -13.212  10.433  23.018  0.00  0.00    +0.129 A 
BRANCH  28   6
ATOM      6  O   UNL     1     -13.625  10.151  21.752  0.00  0.00    -0.456 OA
BRANCH   6  29
ATOM     29  C   UNL     1     -12.885   9.238  21.021  0.00  0.00    +0.128 A 
ATOM     30  C   UNL     1     -12.119   9.669  19.937  0.00  0.00    +0.046 A 
ATOM     31  C   UNL     1     -12.904   7.886  21.367  0.00  0.00    +0.046 A 
ATOM     32  C   UNL     1     -11.373   8.748  19.199  0.00  0.00    +0.004 A 
ATOM     33  C   UNL     1     -12.159   6.967  20.630  0.00  0.00    +0.004 A 
ATOM     34  C   UNL     1     -11.394   7.398  19.546  0.00  0.00    +0.000 A 
ENDBRANCH   6  29
ENDBRANCH  28   6
ENDBRANCH   8  23
ENDBRANCH   3  22
TORSDOF 7
ENDMDL
MODEL 7
REMARK VINA RESULT:      -7.3     18.896     20.522
REMARK  Name = 11884024
REMARK  7 active torsions:
REMARK  status: ('A' for Active; 'I' for Inactive)
REMARK    1  A    between atoms: O_3  and  C_12
REMARK    2  A    between atoms: O_3  and  C_22
REMARK    3  A    between atoms: O_6  and  C_28
REMARK    4  A    between atoms: O_6  and  C_29
REMARK    5  A    between atoms: N_7  and  C_11
REMARK    6  A    between atoms: N_8  and  C_23
REMARK    7  A    between atoms: C_15  and  C_16
REMARK                            x       y       z     vdW  Elec       q    Type
REMARK                         _______ _______ _______ _____ _____    ______ ____
ROOT
ATOM      3  O   UNL     1      -4.057 -11.799  17.349  0.00  0.00    -0.442 OA
ENDROOT
BRANCH   3  12
ATOM      1  O   UNL     1      -6.811 -11.541  17.110  0.00  0.00    -0.368 OA
ATOM      2  O   UNL     1      -6.255 -11.133  20.098  0.00  0.00    -0.368 OA
ATOM      9  C   UNL     1      -6.828 -10.258  19.104  0.00  0.00    +0.173 C 
ATOM     10  C   UNL     1      -6.085 -10.517  17.809  0.00  0.00    +0.192 C 
ATOM     11  C   UNL     1      -8.246 -10.679  18.797  0.00  0.00    +0.130 C 
ATOM     12  C   UNL     1      -4.745 -11.015  18.297  0.00  0.00    +0.235 C 
ATOM     13  C   UNL     1      -8.039 -11.810  17.804  0.00  0.00    +0.185 C 
ATOM     14  C   UNL     1      -5.127 -11.810  19.524  0.00  0.00    +0.207 C 
BRANCH  11   7
ATOM      4  O   UNL     1     -11.132 -10.464  18.556  0.00  0.00    -0.276 OA
ATOM      7  N   UNL     1      -8.999  -9.597  18.212  0.00  0.00    -0.307 N 
ATOM     16  C   UNL     1     -10.383  -9.583  18.143  0.00  0.00    +0.216 C 
ATOM     35  H   UNL     1      -8.482  -8.781  17.896  0.00  0.00    +0.149 HD
BRANCH  16  15
ATOM     15  C   UNL     1     -10.911  -8.329  17.509  0.00  0.00    +0.075 C 
ATOM     17  C   UNL     1      -9.909  -7.758  16.502  0.00  0.00    +0.013 C 
ATOM     18  C   UNL     1     -12.286  -8.589  16.892  0.00  0.00    +0.013 C 
ATOM     19  C   UNL     1      -9.873  -8.524  15.181  0.00  0.00    +0.001 C 
ATOM     20  C   UNL     1     -12.216  -9.361  15.575  0.00  0.00    +0.001 C 
ATOM     21  C   UNL     1     -11.265  -8.698  14.585  0.00  0.00    +0.000 C 
ENDBRANCH  16  15
ENDBRANCH  11   7
ENDBRANCH   3  12
BRANCH   3  22
ATOM      5  O   UNL     1      -2.580 -10.368  16.348  0.00  0.00    -0.226 OA
ATOM      8  N   UNL     1      -4.223 -11.497  15.120  0.00  0.00    -0.251 N 
ATOM     22  C   UNL     1      -3.527 -11.140  16.259  0.00  0.00    +0.405 C 
ATOM     36  H   UNL     1      -4.985 -12.158  15.247  0.00  0.00    +0.158 HD
BRANCH   8  23
ATOM     23  C   UNL     1      -4.008 -11.054  13.795  0.00  0.00    +0.037 A 
ATOM     24  C   UNL     1      -2.795 -11.321  13.159  0.00  0.00    +0.027 A 
ATOM     25  C   UNL     1      -5.008 -10.353  13.124  0.00  0.00    +0.027 A 
ATOM     26  C   UNL     1      -2.583 -10.887  11.850  0.00  0.00    +0.048 A 
ATOM     27  C   UNL     1      -4.797  -9.917  11.815  0.00  0.00    +0.048 A 
ATOM     28  C   UNL     1      -3.584 -10.185  11.179  0.00  0.00    +0.129 A 
BRANCH  28   6
ATOM      6  O   UNL     1      -3.378  -9.761   9.901  0.00  0.00    -0.456 OA
BRANCH   6  29
ATOM     29  C   UNL     1      -4.253 -10.207   8.926  0.00  0.00    +0.128 A 
ATOM     30  C   UNL     1      -5.081  -9.299   8.265  0.00  0.00    +0.046 A 
ATOM     31  C   UNL     1      -4.308 -11.564   8.605  0.00  0.00    +0.046 A 
ATOM     32  C   UNL     1      -5.964  -9.749   7.282  0.00  0.00    +0.004 A 
ATOM     33  C   UNL     1      -5.191 -12.012   7.622  0.00  0.00    +0.004 A 
ATOM     34  C   UNL     1      -6.019 -11.105   6.962  0.00  0.00    +0.000 A 
ENDBRANCH   6  29
ENDBRANCH  28   6
ENDBRANCH   8  23
ENDBRANCH   3  22
TORSDOF 7
ENDMDL
MODEL 8
REMARK VINA RESULT:      -7.2     16.621     19.478
REMARK  Name = 11884024
REMARK  7 active torsions:
REMARK  status: ('A' for Active; 'I' for Inactive)
REMARK    1  A    between atoms: O_3  and  C_12
REMARK    2  A    between atoms: O_3  and  C_22
REMARK    3  A    between atoms: O_6  and  C_28
REMARK    4  A    between atoms: O_6  and  C_29
REMARK    5  A    between atoms: N_7  and  C_11
REMARK    6  A    between atoms: N_8  and  C_23
REMARK    7  A    between atoms: C_15  and  C_16
REMARK                            x       y       z     vdW  Elec       q    Type
REMARK                         _______ _______ _______ _____ _____    ______ ____
ROOT
ATOM      3  O   UNL     1     -11.559  -9.155  15.948  0.00  0.00    -0.442 OA
ENDROOT
BRANCH   3  12
ATOM      1  O   UNL     1     -13.447  -7.679  14.546  0.00  0.00    -0.368 OA
ATOM      2  O   UNL     1     -11.543  -5.579  15.716  0.00  0.00    -0.368 OA
ATOM      9  C   UNL     1     -11.874  -5.916  14.352  0.00  0.00    +0.173 C 
ATOM     10  C   UNL     1     -12.055  -7.419  14.302  0.00  0.00    +0.192 C 
ATOM     11  C   UNL     1     -13.241  -5.375  14.001  0.00  0.00    +0.130 C 
ATOM     12  C   UNL     1     -11.189  -7.891  15.445  0.00  0.00    +0.235 C 
ATOM     13  C   UNL     1     -14.164  -6.436  14.575  0.00  0.00    +0.185 C 
ATOM     14  C   UNL     1     -11.383  -6.793  16.466  0.00  0.00    +0.207 C 
BRANCH  11   7
ATOM      4  O   UNL     1     -12.439  -3.150  12.316  0.00  0.00    -0.276 OA
ATOM      7  N   UNL     1     -13.405  -5.252  12.573  0.00  0.00    -0.307 N 
ATOM     16  C   UNL     1     -12.987  -4.145  11.852  0.00  0.00    +0.216 C 
ATOM     35  H   UNL     1     -13.789  -6.050  12.073  0.00  0.00    +0.149 HD
BRANCH  16  15
ATOM     15  C   UNL     1     -13.255  -4.287  10.382  0.00  0.00    +0.075 C 
ATOM     17  C   UNL     1     -12.491  -3.232   9.578  0.00  0.00    +0.013 C 
ATOM     18  C   UNL     1     -12.946  -5.715   9.926  0.00  0.00    +0.013 C 
ATOM     19  C   UNL     1     -11.002  -3.539   9.433  0.00  0.00    +0.001 C 
ATOM     20  C   UNL     1     -11.449  -5.991   9.795  0.00  0.00    +0.001 C 
ATOM     21  C   UNL     1     -10.760  -4.953   8.917  0.00  0.00    +0.000 C 
ENDBRANCH  16  15
ENDBRANCH  11   7
ENDBRANCH   3  12
BRANCH   3  22
ATOM      5  O   UNL     1     -10.711 -10.980  17.034  0.00  0.00    -0.226 OA
ATOM      8  N   UNL     1      -9.354  -9.577  15.740  0.00  0.00    -0.251 N 
ATOM     22  C   UNL     1     -10.537 -10.006  16.312  0.00  0.00    +0.405 C 
ATOM     36  H   UNL     1      -9.409  -8.741  15.165  0.00  0.00    +0.158 HD
BRANCH   8  23
ATOM     23  C   UNL     1      -8.071 -10.160  15.855  0.00  0.00    +0.037 A 
ATOM     24  C   UNL     1      -7.089  -9.536  16.625  0.00  0.00    +0.027 A 
ATOM     25  C   UNL     1      -7.788 -11.358  15.201  0.00  0.00    +0.027 A 
ATOM     26  C   UNL     1      -5.823 -10.111  16.740  0.00  0.00    +0.048 A 
ATOM     27  C   UNL     1      -6.523 -11.934  15.316  0.00  0.00    +0.048 A 
ATOM     28  C   UNL     1      -5.540 -11.310  16.086  0.00  0.00    +0.129 A 
BRANCH  28   6
ATOM      6  O   UNL     1      -4.306 -11.872  16.199  0.00  0.00    -0.456 OA
BRANCH   6  29
ATOM     29  C   UNL     1      -3.244 -11.220  15.597  0.00  0.00    +0.128 A 
ATOM     30  C   UNL     1      -2.165 -10.784  16.368  0.00  0.00    +0.046 A 
ATOM     31  C   UNL     1      -3.252 -10.997  14.220  0.00  0.00    +0.046 A 
ATOM     32  C   UNL     1      -1.095 -10.126  15.760  0.00  0.00    +0.004 A 
ATOM     33  C   UNL     1      -2.182 -10.339  13.613  0.00  0.00    +0.004 A 
ATOM     34  C   UNL     1      -1.104  -9.904  14.384  0.00  0.00    +0.000 A 
ENDBRANCH   6  29
ENDBRANCH  28   6
ENDBRANCH   8  23
ENDBRANCH   3  22
TORSDOF 7
ENDMDL
MODEL 9
REMARK VINA RESULT:      -7.1     18.264     20.003
REMARK  Name = 11884024
REMARK  7 active torsions:
REMARK  status: ('A' for Active; 'I' for Inactive)
REMARK    1  A    between atoms: O_3  and  C_12
REMARK    2  A    between atoms: O_3  and  C_22
REMARK    3  A    between atoms: O_6  and  C_28
REMARK    4  A    between atoms: O_6  and  C_29
REMARK    5  A    between atoms: N_7  and  C_11
REMARK    6  A    between atoms: N_8  and  C_23
REMARK    7  A    between atoms: C_15  and  C_16
REMARK                            x       y       z     vdW  Elec       q    Type
REMARK                         _______ _______ _______ _____ _____    ______ ____
ROOT
ATOM      3  O   UNL     1      -5.461 -10.693  19.246  0.00  0.00    -0.442 OA
ENDROOT
BRANCH   3  12
ATOM      1  O   UNL     1      -7.218  -9.668  17.356  0.00  0.00    -0.368 OA
ATOM      2  O   UNL     1      -8.498 -12.310  18.245  0.00  0.00    -0.368 OA
ATOM      9  C   UNL     1      -8.960 -10.946  18.335  0.00  0.00    +0.173 C 
ATOM     10  C   UNL     1      -7.745 -10.088  18.626  0.00  0.00    +0.192 C 
ATOM     11  C   UNL     1      -9.426 -10.466  16.980  0.00  0.00    +0.130 C 
ATOM     12  C   UNL     1      -6.821 -11.058  19.322  0.00  0.00    +0.235 C 
ATOM     13  C   UNL     1      -8.120 -10.067  16.313  0.00  0.00    +0.185 C 
ATOM     14  C   UNL     1      -7.106 -12.351  18.592  0.00  0.00    +0.207 C 
BRANCH  11   7
ATOM      4  O   UNL     1     -11.799  -9.914  15.400  0.00  0.00    -0.276 OA
ATOM      7  N   UNL     1     -10.318  -9.339  17.102  0.00  0.00    -0.307 N 
ATOM     16  C   UNL     1     -11.433  -9.161  16.298  0.00  0.00    +0.216 C 
ATOM     35  H   UNL     1     -10.148  -8.683  17.860  0.00  0.00    +0.149 HD
BRANCH  16  15
ATOM     15  C   UNL     1     -12.201  -7.921  16.653  0.00  0.00    +0.075 C 
ATOM     17  C   UNL     1     -11.258  -6.736  16.880  0.00  0.00    +0.013 C 
ATOM     18  C   UNL     1     -13.262  -7.636  15.589  0.00  0.00    +0.013 C 
ATOM     19  C   UNL     1     -10.709  -6.140  15.586  0.00  0.00    +0.001 C 
ATOM     20  C   UNL     1     -12.680  -7.045  14.306  0.00  0.00    +0.001 C 
ATOM     21  C   UNL     1     -11.818  -5.821  14.590  0.00  0.00    +0.000 C 
ENDBRANCH  16  15
ENDBRANCH  11   7
ENDBRANCH   3  12
BRANCH   3  22
ATOM      5  O   UNL     1      -4.233 -12.347  18.252  0.00  0.00    -0.226 OA
ATOM      8  N   UNL     1      -4.668 -10.318  17.168  0.00  0.00    -0.251 N 
ATOM     22  C   UNL     1      -4.729 -11.228  18.206  0.00  0.00    +0.405 C 
ATOM     36  H   UNL     1      -5.148  -9.434  17.316  0.00  0.00    +0.158 HD
BRANCH   8  23
ATOM     23  C   UNL     1      -4.020 -10.464  15.920  0.00  0.00    +0.037 A 
ATOM     24  C   UNL     1      -4.773 -10.530  14.748  0.00  0.00    +0.027 A 
ATOM     25  C   UNL     1      -2.630 -10.540  15.862  0.00  0.00    +0.027 A 
ATOM     26  C   UNL     1      -4.134 -10.672  13.515  0.00  0.00    +0.048 A 
ATOM     27  C   UNL     1      -1.989 -10.683  14.630  0.00  0.00    +0.048 A 
ATOM     28  C   UNL     1      -2.742 -10.748  13.457  0.00  0.00    +0.129 A 
BRANCH  28   6
ATOM      6  O   UNL     1      -2.118 -10.886  12.255  0.00  0.00    -0.456 OA
BRANCH   6  29
ATOM     29  C   UNL     1      -2.871 -10.684  11.112  0.00  0.00    +0.128 A 
ATOM     30  C   UNL     1      -3.023  -9.397  10.595  0.00  0.00    +0.046 A 
ATOM     31  C   UNL     1      -3.479 -11.767  10.476  0.00  0.00    +0.046 A 
ATOM     32  C   UNL     1      -3.783  -9.194   9.442  0.00  0.00    +0.004 A 
ATOM     33  C   UNL     1      -4.239 -11.563   9.324  0.00  0.00    +0.004 A 
ATOM     34  C   UNL     1      -4.391 -10.277   8.808  0.00  0.00    +0.000 A 
ENDBRANCH   6  29
ENDBRANCH  28   6
ENDBRANCH   8  23
ENDBRANCH   3  22
TORSDOF 7
ENDMDL
MODEL 10
REMARK VINA RESULT:      -7.1     25.636     28.903
REMARK  Name = 11884024
REMARK  7 active torsions:
REMARK  status: ('A' for Active; 'I' for Inactive)
REMARK    1  A    between atoms: O_3  and  C_12
REMARK    2  A    between atoms: O_3  and  C_22
REMARK    3  A    between atoms: O_6  and  C_28
REMARK    4  A    between atoms: O_6  and  C_29
REMARK    5  A    between atoms: N_7  and  C_11
REMARK    6  A    between atoms: N_8  and  C_23
REMARK    7  A    between atoms: C_15  and  C_16
REMARK                            x       y       z     vdW  Elec       q    Type
REMARK                         _______ _______ _______ _____ _____    ______ ____
ROOT
ATOM      3  O   UNL     1      12.735   7.806  18.665  0.00  0.00    -0.442 OA
ENDROOT
BRANCH   3  12
ATOM      1  O   UNL     1      10.846   8.695  20.495  0.00  0.00    -0.368 OA
ATOM      2  O   UNL     1      13.328   8.082  22.188  0.00  0.00    -0.368 OA
ATOM      9  C   UNL     1      12.605   9.310  21.960  0.00  0.00    +0.173 C 
ATOM     10  C   UNL     1      12.152   9.292  20.515  0.00  0.00    +0.192 C 
ATOM     11  C   UNL     1      11.314   9.304  22.744  0.00  0.00    +0.130 C 
ATOM     12  C   UNL     1      13.183   8.404  19.861  0.00  0.00    +0.235 C 
ATOM     13  C   UNL     1      10.393   8.498  21.843  0.00  0.00    +0.185 C 
ATOM     14  C   UNL     1      13.456   7.382  20.941  0.00  0.00    +0.207 C 
BRANCH  11   7
ATOM      4  O   UNL     1      11.268  10.825  25.218  0.00  0.00    -0.276 OA
ATOM      7  N   UNL     1      10.815  10.643  22.942  0.00  0.00    -0.307 N 
ATOM     16  C   UNL     1      10.837  11.290  24.167  0.00  0.00    +0.216 C 
ATOM     35  H   UNL     1      10.494  11.151  22.122  0.00  0.00    +0.149 HD
BRANCH  16  15
ATOM     15  C   UNL     1      10.281  12.683  24.087  0.00  0.00    +0.075 C 
ATOM     17  C   UNL     1      10.576  13.467  25.368  0.00  0.00    +0.013 C 
ATOM     18  C   UNL     1      10.799  13.385  22.831  0.00  0.00    +0.013 C 
ATOM     19  C   UNL     1      12.023  13.948  25.466  0.00  0.00    +0.001 C 
ATOM     20  C   UNL     1      12.249  13.849  22.959  0.00  0.00    +0.001 C 
ATOM     21  C   UNL     1      12.461  14.694  24.210  0.00  0.00    +0.000 C 
ENDBRANCH  16  15
ENDBRANCH  11   7
ENDBRANCH   3  12
BRANCH   3  22
ATOM      5  O   UNL     1      11.924   8.547  16.659  0.00  0.00    -0.226 OA
ATOM      8  N   UNL     1      13.943   9.341  17.538  0.00  0.00    -0.251 N 
ATOM     22  C   UNL     1      12.793   8.576  17.522  0.00  0.00    +0.405 C 
ATOM     36  H   UNL     1      14.547   9.229  18.349  0.00  0.00    +0.158 HD
BRANCH   8  23
ATOM     23  C   UNL     1      14.388  10.265  16.564  0.00  0.00    +0.037 A 
ATOM     24  C   UNL     1      14.828   9.809  15.322  0.00  0.00    +0.027 A 
ATOM     25  C   UNL     1      14.384  11.630  16.846  0.00  0.00    +0.027 A 
ATOM     26  C   UNL     1      15.265  10.720  14.359  0.00  0.00    +0.048 A 
ATOM     27  C   UNL     1      14.822  12.542  15.884  0.00  0.00    +0.048 A 
ATOM     28  C   UNL     1      15.262  12.086  14.641  0.00  0.00    +0.129 A 
BRANCH  28   6
ATOM      6  O   UNL     1      15.688  12.975  13.702  0.00  0.00    -0.456 OA
BRANCH   6  29
ATOM     29  C   UNL     1      16.871  12.697  13.041  0.00  0.00    +0.128 A 
ATOM     30  C   UNL     1      18.074  12.666  13.748  0.00  0.00    +0.046 A 
ATOM     31  C   UNL     1      16.863  12.450  11.668  0.00  0.00    +0.046 A 
ATOM     32  C   UNL     1      19.268  12.386  13.081  0.00  0.00    +0.004 A 
ATOM     33  C   UNL     1      18.056  12.170  11.002  0.00  0.00    +0.004 A 
ATOM     34  C   UNL     1      19.258  12.139  11.709  0.00  0.00    +0.000 A 
ENDBRANCH   6  29
ENDBRANCH  28   6
ENDBRANCH   8  23
ENDBRANCH   3  22
TORSDOF 7
ENDMDL
