MODEL 1
REMARK VINA RESULT:      -6.5      0.000      0.000
REMARK  Name = 7049320
REMARK  10 active torsions:
REMARK  status: ('A' for Active; 'I' for Inactive)
REMARK    1  A    between atoms: O_1  and  C_10
REMARK    2  A    between atoms: O_2  and  C_12
REMARK    3  A    between atoms: N_6  and  C_11
REMARK    4  A    between atoms: N_7  and  C_19
REMARK    5  A    between atoms: N_8  and  C_20
REMARK    6  A    between atoms: C_14  and  C_16
REMARK    7  A    between atoms: C_17  and  C_18
REMARK    8  A    between atoms: C_18  and  C_20
REMARK    9  A    between atoms: C_19  and  C_21
REMARK   10  A    between atoms: C_19  and  C_22
REMARK                            x       y       z     vdW  Elec       q    Type
REMARK                         _______ _______ _______ _____ _____    ______ ____
ROOT
ATOM     10  C   UNL     1      12.624   7.204   6.939  0.00  0.00    +0.167 C 
ATOM     11  C   UNL     1      11.312   6.596   6.411  0.00  0.00    +0.127 C 
ATOM     12  C   UNL     1      13.255   8.158   5.919  0.00  0.00    +0.149 C 
ATOM     13  C   UNL     1      13.493   7.478   4.560  0.00  0.00    +0.074 C 
ATOM     14  C   UNL     1      12.390   6.539   4.162  0.00  0.00    +0.015 C 
ATOM     15  C   UNL     1      11.401   6.141   4.978  0.00  0.00    +0.006 C 
ENDROOT
BRANCH  14  16
ATOM      3  O   UNL     1      11.519   6.408   1.984  0.00  0.00    -0.271 OA
ATOM      7  N   UNL     1      13.392   5.132   2.530  0.00  0.00    -0.301 N 
ATOM     16  C   UNL     1      12.375   6.034   2.785  0.00  0.00    +0.240 C 
ATOM     26  H   UNL     1      14.043   4.892   3.272  0.00  0.00    +0.150 HD
BRANCH   7  19
ATOM     19  C   UNL     1      13.580   4.497   1.245  0.00  0.00    +0.156 C 
ATOM     21  C   UNL     1      12.648   3.307   1.080  0.00  0.00    +0.038 C 
BRANCH  19  22
ATOM      5  O   UNL     1      15.754   4.339   0.175  0.00  0.00    -0.274 OA
ATOM      9  N   UNL     1      15.479   3.386   2.246  0.00  0.00    -0.328 N 
ATOM     22  C   UNL     1      15.035   4.070   1.134  0.00  0.00    +0.231 C 
ATOM     29  H   UNL     1      16.436   3.055   2.306  0.00  0.00    +0.145 HD
ATOM     30  H   UNL     1      14.880   3.188   3.042  0.00  0.00    +0.145 HD
ENDBRANCH  19  22
ENDBRANCH   7  19
ENDBRANCH  14  16
BRANCH  11   6
ATOM      4  O   UNL     1       9.098   6.597   8.231  0.00  0.00    -0.276 OA
ATOM      6  N   UNL     1      10.871   5.489   7.224  0.00  0.00    -0.306 N 
ATOM     17  C   UNL     1       9.783   5.589   8.079  0.00  0.00    +0.215 C 
ATOM     23  H   UNL     1      11.403   4.623   7.198  0.00  0.00    +0.149 HD
BRANCH  17  18
ATOM     18  C   UNL     1       9.528   4.288   8.817  0.00  0.00    +0.110 C 
BRANCH  18  20
ATOM     20  C   UNL     1       9.536   4.470  10.332  0.00  0.00    +0.087 C 
BRANCH  20   8
ATOM      8  N   UNL     1       8.201   4.804  10.810  0.00  0.00    -0.330 NA
ATOM     27  H   UNL     1       8.247   5.645  11.384  0.00  0.00    +0.118 HD
ATOM     28  H   UNL     1       7.600   5.031  10.019  0.00  0.00    +0.118 HD
ENDBRANCH  20   8
ENDBRANCH  18  20
ENDBRANCH  17  18
ENDBRANCH  11   6
BRANCH  10   1
ATOM      1  O   UNL     1      13.556   6.157   7.226  0.00  0.00    -0.387 OA
ATOM     24  H   UNL     1      13.783   5.730   6.383  0.00  0.00    +0.210 HD
ENDBRANCH  10   1
BRANCH  12   2
ATOM      2  O   UNL     1      12.431   9.310   5.751  0.00  0.00    -0.389 OA
ATOM     25  H   UNL     1      12.887   9.911   5.137  0.00  0.00    +0.210 HD
ENDBRANCH  12   2
TORSDOF 9
ENDMDL
MODEL 2
REMARK VINA RESULT:      -6.0     11.853     14.589
REMARK  Name = 7049320
REMARK  10 active torsions:
REMARK  status: ('A' for Active; 'I' for Inactive)
REMARK    1  A    between atoms: O_1  and  C_10
REMARK    2  A    between atoms: O_2  and  C_12
REMARK    3  A    between atoms: N_6  and  C_11
REMARK    4  A    between atoms: N_7  and  C_19
REMARK    5  A    between atoms: N_8  and  C_20
REMARK    6  A    between atoms: C_14  and  C_16
REMARK    7  A    between atoms: C_17  and  C_18
REMARK    8  A    between atoms: C_18  and  C_20
REMARK    9  A    between atoms: C_19  and  C_21
REMARK   10  A    between atoms: C_19  and  C_22
REMARK                            x       y       z     vdW  Elec       q    Type
REMARK                         _______ _______ _______ _____ _____    ______ ____
ROOT
ATOM     10  C   UNL     1      11.894   8.175  20.089  0.00  0.00    +0.167 C 
ATOM     11  C   UNL     1      12.796   9.418  19.984  0.00  0.00    +0.127 C 
ATOM     12  C   UNL     1      12.447   7.006  19.265  0.00  0.00    +0.149 C 
ATOM     13  C   UNL     1      12.659   7.386  17.790  0.00  0.00    +0.074 C 
ATOM     14  C   UNL     1      13.186   8.781  17.604  0.00  0.00    +0.015 C 
ATOM     15  C   UNL     1      13.261   9.699  18.580  0.00  0.00    +0.006 C 
ENDROOT
BRANCH  14  16
ATOM      3  O   UNL     1      13.476   8.442  15.298  0.00  0.00    -0.271 OA
ATOM      7  N   UNL     1      14.338  10.377  16.272  0.00  0.00    -0.301 N 
ATOM     16  C   UNL     1      13.670   9.165  16.275  0.00  0.00    +0.240 C 
ATOM     26  H   UNL     1      14.443  10.889  17.143  0.00  0.00    +0.150 HD
BRANCH   7  19
ATOM     19  C   UNL     1      14.908  10.962  15.080  0.00  0.00    +0.156 C 
ATOM     21  C   UNL     1      16.189  11.716  15.398  0.00  0.00    +0.038 C 
BRANCH  19  22
ATOM      5  O   UNL     1      13.309  11.661  13.391  0.00  0.00    -0.274 OA
ATOM      9  N   UNL     1      13.591  12.982  15.249  0.00  0.00    -0.328 N 
ATOM     22  C   UNL     1      13.871  11.886  14.461  0.00  0.00    +0.231 C 
ATOM     29  H   UNL     1      12.907  13.672  14.958  0.00  0.00    +0.145 HD
ATOM     30  H   UNL     1      14.048  13.144  16.141  0.00  0.00    +0.145 HD
ENDBRANCH  19  22
ENDBRANCH   7  19
ENDBRANCH  14  16
BRANCH  11   6
ATOM      4  O   UNL     1      13.561  10.898  22.316  0.00  0.00    -0.276 OA
ATOM      6  N   UNL     1      12.145  10.595  20.503  0.00  0.00    -0.306 N 
ATOM     17  C   UNL     1      12.593  11.243  21.646  0.00  0.00    +0.215 C 
ATOM     23  H   UNL     1      11.306  10.933  20.039  0.00  0.00    +0.149 HD
BRANCH  17  18
ATOM     18  C   UNL     1      11.736  12.452  21.978  0.00  0.00    +0.110 C 
BRANCH  18  20
ATOM     20  C   UNL     1      10.893  12.237  23.231  0.00  0.00    +0.087 C 
BRANCH  20   8
ATOM      8  N   UNL     1      10.513  10.835  23.352  0.00  0.00    -0.330 NA
ATOM     27  H   UNL     1      10.249  10.638  24.317  0.00  0.00    +0.118 HD
ATOM     28  H   UNL     1       9.685  10.654  22.786  0.00  0.00    +0.118 HD
ENDBRANCH  20   8
ENDBRANCH  18  20
ENDBRANCH  17  18
ENDBRANCH  11   6
BRANCH  10   1
ATOM      1  O   UNL     1      10.583   8.492  19.613  0.00  0.00    -0.387 OA
ATOM     24  H   UNL     1      10.686   9.051  18.824  0.00  0.00    +0.210 HD
ENDBRANCH  10   1
BRANCH  12   2
ATOM      2  O   UNL     1      13.671   6.543  19.832  0.00  0.00    -0.389 OA
ATOM     25  H   UNL     1      14.340   7.235  19.693  0.00  0.00    +0.210 HD
ENDBRANCH  12   2
TORSDOF 9
ENDMDL
MODEL 3
REMARK VINA RESULT:      -5.6     22.777     26.430
REMARK  Name = 7049320
REMARK  10 active torsions:
REMARK  status: ('A' for Active; 'I' for Inactive)
REMARK    1  A    between atoms: O_1  and  C_10
REMARK    2  A    between atoms: O_2  and  C_12
REMARK    3  A    between atoms: N_6  and  C_11
REMARK    4  A    between atoms: N_7  and  C_19
REMARK    5  A    between atoms: N_8  and  C_20
REMARK    6  A    between atoms: C_14  and  C_16
REMARK    7  A    between atoms: C_17  and  C_18
REMARK    8  A    between atoms: C_18  and  C_20
REMARK    9  A    between atoms: C_19  and  C_21
REMARK   10  A    between atoms: C_19  and  C_22
REMARK                            x       y       z     vdW  Elec       q    Type
REMARK                         _______ _______ _______ _____ _____    ______ ____
ROOT
ATOM     10  C   UNL     1      -2.015 -10.971  13.812  0.00  0.00    +0.167 C 
ATOM     11  C   UNL     1      -3.427 -10.924  13.197  0.00  0.00    +0.127 C 
ATOM     12  C   UNL     1      -2.007 -11.729  15.145  0.00  0.00    +0.149 C 
ATOM     13  C   UNL     1      -3.007 -11.138  16.153  0.00  0.00    +0.074 C 
ATOM     14  C   UNL     1      -4.298 -10.697  15.523  0.00  0.00    +0.015 C 
ATOM     15  C   UNL     1      -4.502 -10.603  14.200  0.00  0.00    +0.006 C 
ENDROOT
BRANCH  14  16
ATOM      3  O   UNL     1      -6.089  -9.347  16.220  0.00  0.00    -0.271 OA
ATOM      7  N   UNL     1      -5.604 -11.286  17.419  0.00  0.00    -0.301 N 
ATOM     16  C   UNL     1      -5.418 -10.361  16.407  0.00  0.00    +0.240 C 
ATOM     26  H   UNL     1      -4.984 -12.089  17.480  0.00  0.00    +0.150 HD
BRANCH   7  19
ATOM     19  C   UNL     1      -6.644 -11.169  18.415  0.00  0.00    +0.156 C 
ATOM     21  C   UNL     1      -6.170 -10.358  19.611  0.00  0.00    +0.038 C 
BRANCH  19  22
ATOM      5  O   UNL     1      -7.837 -12.802  19.759  0.00  0.00    -0.274 OA
ATOM      9  N   UNL     1      -6.509 -13.553  18.042  0.00  0.00    -0.328 N 
ATOM     22  C   UNL     1      -7.060 -12.570  18.836  0.00  0.00    +0.231 C 
ATOM     29  H   UNL     1      -6.715 -14.532  18.208  0.00  0.00    +0.145 HD
ATOM     30  H   UNL     1      -5.885 -13.345  17.269  0.00  0.00    +0.145 HD
ENDBRANCH  19  22
ENDBRANCH   7  19
ENDBRANCH  14  16
BRANCH  11   6
ATOM      4  O   UNL     1      -3.352 -11.532  10.397  0.00  0.00    -0.276 OA
ATOM      6  N   UNL     1      -3.504  -9.977  12.112  0.00  0.00    -0.306 N 
ATOM     17  C   UNL     1      -3.458 -10.372  10.783  0.00  0.00    +0.215 C 
ATOM     23  H   UNL     1      -3.551  -8.985  12.334  0.00  0.00    +0.149 HD
BRANCH  17  18
ATOM     18  C   UNL     1      -3.559  -9.185   9.841  0.00  0.00    +0.110 C 
BRANCH  18  20
ATOM     20  C   UNL     1      -4.973  -8.615   9.778  0.00  0.00    +0.087 C 
BRANCH  20   8
ATOM      8  N   UNL     1      -5.939  -9.601  10.247  0.00  0.00    -0.330 NA
ATOM     27  H   UNL     1      -6.812  -9.132  10.485  0.00  0.00    +0.118 HD
ATOM     28  H   UNL     1      -6.160 -10.250   9.493  0.00  0.00    +0.118 HD
ENDBRANCH  20   8
ENDBRANCH  18  20
ENDBRANCH  17  18
ENDBRANCH  11   6
BRANCH  10   1
ATOM      1  O   UNL     1      -1.546  -9.639  14.038  0.00  0.00    -0.387 OA
ATOM     24  H   UNL     1      -0.935  -9.419  13.315  0.00  0.00    +0.210 HD
ENDBRANCH  10   1
BRANCH  12   2
ATOM      2  O   UNL     1      -2.290 -13.109  14.926  0.00  0.00    -0.389 OA
ATOM     25  H   UNL     1      -2.182 -13.570  15.776  0.00  0.00    +0.210 HD
ENDBRANCH  12   2
TORSDOF 9
ENDMDL
MODEL 4
REMARK VINA RESULT:      -5.6     34.925     37.195
REMARK  Name = 7049320
REMARK  10 active torsions:
REMARK  status: ('A' for Active; 'I' for Inactive)
REMARK    1  A    between atoms: O_1  and  C_10
REMARK    2  A    between atoms: O_2  and  C_12
REMARK    3  A    between atoms: N_6  and  C_11
REMARK    4  A    between atoms: N_7  and  C_19
REMARK    5  A    between atoms: N_8  and  C_20
REMARK    6  A    between atoms: C_14  and  C_16
REMARK    7  A    between atoms: C_17  and  C_18
REMARK    8  A    between atoms: C_18  and  C_20
REMARK    9  A    between atoms: C_19  and  C_21
REMARK   10  A    between atoms: C_19  and  C_22
REMARK                            x       y       z     vdW  Elec       q    Type
REMARK                         _______ _______ _______ _____ _____    ______ ____
ROOT
ATOM     10  C   UNL     1     -13.875   1.727  31.843  0.00  0.00    +0.167 C 
ATOM     11  C   UNL     1     -13.449   3.084  31.252  0.00  0.00    +0.127 C 
ATOM     12  C   UNL     1     -14.264   0.731  30.743  0.00  0.00    +0.149 C 
ATOM     13  C   UNL     1     -15.369   1.283  29.827  0.00  0.00    +0.074 C 
ATOM     14  C   UNL     1     -15.218   2.748  29.526  0.00  0.00    +0.015 C 
ATOM     15  C   UNL     1     -14.356   3.564  30.151  0.00  0.00    +0.006 C 
ENDROOT
BRANCH  14  16
ATOM      3  O   UNL     1     -16.377   4.511  28.495  0.00  0.00    -0.271 OA
ATOM      7  N   UNL     1     -16.398   2.407  27.491  0.00  0.00    -0.301 N 
ATOM     16  C   UNL     1     -16.050   3.325  28.466  0.00  0.00    +0.240 C 
ATOM     26  H   UNL     1     -16.073   1.447  27.572  0.00  0.00    +0.150 HD
BRANCH   7  19
ATOM     19  C   UNL     1     -17.216   2.741  26.348  0.00  0.00    +0.156 C 
ATOM     21  C   UNL     1     -18.109   1.575  25.953  0.00  0.00    +0.038 C 
BRANCH  19  22
ATOM      5  O   UNL     1     -16.000   2.385  24.276  0.00  0.00    -0.274 OA
ATOM      9  N   UNL     1     -15.864   4.442  25.290  0.00  0.00    -0.328 N 
ATOM     22  C   UNL     1     -16.296   3.136  25.203  0.00  0.00    +0.231 C 
ATOM     29  H   UNL     1     -15.253   4.836  24.583  0.00  0.00    +0.145 HD
ATOM     30  H   UNL     1     -16.133   5.057  26.052  0.00  0.00    +0.145 HD
ENDBRANCH  19  22
ENDBRANCH   7  19
ENDBRANCH  14  16
BRANCH  11   6
ATOM      4  O   UNL     1     -15.622   4.655  32.263  0.00  0.00    -0.276 OA
ATOM      6  N   UNL     1     -13.368   4.105  32.268  0.00  0.00    -0.306 N 
ATOM     17  C   UNL     1     -14.482   4.815  32.691  0.00  0.00    +0.215 C 
ATOM     23  H   UNL     1     -12.456   4.338  32.653  0.00  0.00    +0.149 HD
BRANCH  17  18
ATOM     18  C   UNL     1     -14.128   5.827  33.766  0.00  0.00    +0.110 C 
BRANCH  18  20
ATOM     20  C   UNL     1     -14.191   5.229  35.168  0.00  0.00    +0.087 C 
BRANCH  20   8
ATOM      8  N   UNL     1     -14.638   3.844  35.108  0.00  0.00    -0.330 NA
ATOM     27  H   UNL     1     -15.488   3.739  35.662  0.00  0.00    +0.118 HD
ATOM     28  H   UNL     1     -14.890   3.605  34.150  0.00  0.00    +0.118 HD
ENDBRANCH  20   8
ENDBRANCH  18  20
ENDBRANCH  17  18
ENDBRANCH  11   6
BRANCH  10   1
ATOM      1  O   UNL     1     -14.996   1.912  32.711  0.00  0.00    -0.387 OA
ATOM     24  H   UNL     1     -15.533   2.635  32.345  0.00  0.00    +0.210 HD
ENDBRANCH  10   1
BRANCH  12   2
ATOM      2  O   UNL     1     -13.118   0.381  29.971  0.00  0.00    -0.389 OA
ATOM     25  H   UNL     1     -12.410   0.133  30.591  0.00  0.00    +0.210 HD
ENDBRANCH  12   2
TORSDOF 9
ENDMDL
MODEL 5
REMARK VINA RESULT:      -5.5     36.159     37.967
REMARK  Name = 7049320
REMARK  10 active torsions:
REMARK  status: ('A' for Active; 'I' for Inactive)
REMARK    1  A    between atoms: O_1  and  C_10
REMARK    2  A    between atoms: O_2  and  C_12
REMARK    3  A    between atoms: N_6  and  C_11
REMARK    4  A    between atoms: N_7  and  C_19
REMARK    5  A    between atoms: N_8  and  C_20
REMARK    6  A    between atoms: C_14  and  C_16
REMARK    7  A    between atoms: C_17  and  C_18
REMARK    8  A    between atoms: C_18  and  C_20
REMARK    9  A    between atoms: C_19  and  C_21
REMARK   10  A    between atoms: C_19  and  C_22
REMARK                            x       y       z     vdW  Elec       q    Type
REMARK                         _______ _______ _______ _____ _____    ______ ____
ROOT
ATOM     10  C   UNL     1     -14.104   1.667  30.880  0.00  0.00    +0.167 C 
ATOM     11  C   UNL     1     -15.429   2.377  30.547  0.00  0.00    +0.127 C 
ATOM     12  C   UNL     1     -13.612   2.022  32.288  0.00  0.00    +0.149 C 
ATOM     13  C   UNL     1     -13.466   3.541  32.486  0.00  0.00    +0.074 C 
ATOM     14  C   UNL     1     -14.557   4.335  31.824  0.00  0.00    +0.015 C 
ATOM     15  C   UNL     1     -15.448   3.825  30.960  0.00  0.00    +0.006 C 
ENDROOT
BRANCH  14  16
ATOM      3  O   UNL     1     -15.725   6.368  31.965  0.00  0.00    -0.271 OA
ATOM      7  N   UNL     1     -13.506   6.289  32.675  0.00  0.00    -0.301 N 
ATOM     16  C   UNL     1     -14.673   5.758  32.154  0.00  0.00    +0.240 C 
ATOM     26  H   UNL     1     -12.692   5.690  32.784  0.00  0.00    +0.150 HD
BRANCH   7  19
ATOM     19  C   UNL     1     -13.376   7.672  33.072  0.00  0.00    +0.156 C 
ATOM     21  C   UNL     1     -12.262   8.362  32.301  0.00  0.00    +0.038 C 
BRANCH  19  22
ATOM      5  O   UNL     1     -13.381   6.793  35.335  0.00  0.00    -0.274 OA
ATOM      9  N   UNL     1     -12.491   8.878  34.970  0.00  0.00    -0.328 N 
ATOM     22  C   UNL     1     -13.110   7.714  34.569  0.00  0.00    +0.231 C 
ATOM     29  H   UNL     1     -12.247   9.030  35.943  0.00  0.00    +0.145 HD
ATOM     30  H   UNL     1     -12.255   9.623  34.322  0.00  0.00    +0.145 HD
ENDBRANCH  19  22
ENDBRANCH   7  19
ENDBRANCH  14  16
BRANCH  11   6
ATOM      4  O   UNL     1     -16.675   0.165  29.218  0.00  0.00    -0.276 OA
ATOM      6  N   UNL     1     -15.743   2.288  29.143  0.00  0.00    -0.306 N 
ATOM     17  C   UNL     1     -16.350   1.169  28.591  0.00  0.00    +0.215 C 
ATOM     23  H   UNL     1     -15.472   3.056  28.533  0.00  0.00    +0.149 HD
BRANCH  17  18
ATOM     18  C   UNL     1     -16.571   1.328  27.098  0.00  0.00    +0.110 C 
BRANCH  18  20
ATOM     20  C   UNL     1     -16.956   2.755  26.719  0.00  0.00    +0.087 C 
BRANCH  20   8
ATOM      8  N   UNL     1     -15.785   3.493  26.264  0.00  0.00    -0.330 NA
ATOM     27  H   UNL     1     -15.665   4.326  26.839  0.00  0.00    +0.118 HD
ATOM     28  H   UNL     1     -14.948   2.928  26.402  0.00  0.00    +0.118 HD
ENDBRANCH  20   8
ENDBRANCH  18  20
ENDBRANCH  17  18
ENDBRANCH  11   6
BRANCH  10   1
ATOM      1  O   UNL     1     -13.103   2.052  29.934  0.00  0.00    -0.387 OA
ATOM     24  H   UNL     1     -12.332   2.368  30.436  0.00  0.00    +0.210 HD
ENDBRANCH  10   1
BRANCH  12   2
ATOM      2  O   UNL     1     -14.500   1.485  33.267  0.00  0.00    -0.389 OA
ATOM     25  H   UNL     1     -14.062   1.558  34.133  0.00  0.00    +0.210 HD
ENDBRANCH  12   2
TORSDOF 9
ENDMDL
MODEL 6
REMARK VINA RESULT:      -5.4     13.711     17.057
REMARK  Name = 7049320
REMARK  10 active torsions:
REMARK  status: ('A' for Active; 'I' for Inactive)
REMARK    1  A    between atoms: O_1  and  C_10
REMARK    2  A    between atoms: O_2  and  C_12
REMARK    3  A    between atoms: N_6  and  C_11
REMARK    4  A    between atoms: N_7  and  C_19
REMARK    5  A    between atoms: N_8  and  C_20
REMARK    6  A    between atoms: C_14  and  C_16
REMARK    7  A    between atoms: C_17  and  C_18
REMARK    8  A    between atoms: C_18  and  C_20
REMARK    9  A    between atoms: C_19  and  C_21
REMARK   10  A    between atoms: C_19  and  C_22
REMARK                            x       y       z     vdW  Elec       q    Type
REMARK                         _______ _______ _______ _____ _____    ______ ____
ROOT
ATOM     10  C   UNL     1      18.489   9.492  21.639  0.00  0.00    +0.167 C 
ATOM     11  C   UNL     1      18.416   7.959  21.761  0.00  0.00    +0.127 C 
ATOM     12  C   UNL     1      17.093  10.114  21.513  0.00  0.00    +0.149 C 
ATOM     13  C   UNL     1      16.299   9.524  20.335  0.00  0.00    +0.074 C 
ATOM     14  C   UNL     1      16.506   8.046  20.159  0.00  0.00    +0.015 C 
ATOM     15  C   UNL     1      17.445   7.331  20.797  0.00  0.00    +0.006 C 
ENDROOT
BRANCH  14  16
ATOM      3  O   UNL     1      15.826   6.153  18.946  0.00  0.00    -0.271 OA
ATOM      7  N   UNL     1      14.566   8.109  18.788  0.00  0.00    -0.301 N 
ATOM     16  C   UNL     1      15.614   7.328  19.244  0.00  0.00    +0.240 C 
ATOM     26  H   UNL     1      14.491   9.073  19.099  0.00  0.00    +0.150 HD
BRANCH   7  19
ATOM     19  C   UNL     1      13.558   7.622  17.874  0.00  0.00    +0.156 C 
ATOM     21  C   UNL     1      13.373   8.573  16.703  0.00  0.00    +0.038 C 
BRANCH  19  22
ATOM      5  O   UNL     1      11.344   8.267  18.634  0.00  0.00    -0.274 OA
ATOM      9  N   UNL     1      12.198   6.251  19.328  0.00  0.00    -0.328 N 
ATOM     22  C   UNL     1      12.260   7.448  18.646  0.00  0.00    +0.231 C 
ATOM     29  H   UNL     1      11.380   6.004  19.874  0.00  0.00    +0.145 HD
ATOM     30  H   UNL     1      12.955   5.574  19.312  0.00  0.00    +0.145 HD
ENDBRANCH  19  22
ENDBRANCH   7  19
ENDBRANCH  14  16
BRANCH  11   6
ATOM      4  O   UNL     1      19.864   6.440  23.713  0.00  0.00    -0.276 OA
ATOM      6  N   UNL     1      19.710   7.348  21.583  0.00  0.00    -0.306 N 
ATOM     17  C   UNL     1      20.332   6.629  22.594  0.00  0.00    +0.215 C 
ATOM     23  H   UNL     1      20.198   7.486  20.701  0.00  0.00    +0.149 HD
BRANCH  17  18
ATOM     18  C   UNL     1      21.681   6.091  22.152  0.00  0.00    +0.110 C 
BRANCH  18  20
ATOM     20  C   UNL     1      21.875   6.183  20.642  0.00  0.00    +0.087 C 
BRANCH  20   8
ATOM      8  N   UNL     1      21.229   5.058  19.978  0.00  0.00    -0.330 NA
ATOM     27  H   UNL     1      21.894   4.291  19.888  0.00  0.00    +0.118 HD
ATOM     28  H   UNL     1      20.467   4.709  20.558  0.00  0.00    +0.118 HD
ENDBRANCH  20   8
ENDBRANCH  18  20
ENDBRANCH  17  18
ENDBRANCH  11   6
BRANCH  10   1
ATOM      1  O   UNL     1      19.255   9.846  20.484  0.00  0.00    -0.387 OA
ATOM     24  H   UNL     1      18.849   9.405  19.718  0.00  0.00    +0.210 HD
ENDBRANCH  10   1
BRANCH  12   2
ATOM      2  O   UNL     1      16.368   9.939  22.729  0.00  0.00    -0.389 OA
ATOM     25  H   UNL     1      16.930   9.427  23.336  0.00  0.00    +0.210 HD
ENDBRANCH  12   2
TORSDOF 9
ENDMDL
MODEL 7
REMARK VINA RESULT:      -5.4     23.094     25.162
REMARK  Name = 7049320
REMARK  10 active torsions:
REMARK  status: ('A' for Active; 'I' for Inactive)
REMARK    1  A    between atoms: O_1  and  C_10
REMARK    2  A    between atoms: O_2  and  C_12
REMARK    3  A    between atoms: N_6  and  C_11
REMARK    4  A    between atoms: N_7  and  C_19
REMARK    5  A    between atoms: N_8  and  C_20
REMARK    6  A    between atoms: C_14  and  C_16
REMARK    7  A    between atoms: C_17  and  C_18
REMARK    8  A    between atoms: C_18  and  C_20
REMARK    9  A    between atoms: C_19  and  C_21
REMARK   10  A    between atoms: C_19  and  C_22
REMARK                            x       y       z     vdW  Elec       q    Type
REMARK                         _______ _______ _______ _____ _____    ______ ____
ROOT
ATOM     10  C   UNL     1      -2.344 -11.589  15.288  0.00  0.00    +0.167 C 
ATOM     11  C   UNL     1      -3.681 -10.983  15.754  0.00  0.00    +0.127 C 
ATOM     12  C   UNL     1      -1.735 -10.788  14.131  0.00  0.00    +0.149 C 
ATOM     13  C   UNL     1      -2.704 -10.659  12.943  0.00  0.00    +0.074 C 
ATOM     14  C   UNL     1      -4.133 -10.453  13.359  0.00  0.00    +0.015 C 
ATOM     15  C   UNL     1      -4.583 -10.587  14.616  0.00  0.00    +0.006 C 
ENDROOT
BRANCH  14  16
ATOM      3  O   UNL     1      -6.099  -9.399  12.622  0.00  0.00    -0.271 OA
ATOM      7  N   UNL     1      -4.763 -10.510  11.068  0.00  0.00    -0.301 N 
ATOM     16  C   UNL     1      -5.102 -10.060  12.332  0.00  0.00    +0.240 C 
ATOM     26  H   UNL     1      -3.913 -11.054  10.945  0.00  0.00    +0.150 HD
BRANCH   7  19
ATOM     19  C   UNL     1      -5.565 -10.250   9.895  0.00  0.00    +0.156 C 
ATOM     21  C   UNL     1      -5.992 -11.546   9.224  0.00  0.00    +0.038 C 
BRANCH  19  22
ATOM      5  O   UNL     1      -3.670  -8.883   9.236  0.00  0.00    -0.274 OA
ATOM      9  N   UNL     1      -5.336  -9.262   7.701  0.00  0.00    -0.328 N 
ATOM     22  C   UNL     1      -4.752  -9.385   8.944  0.00  0.00    +0.231 C 
ATOM     29  H   UNL     1      -4.891  -8.720   6.969  0.00  0.00    +0.145 HD
ATOM     30  H   UNL     1      -6.222  -9.700   7.468  0.00  0.00    +0.145 HD
ENDBRANCH  19  22
ENDBRANCH   7  19
ENDBRANCH  14  16
BRANCH  11   6
ATOM      4  O   UNL     1      -5.085 -10.270  18.148  0.00  0.00    -0.276 OA
ATOM      6  N   UNL     1      -4.397 -11.881  16.626  0.00  0.00    -0.306 N 
ATOM     17  C   UNL     1      -5.048 -11.437  17.768  0.00  0.00    +0.215 C 
ATOM     23  H   UNL     1      -4.388 -12.876  16.416  0.00  0.00    +0.149 HD
BRANCH  17  18
ATOM     18  C   UNL     1      -5.725 -12.578  18.508  0.00  0.00    +0.110 C 
BRANCH  18  20
ATOM     20  C   UNL     1      -6.838 -12.090  19.429  0.00  0.00    +0.087 C 
BRANCH  20   8
ATOM      8  N   UNL     1      -6.287 -11.271  20.501  0.00  0.00    -0.330 NA
ATOM     27  H   UNL     1      -6.804 -11.448  21.362  0.00  0.00    +0.118 HD
ATOM     28  H   UNL     1      -5.324 -11.548  20.685  0.00  0.00    +0.118 HD
ENDBRANCH  20   8
ENDBRANCH  18  20
ENDBRANCH  17  18
ENDBRANCH  11   6
BRANCH  10   1
ATOM      1  O   UNL     1      -2.553 -12.936  14.854  0.00  0.00    -0.387 OA
ATOM     24  H   UNL     1      -2.254 -12.995  13.931  0.00  0.00    +0.210 HD
ENDBRANCH  10   1
BRANCH  12   2
ATOM      2  O   UNL     1      -1.342  -9.494  14.584  0.00  0.00    -0.389 OA
ATOM     25  H   UNL     1      -1.287  -9.527  15.554  0.00  0.00    +0.210 HD
ENDBRANCH  12   2
TORSDOF 9
ENDMDL
MODEL 8
REMARK VINA RESULT:      -5.4     22.894     24.898
REMARK  Name = 7049320
REMARK  10 active torsions:
REMARK  status: ('A' for Active; 'I' for Inactive)
REMARK    1  A    between atoms: O_1  and  C_10
REMARK    2  A    between atoms: O_2  and  C_12
REMARK    3  A    between atoms: N_6  and  C_11
REMARK    4  A    between atoms: N_7  and  C_19
REMARK    5  A    between atoms: N_8  and  C_20
REMARK    6  A    between atoms: C_14  and  C_16
REMARK    7  A    between atoms: C_17  and  C_18
REMARK    8  A    between atoms: C_18  and  C_20
REMARK    9  A    between atoms: C_19  and  C_21
REMARK   10  A    between atoms: C_19  and  C_22
REMARK                            x       y       z     vdW  Elec       q    Type
REMARK                         _______ _______ _______ _____ _____    ______ ____
ROOT
ATOM     10  C   UNL     1      -3.323 -13.829  14.020  0.00  0.00    +0.167 C 
ATOM     11  C   UNL     1      -2.887 -12.464  14.583  0.00  0.00    +0.127 C 
ATOM     12  C   UNL     1      -2.636 -14.133  12.683  0.00  0.00    +0.149 C 
ATOM     13  C   UNL     1      -2.879 -13.026  11.643  0.00  0.00    +0.074 C 
ATOM     14  C   UNL     1      -2.855 -11.642  12.229  0.00  0.00    +0.015 C 
ATOM     15  C   UNL     1      -2.850 -11.376  13.544  0.00  0.00    +0.006 C 
ENDROOT
BRANCH  14  16
ATOM      3  O   UNL     1      -1.824  -9.775  11.244  0.00  0.00    -0.271 OA
ATOM      7  N   UNL     1      -3.975 -10.366  10.566  0.00  0.00    -0.301 N 
ATOM     16  C   UNL     1      -2.815 -10.503  11.307  0.00  0.00    +0.240 C 
ATOM     26  H   UNL     1      -4.735 -11.026  10.704  0.00  0.00    +0.150 HD
BRANCH   7  19
ATOM     19  C   UNL     1      -4.172  -9.315   9.594  0.00  0.00    +0.156 C 
ATOM     21  C   UNL     1      -5.091  -8.232  10.135  0.00  0.00    +0.038 C 
BRANCH  19  22
ATOM      5  O   UNL     1      -4.510 -11.088   7.968  0.00  0.00    -0.274 OA
ATOM      9  N   UNL     1      -5.598  -9.089   7.656  0.00  0.00    -0.328 N 
ATOM     22  C   UNL     1      -4.746  -9.937   8.330  0.00  0.00    +0.231 C 
ATOM     29  H   UNL     1      -6.059  -9.385   6.802  0.00  0.00    +0.145 HD
ATOM     30  H   UNL     1      -5.800  -8.148   7.978  0.00  0.00    +0.145 HD
ENDBRANCH  19  22
ENDBRANCH   7  19
ENDBRANCH  14  16
BRANCH  11   6
ATOM      4  O   UNL     1      -2.121 -10.807  16.793  0.00  0.00    -0.276 OA
ATOM      6  N   UNL     1      -3.735 -12.041  15.671  0.00  0.00    -0.306 N 
ATOM     17  C   UNL     1      -3.269 -11.235  16.700  0.00  0.00    +0.215 C 
ATOM     23  H   UNL     1      -4.693 -12.380  15.703  0.00  0.00    +0.149 HD
BRANCH  17  18
ATOM     18  C   UNL     1      -4.357 -10.934  17.714  0.00  0.00    +0.110 C 
BRANCH  18  20
ATOM     20  C   UNL     1      -4.383 -11.949  18.853  0.00  0.00    +0.087 C 
BRANCH  20   8
ATOM      8  N   UNL     1      -3.051 -12.107  19.422  0.00  0.00    -0.330 NA
ATOM     27  H   UNL     1      -2.362 -11.706  18.787  0.00  0.00    +0.118 HD
ATOM     28  H   UNL     1      -2.983 -11.577  20.290  0.00  0.00    +0.118 HD
ENDBRANCH  20   8
ENDBRANCH  18  20
ENDBRANCH  17  18
ENDBRANCH  11   6
BRANCH  10   1
ATOM      1  O   UNL     1      -4.739 -13.836  13.820  0.00  0.00    -0.387 OA
ATOM     24  H   UNL     1      -4.989 -12.963  13.473  0.00  0.00    +0.210 HD
ENDBRANCH  10   1
BRANCH  12   2
ATOM      2  O   UNL     1      -1.236 -14.318  12.883  0.00  0.00    -0.389 OA
ATOM     25  H   UNL     1      -1.067 -15.275  12.916  0.00  0.00    +0.210 HD
ENDBRANCH  12   2
TORSDOF 9
ENDMDL
MODEL 9
REMARK VINA RESULT:      -5.4      2.212      7.472
REMARK  Name = 7049320
REMARK  10 active torsions:
REMARK  status: ('A' for Active; 'I' for Inactive)
REMARK    1  A    between atoms: O_1  and  C_10
REMARK    2  A    between atoms: O_2  and  C_12
REMARK    3  A    between atoms: N_6  and  C_11
REMARK    4  A    between atoms: N_7  and  C_19
REMARK    5  A    between atoms: N_8  and  C_20
REMARK    6  A    between atoms: C_14  and  C_16
REMARK    7  A    between atoms: C_17  and  C_18
REMARK    8  A    between atoms: C_18  and  C_20
REMARK    9  A    between atoms: C_19  and  C_21
REMARK   10  A    between atoms: C_19  and  C_22
REMARK                            x       y       z     vdW  Elec       q    Type
REMARK                         _______ _______ _______ _____ _____    ______ ____
ROOT
ATOM     10  C   UNL     1      12.983   6.316   1.878  0.00  0.00    +0.167 C 
ATOM     11  C   UNL     1      12.585   4.848   2.119  0.00  0.00    +0.127 C 
ATOM     12  C   UNL     1      13.139   7.081   3.197  0.00  0.00    +0.149 C 
ATOM     13  C   UNL     1      11.870   7.010   4.062  0.00  0.00    +0.074 C 
ATOM     14  C   UNL     1      11.197   5.667   4.022  0.00  0.00    +0.015 C 
ATOM     15  C   UNL     1      11.512   4.686   3.162  0.00  0.00    +0.006 C 
ENDROOT
BRANCH  14  16
ATOM      3  O   UNL     1       9.164   4.703   4.699  0.00  0.00    -0.271 OA
ATOM      7  N   UNL     1      10.364   5.995   6.224  0.00  0.00    -0.301 N 
ATOM     16  C   UNL     1      10.136   5.397   4.998  0.00  0.00    +0.240 C 
ATOM     26  H   UNL     1      11.203   6.553   6.358  0.00  0.00    +0.150 HD
BRANCH   7  19
ATOM     19  C   UNL     1       9.457   5.875   7.343  0.00  0.00    +0.156 C 
ATOM     21  C   UNL     1       9.088   7.241   7.899  0.00  0.00    +0.038 C 
BRANCH  19  22
ATOM      5  O   UNL     1      10.543   5.453   9.473  0.00  0.00    -0.274 OA
ATOM      9  N   UNL     1      10.168   3.680   8.063  0.00  0.00    -0.328 N 
ATOM     22  C   UNL     1      10.124   5.014   8.405  0.00  0.00    +0.231 C 
ATOM     29  H   UNL     1      10.576   2.995   8.689  0.00  0.00    +0.145 HD
ATOM     30  H   UNL     1       9.799   3.328   7.184  0.00  0.00    +0.145 HD
ENDBRANCH  19  22
ENDBRANCH   7  19
ENDBRANCH  14  16
BRANCH  11   6
ATOM      4  O   UNL     1      14.264   3.586   0.169  0.00  0.00    -0.276 OA
ATOM      6  N   UNL     1      12.151   4.207   0.902  0.00  0.00    -0.306 N 
ATOM     17  C   UNL     1      13.046   3.621   0.017  0.00  0.00    +0.215 C 
ATOM     23  H   UNL     1      11.162   4.223   0.668  0.00  0.00    +0.149 HD
BRANCH  17  18
ATOM     18  C   UNL     1      12.337   3.016  -1.181  0.00  0.00    +0.110 C 
BRANCH  18  20
ATOM     20  C   UNL     1      11.822   4.080  -2.146  0.00  0.00    +0.087 C 
BRANCH  20   8
ATOM      8  N   UNL     1      12.307   5.397  -1.755  0.00  0.00    -0.330 NA
ATOM     27  H   UNL     1      13.305   5.463  -1.955  0.00  0.00    +0.118 HD
ATOM     28  H   UNL     1      11.855   6.112  -2.323  0.00  0.00    +0.118 HD
ENDBRANCH  20   8
ENDBRANCH  18  20
ENDBRANCH  17  18
ENDBRANCH  11   6
BRANCH  10   1
ATOM      1  O   UNL     1      11.980   6.962   1.089  0.00  0.00    -0.387 OA
ATOM     24  H   UNL     1      11.520   7.596   1.664  0.00  0.00    +0.210 HD
ENDBRANCH  10   1
BRANCH  12   2
ATOM      2  O   UNL     1      14.257   6.578   3.926  0.00  0.00    -0.389 OA
ATOM     25  H   UNL     1      14.018   6.579   4.869  0.00  0.00    +0.210 HD
ENDBRANCH  12   2
TORSDOF 9
ENDMDL
MODEL 10
REMARK VINA RESULT:      -5.3     14.613     17.840
REMARK  Name = 7049320
REMARK  10 active torsions:
REMARK  status: ('A' for Active; 'I' for Inactive)
REMARK    1  A    between atoms: O_1  and  C_10
REMARK    2  A    between atoms: O_2  and  C_12
REMARK    3  A    between atoms: N_6  and  C_11
REMARK    4  A    between atoms: N_7  and  C_19
REMARK    5  A    between atoms: N_8  and  C_20
REMARK    6  A    between atoms: C_14  and  C_16
REMARK    7  A    between atoms: C_17  and  C_18
REMARK    8  A    between atoms: C_18  and  C_20
REMARK    9  A    between atoms: C_19  and  C_21
REMARK   10  A    between atoms: C_19  and  C_22
REMARK                            x       y       z     vdW  Elec       q    Type
REMARK                         _______ _______ _______ _____ _____    ______ ____
ROOT
ATOM     10  C   UNL     1      20.054   7.482  22.138  0.00  0.00    +0.167 C 
ATOM     11  C   UNL     1      19.220   8.618  21.518  0.00  0.00    +0.127 C 
ATOM     12  C   UNL     1      20.258   6.329  21.149  0.00  0.00    +0.149 C 
ATOM     13  C   UNL     1      18.923   5.779  20.616  0.00  0.00    +0.074 C 
ATOM     14  C   UNL     1      17.900   6.849  20.357  0.00  0.00    +0.015 C 
ATOM     15  C   UNL     1      18.023   8.126  20.749  0.00  0.00    +0.006 C 
ENDROOT
BRANCH  14  16
ATOM      3  O   UNL     1      16.715   5.583  18.773  0.00  0.00    -0.271 OA
ATOM      7  N   UNL     1      15.591   7.246  19.958  0.00  0.00    -0.301 N 
ATOM     16  C   UNL     1      16.692   6.483  19.611  0.00  0.00    +0.240 C 
ATOM     26  H   UNL     1      15.689   7.969  20.665  0.00  0.00    +0.150 HD
BRANCH   7  19
ATOM     19  C   UNL     1      14.289   7.072  19.356  0.00  0.00    +0.156 C 
ATOM     21  C   UNL     1      13.936   8.250  18.461  0.00  0.00    +0.038 C 
BRANCH  19  22
ATOM      5  O   UNL     1      13.421   7.350  21.607  0.00  0.00    -0.274 OA
ATOM      9  N   UNL     1      12.127   6.252  20.060  0.00  0.00    -0.328 N 
ATOM     22  C   UNL     1      13.267   6.909  20.471  0.00  0.00    +0.231 C 
ATOM     29  H   UNL     1      11.361   6.087  20.704  0.00  0.00    +0.145 HD
ATOM     30  H   UNL     1      12.005   5.910  19.112  0.00  0.00    +0.145 HD
ENDBRANCH  19  22
ENDBRANCH   7  19
ENDBRANCH  14  16
BRANCH  11   6
ATOM      4  O   UNL     1      20.274  11.246  21.967  0.00  0.00    -0.276 OA
ATOM      6  N   UNL     1      18.776   9.560  22.517  0.00  0.00    -0.306 N 
ATOM     17  C   UNL     1      19.353  10.814  22.657  0.00  0.00    +0.215 C 
ATOM     23  H   UNL     1      18.045   9.276  23.165  0.00  0.00    +0.149 HD
BRANCH  17  18
ATOM     18  C   UNL     1      18.706  11.609  23.776  0.00  0.00    +0.110 C 
BRANCH  18  20
ATOM     20  C   UNL     1      17.361  12.199  23.364  0.00  0.00    +0.087 C 
BRANCH  20   8
ATOM      8  N   UNL     1      17.283  12.320  21.914  0.00  0.00    -0.330 NA
ATOM     27  H   UNL     1      17.514  13.275  21.642  0.00  0.00    +0.118 HD
ATOM     28  H   UNL     1      17.986  11.722  21.481  0.00  0.00    +0.118 HD
ENDBRANCH  20   8
ENDBRANCH  18  20
ENDBRANCH  17  18
ENDBRANCH  11   6
BRANCH  10   1
ATOM      1  O   UNL     1      19.389   6.978  23.300  0.00  0.00    -0.387 OA
ATOM     24  H   UNL     1      18.646   7.575  23.493  0.00  0.00    +0.210 HD
ENDBRANCH  10   1
BRANCH  12   2
ATOM      2  O   UNL     1      21.080   6.753  20.064  0.00  0.00    -0.389 OA
ATOM     25  H   UNL     1      21.307   5.965  19.541  0.00  0.00    +0.210 HD
ENDBRANCH  12   2
TORSDOF 9
ENDMDL
