MODEL 1
REMARK VINA RESULT:      -6.7      0.000      0.000
REMARK  Name = 45783998
REMARK  12 active torsions:
REMARK  status: ('A' for Active; 'I' for Inactive)
REMARK    1  A    between atoms: O_1  and  C_21
REMARK    2  A    between atoms: N_3  and  C_11
REMARK    3  A    between atoms: C_6  and  C_10
REMARK    4  A    between atoms: C_7  and  C_11
REMARK    5  A    between atoms: C_9  and  C_14
REMARK    6  A    between atoms: C_10  and  C_17
REMARK    7  A    between atoms: C_10  and  C_18
REMARK    8  A    between atoms: C_13  and  C_22
REMARK    9  A    between atoms: C_14  and  C_23
REMARK   10  A    between atoms: C_24  and  C_25
REMARK   11  A    between atoms: C_25  and  C_26
REMARK   12  A    between atoms: C_26  and  C_27
REMARK                            x       y       z     vdW  Elec       q    Type
REMARK                         _______ _______ _______ _____ _____    ______ ____
ROOT
ATOM      6  C   UNL     1      13.688   9.460  18.011  0.00  0.00    +0.000 C 
ATOM      7  C   UNL     1      12.501   9.976  18.857  0.00  0.00    +0.029 C 
ATOM      8  C   UNL     1      14.638   8.617  18.875  0.00  0.00    +0.012 C 
ATOM      9  C   UNL     1      13.940   7.425  19.563  0.00  0.00    +0.024 C 
ATOM     12  C   UNL     1      11.928   8.914  19.760  0.00  0.00    -0.023 C 
ATOM     13  C   UNL     1      12.549   7.763  20.078  0.00  0.00    -0.073 C 
ATOM     22  C   UNL     1      11.850   6.732  20.920  0.00  0.00    +0.039 C 
ENDROOT
BRANCH   6  10
ATOM     10  C   UNL     1      13.203   8.671  16.788  0.00  0.00    -0.013 C 
ATOM     17  C   UNL     1      14.257   8.696  15.686  0.00  0.00    +0.007 C 
ATOM     18  C   UNL     1      11.879   9.235  16.282  0.00  0.00    +0.007 C 
ENDBRANCH   6  10
BRANCH   7  11
ATOM     11  C   UNL     1      12.892  11.196  19.698  0.00  0.00    +0.092 C 
BRANCH  11   3
ATOM      3  N   UNL     1      12.681  10.930  21.121  0.00  0.00    -0.302 NA
ATOM     15  C   UNL     1      13.920  11.166  21.877  0.00  0.00    +0.087 C 
ATOM     16  C   UNL     1      11.576  11.749  21.639  0.00  0.00    +0.087 C 
ATOM     19  C   UNL     1      13.728  10.845  23.359  0.00  0.00    +0.046 C 
ATOM     20  C   UNL     1      11.311  11.446  23.113  0.00  0.00    +0.046 C 
ATOM     21  C   UNL     1      12.569  11.639  23.954  0.00  0.00    +0.117 C 
BRANCH  21   1
ATOM      1  O   UNL     1      12.310  11.200  25.282  0.00  0.00    -0.392 OA
ATOM     28  H   UNL     1      11.562  10.581  25.245  0.00  0.00    +0.210 HD
ENDBRANCH  21   1
ENDBRANCH  11   3
ENDBRANCH   7  11
BRANCH   9  14
ATOM     14  C   UNL     1      14.867   6.883  20.659  0.00  0.00    +0.105 C 
BRANCH  14  23
ATOM      2  O   UNL     1      17.289   6.654  20.845  0.00  0.00    -0.425 OA
ATOM      4  N   UNL     1      16.434   5.824  18.952  0.00  0.00    -0.112 NA
ATOM      5  N   UNL     1      17.802   5.627  18.925  0.00  0.00    -0.112 NA
ATOM     23  C   UNL     1      16.179   6.425  20.091  0.00  0.00    +0.218 A 
ATOM     24  C   UNL     1      18.260   6.128  20.049  0.00  0.00    +0.217 A 
BRANCH  24  25
ATOM     25  C   UNL     1      19.637   6.192  20.552  0.00  0.00    +0.097 C 
BRANCH  25  26
ATOM     26  C   UNL     1      19.843   7.294  21.612  0.00  0.00    +0.006 C 
ATOM     27  C   UNL     1      20.164   6.735  22.989  0.00  0.00    +0.004 C 
ENDBRANCH  25  26
ENDBRANCH  24  25
ENDBRANCH  14  23
ENDBRANCH   9  14
TORSDOF 8
ENDMDL
MODEL 2
REMARK VINA RESULT:      -6.4      1.729      2.707
REMARK  Name = 45783998
REMARK  12 active torsions:
REMARK  status: ('A' for Active; 'I' for Inactive)
REMARK    1  A    between atoms: O_1  and  C_21
REMARK    2  A    between atoms: N_3  and  C_11
REMARK    3  A    between atoms: C_6  and  C_10
REMARK    4  A    between atoms: C_7  and  C_11
REMARK    5  A    between atoms: C_9  and  C_14
REMARK    6  A    between atoms: C_10  and  C_17
REMARK    7  A    between atoms: C_10  and  C_18
REMARK    8  A    between atoms: C_13  and  C_22
REMARK    9  A    between atoms: C_14  and  C_23
REMARK   10  A    between atoms: C_24  and  C_25
REMARK   11  A    between atoms: C_25  and  C_26
REMARK   12  A    between atoms: C_26  and  C_27
REMARK                            x       y       z     vdW  Elec       q    Type
REMARK                         _______ _______ _______ _____ _____    ______ ____
ROOT
ATOM      6  C   UNL     1      13.801  10.580  20.982  0.00  0.00    +0.000 C 
ATOM      7  C   UNL     1      12.302  10.402  20.645  0.00  0.00    +0.029 C 
ATOM      8  C   UNL     1      14.463   9.216  21.227  0.00  0.00    +0.012 C 
ATOM      9  C   UNL     1      14.316   8.243  20.039  0.00  0.00    +0.024 C 
ATOM     12  C   UNL     1      12.058   9.277  19.671  0.00  0.00    -0.023 C 
ATOM     13  C   UNL     1      12.947   8.311  19.378  0.00  0.00    -0.073 C 
ATOM     22  C   UNL     1      12.632   7.284  18.326  0.00  0.00    +0.039 C 
ENDROOT
BRANCH   6  10
ATOM     10  C   UNL     1      14.532  11.361  19.882  0.00  0.00    -0.013 C 
ATOM     17  C   UNL     1      15.944  11.720  20.334  0.00  0.00    +0.007 C 
ATOM     18  C   UNL     1      13.749  12.617  19.511  0.00  0.00    +0.007 C 
ENDBRANCH   6  10
BRANCH   7  11
ATOM     11  C   UNL     1      11.462  10.169  21.905  0.00  0.00    +0.092 C 
BRANCH  11   3
ATOM      3  N   UNL     1      11.533  11.329  22.794  0.00  0.00    -0.302 NA
ATOM     15  C   UNL     1      10.943  12.509  22.147  0.00  0.00    +0.087 C 
ATOM     16  C   UNL     1      10.872  11.036  24.074  0.00  0.00    +0.087 C 
ATOM     19  C   UNL     1      11.055  13.741  23.045  0.00  0.00    +0.046 C 
ATOM     20  C   UNL     1      10.982  12.221  25.032  0.00  0.00    +0.046 C 
ATOM     21  C   UNL     1      10.416  13.494  24.408  0.00  0.00    +0.117 C 
BRANCH  21   1
ATOM      1  O   UNL     1      10.679  14.591  25.274  0.00  0.00    -0.392 OA
ATOM     28  H   UNL     1      10.140  14.468  26.074  0.00  0.00    +0.210 HD
ENDBRANCH  21   1
ENDBRANCH  11   3
ENDBRANCH   7  11
BRANCH   9  14
ATOM     14  C   UNL     1      14.679   6.831  20.515  0.00  0.00    +0.105 C 
BRANCH  14  23
ATOM      2  O   UNL     1      17.084   6.632  20.879  0.00  0.00    -0.425 OA
ATOM      4  N   UNL     1      16.394   5.879  18.889  0.00  0.00    -0.112 NA
ATOM      5  N   UNL     1      17.763   5.705  18.960  0.00  0.00    -0.112 NA
ATOM     23  C   UNL     1      16.040   6.422  20.031  0.00  0.00    +0.218 A 
ATOM     24  C   UNL     1      18.123   6.159  20.137  0.00  0.00    +0.217 A 
BRANCH  24  25
ATOM     25  C   UNL     1      19.456   6.221  20.749  0.00  0.00    +0.097 C 
BRANCH  25  26
ATOM     26  C   UNL     1      20.326   4.988  20.427  0.00  0.00    +0.006 C 
ATOM     27  C   UNL     1      21.812   5.310  20.390  0.00  0.00    +0.004 C 
ENDBRANCH  25  26
ENDBRANCH  24  25
ENDBRANCH  14  23
ENDBRANCH   9  14
TORSDOF 8
ENDMDL
MODEL 3
REMARK VINA RESULT:      -6.2     25.912     28.544
REMARK  Name = 45783998
REMARK  12 active torsions:
REMARK  status: ('A' for Active; 'I' for Inactive)
REMARK    1  A    between atoms: O_1  and  C_21
REMARK    2  A    between atoms: N_3  and  C_11
REMARK    3  A    between atoms: C_6  and  C_10
REMARK    4  A    between atoms: C_7  and  C_11
REMARK    5  A    between atoms: C_9  and  C_14
REMARK    6  A    between atoms: C_10  and  C_17
REMARK    7  A    between atoms: C_10  and  C_18
REMARK    8  A    between atoms: C_13  and  C_22
REMARK    9  A    between atoms: C_14  and  C_23
REMARK   10  A    between atoms: C_24  and  C_25
REMARK   11  A    between atoms: C_25  and  C_26
REMARK   12  A    between atoms: C_26  and  C_27
REMARK                            x       y       z     vdW  Elec       q    Type
REMARK                         _______ _______ _______ _____ _____    ______ ____
ROOT
ATOM      6  C   UNL     1      -4.832 -11.991  15.040  0.00  0.00    +0.000 C 
ATOM      7  C   UNL     1      -4.634 -11.025  16.231  0.00  0.00    +0.029 C 
ATOM      8  C   UNL     1      -4.073 -11.484  13.804  0.00  0.00    +0.012 C 
ATOM      9  C   UNL     1      -2.564 -11.279  14.056  0.00  0.00    +0.024 C 
ATOM     12  C   UNL     1      -3.203 -10.572  16.378  0.00  0.00    -0.023 C 
ATOM     13  C   UNL     1      -2.261 -10.688  15.424  0.00  0.00    -0.073 C 
ATOM     22  C   UNL     1      -0.842 -10.282  15.708  0.00  0.00    +0.039 C 
ENDROOT
BRANCH   6  10
ATOM     10  C   UNL     1      -4.408 -13.420  15.402  0.00  0.00    -0.013 C 
ATOM     17  C   UNL     1      -4.625 -14.356  14.218  0.00  0.00    +0.007 C 
ATOM     18  C   UNL     1      -5.178 -13.910  16.625  0.00  0.00    +0.007 C 
ENDBRANCH   6  10
BRANCH   7  11
ATOM     11  C   UNL     1      -5.543  -9.796  16.121  0.00  0.00    +0.092 C 
BRANCH  11   3
ATOM      3  N   UNL     1      -6.483  -9.748  17.241  0.00  0.00    -0.302 NA
ATOM     15  C   UNL     1      -7.847 -10.040  16.779  0.00  0.00    +0.087 C 
ATOM     16  C   UNL     1      -6.068 -10.678  18.301  0.00  0.00    +0.087 C 
ATOM     19  C   UNL     1      -8.849  -9.945  17.930  0.00  0.00    +0.046 C 
ATOM     20  C   UNL     1      -7.013 -10.603  19.499  0.00  0.00    +0.046 C 
ATOM     21  C   UNL     1      -8.458 -10.863  19.084  0.00  0.00    +0.117 C 
BRANCH  21   1
ATOM      1  O   UNL     1      -9.309 -10.633  20.199  0.00  0.00    -0.392 OA
ATOM     28  H   UNL     1      -9.087 -11.293  20.878  0.00  0.00    +0.210 HD
ENDBRANCH  21   1
ENDBRANCH  11   3
ENDBRANCH   7  11
BRANCH   9  14
ATOM     14  C   UNL     1      -1.985 -10.447  12.905  0.00  0.00    +0.105 C 
BRANCH  14  23
ATOM      2  O   UNL     1      -3.205  -9.545  10.993  0.00  0.00    -0.425 OA
ATOM      4  N   UNL     1      -3.072 -11.778  11.024  0.00  0.00    -0.112 NA
ATOM      5  N   UNL     1      -3.781 -11.408   9.897  0.00  0.00    -0.112 NA
ATOM     23  C   UNL     1      -2.755 -10.659  11.633  0.00  0.00    +0.218 A 
ATOM     24  C   UNL     1      -3.835 -10.096   9.920  0.00  0.00    +0.217 A 
BRANCH  24  25
ATOM     25  C   UNL     1      -4.461  -9.169   8.970  0.00  0.00    +0.097 C 
BRANCH  25  26
ATOM     26  C   UNL     1      -5.482  -8.222   9.634  0.00  0.00    +0.006 C 
ATOM     27  C   UNL     1      -6.610  -8.967  10.330  0.00  0.00    +0.004 C 
ENDBRANCH  25  26
ENDBRANCH  24  25
ENDBRANCH  14  23
ENDBRANCH   9  14
TORSDOF 8
ENDMDL
MODEL 4
REMARK VINA RESULT:      -6.1     26.244     29.190
REMARK  Name = 45783998
REMARK  12 active torsions:
REMARK  status: ('A' for Active; 'I' for Inactive)
REMARK    1  A    between atoms: O_1  and  C_21
REMARK    2  A    between atoms: N_3  and  C_11
REMARK    3  A    between atoms: C_6  and  C_10
REMARK    4  A    between atoms: C_7  and  C_11
REMARK    5  A    between atoms: C_9  and  C_14
REMARK    6  A    between atoms: C_10  and  C_17
REMARK    7  A    between atoms: C_10  and  C_18
REMARK    8  A    between atoms: C_13  and  C_22
REMARK    9  A    between atoms: C_14  and  C_23
REMARK   10  A    between atoms: C_24  and  C_25
REMARK   11  A    between atoms: C_25  and  C_26
REMARK   12  A    between atoms: C_26  and  C_27
REMARK                            x       y       z     vdW  Elec       q    Type
REMARK                         _______ _______ _______ _____ _____    ______ ____
ROOT
ATOM      6  C   UNL     1      -3.498 -10.660  15.146  0.00  0.00    +0.000 C 
ATOM      7  C   UNL     1      -4.547 -11.521  14.405  0.00  0.00    +0.029 C 
ATOM      8  C   UNL     1      -4.056 -10.174  16.492  0.00  0.00    +0.012 C 
ATOM      9  C   UNL     1      -4.519 -11.324  17.412  0.00  0.00    +0.024 C 
ATOM     12  C   UNL     1      -5.237 -12.505  15.316  0.00  0.00    -0.023 C 
ATOM     13  C   UNL     1      -5.226 -12.441  16.660  0.00  0.00    -0.073 C 
ATOM     22  C   UNL     1      -5.876 -13.525  17.475  0.00  0.00    +0.039 C 
ENDROOT
BRANCH   6  10
ATOM     10  C   UNL     1      -2.180 -11.422  15.334  0.00  0.00    -0.013 C 
ATOM     17  C   UNL     1      -1.073 -10.470  15.772  0.00  0.00    +0.007 C 
ATOM     18  C   UNL     1      -1.794 -12.144  14.046  0.00  0.00    +0.007 C 
ENDBRANCH   6  10
BRANCH   7  11
ATOM     11  C   UNL     1      -5.602 -10.655  13.708  0.00  0.00    +0.092 C 
BRANCH  11   3
ATOM      3  N   UNL     1      -5.028  -9.979  12.545  0.00  0.00    -0.302 NA
ATOM     15  C   UNL     1      -4.496 -10.962  11.590  0.00  0.00    +0.087 C 
ATOM     16  C   UNL     1      -6.028  -9.109  11.911  0.00  0.00    +0.087 C 
ATOM     19  C   UNL     1      -3.848 -10.269  10.391  0.00  0.00    +0.046 C 
ATOM     20  C   UNL     1      -5.429  -8.357  10.723  0.00  0.00    +0.046 C 
ATOM     21  C   UNL     1      -4.825  -9.320   9.704  0.00  0.00    +0.117 C 
BRANCH  21   1
ATOM      1  O   UNL     1      -4.151  -8.570   8.702  0.00  0.00    -0.392 OA
ATOM     28  H   UNL     1      -4.796  -8.371   8.002  0.00  0.00    +0.210 HD
ENDBRANCH  21   1
ENDBRANCH  11   3
ENDBRANCH   7  11
BRANCH   9  14
ATOM     14  C   UNL     1      -5.372 -10.732  18.541  0.00  0.00    +0.105 C 
BRANCH  14  23
ATOM      2  O   UNL     1      -7.809 -10.804  18.642  0.00  0.00    -0.425 OA
ATOM      4  N   UNL     1      -6.998  -9.425  17.079  0.00  0.00    -0.112 NA
ATOM      5  N   UNL     1      -8.378  -9.366  17.026  0.00  0.00    -0.112 NA
ATOM     23  C   UNL     1      -6.711 -10.276  18.037  0.00  0.00    +0.218 A 
ATOM     24  C   UNL     1      -8.809 -10.187  17.955  0.00  0.00    +0.217 A 
BRANCH  24  25
ATOM     25  C   UNL     1     -10.185 -10.518  18.346  0.00  0.00    +0.097 C 
BRANCH  25  26
ATOM     26  C   UNL     1     -10.428 -10.396  19.865  0.00  0.00    +0.006 C 
ATOM     27  C   UNL     1     -11.876 -10.080  20.205  0.00  0.00    +0.004 C 
ENDBRANCH  25  26
ENDBRANCH  24  25
ENDBRANCH  14  23
ENDBRANCH   9  14
TORSDOF 8
ENDMDL
MODEL 5
REMARK VINA RESULT:      -6.0     25.450     28.555
REMARK  Name = 45783998
REMARK  12 active torsions:
REMARK  status: ('A' for Active; 'I' for Inactive)
REMARK    1  A    between atoms: O_1  and  C_21
REMARK    2  A    between atoms: N_3  and  C_11
REMARK    3  A    between atoms: C_6  and  C_10
REMARK    4  A    between atoms: C_7  and  C_11
REMARK    5  A    between atoms: C_9  and  C_14
REMARK    6  A    between atoms: C_10  and  C_17
REMARK    7  A    between atoms: C_10  and  C_18
REMARK    8  A    between atoms: C_13  and  C_22
REMARK    9  A    between atoms: C_14  and  C_23
REMARK   10  A    between atoms: C_24  and  C_25
REMARK   11  A    between atoms: C_25  and  C_26
REMARK   12  A    between atoms: C_26  and  C_27
REMARK                            x       y       z     vdW  Elec       q    Type
REMARK                         _______ _______ _______ _____ _____    ______ ____
ROOT
ATOM      6  C   UNL     1     -13.346  10.601  21.824  0.00  0.00    +0.000 C 
ATOM      7  C   UNL     1     -12.075  10.637  20.944  0.00  0.00    +0.029 C 
ATOM      8  C   UNL     1     -14.321   9.528  21.316  0.00  0.00    +0.012 C 
ATOM      9  C   UNL     1     -13.699   8.117  21.253  0.00  0.00    +0.024 C 
ATOM     12  C   UNL     1     -11.554   9.259  20.622  0.00  0.00    -0.023 C 
ATOM     13  C   UNL     1     -12.258   8.121  20.765  0.00  0.00    -0.073 C 
ATOM     22  C   UNL     1     -11.611   6.790  20.496  0.00  0.00    +0.039 C 
ENDROOT
BRANCH   6  10
ATOM     10  C   UNL     1     -12.998  10.379  23.301  0.00  0.00    -0.013 C 
ATOM     17  C   UNL     1     -14.262  10.397  24.154  0.00  0.00    +0.007 C 
ATOM     18  C   UNL     1     -12.008  11.437  23.780  0.00  0.00    +0.007 C 
ENDBRANCH   6  10
BRANCH   7  11
ATOM     11  C   UNL     1     -12.310  11.404  19.638  0.00  0.00    +0.092 C 
BRANCH  11   3
ATOM      3  N   UNL     1     -11.739  10.678  18.504  0.00  0.00    -0.302 NA
ATOM     15  C   UNL     1     -12.782  10.363  17.517  0.00  0.00    +0.087 C 
ATOM     16  C   UNL     1     -10.647  11.453  17.896  0.00  0.00    +0.087 C 
ATOM     19  C   UNL     1     -12.209   9.562  16.348  0.00  0.00    +0.046 C 
ATOM     20  C   UNL     1     -10.007  10.686  16.739  0.00  0.00    +0.046 C 
ATOM     21  C   UNL     1     -11.044  10.295  15.691  0.00  0.00    +0.117 C 
BRANCH  21   1
ATOM      1  O   UNL     1     -10.429   9.459  14.720  0.00  0.00    -0.392 OA
ATOM     28  H   UNL     1      -9.485   9.691  14.689  0.00  0.00    +0.210 HD
ENDBRANCH  21   1
ENDBRANCH  11   3
ENDBRANCH   7  11
BRANCH   9  14
ATOM     14  C   UNL     1     -14.612   7.217  20.412  0.00  0.00    +0.105 C 
BRANCH  14  23
ATOM      2  O   UNL     1     -14.570   5.857  22.438  0.00  0.00    -0.425 OA
ATOM      4  N   UNL     1     -16.063   5.184  20.915  0.00  0.00    -0.112 NA
ATOM      5  N   UNL     1     -16.148   4.334  22.001  0.00  0.00    -0.112 NA
ATOM     23  C   UNL     1     -15.130   6.058  21.214  0.00  0.00    +0.218 A 
ATOM     24  C   UNL     1     -15.258   4.764  22.865  0.00  0.00    +0.217 A 
BRANCH  24  25
ATOM     25  C   UNL     1     -14.916   4.243  24.194  0.00  0.00    +0.097 C 
BRANCH  25  26
ATOM     26  C   UNL     1     -15.876   3.134  24.674  0.00  0.00    +0.006 C 
ATOM     27  C   UNL     1     -16.744   3.571  25.844  0.00  0.00    +0.004 C 
ENDBRANCH  25  26
ENDBRANCH  24  25
ENDBRANCH  14  23
ENDBRANCH   9  14
TORSDOF 8
ENDMDL
MODEL 6
REMARK VINA RESULT:      -6.0     26.606     29.360
REMARK  Name = 45783998
REMARK  12 active torsions:
REMARK  status: ('A' for Active; 'I' for Inactive)
REMARK    1  A    between atoms: O_1  and  C_21
REMARK    2  A    between atoms: N_3  and  C_11
REMARK    3  A    between atoms: C_6  and  C_10
REMARK    4  A    between atoms: C_7  and  C_11
REMARK    5  A    between atoms: C_9  and  C_14
REMARK    6  A    between atoms: C_10  and  C_17
REMARK    7  A    between atoms: C_10  and  C_18
REMARK    8  A    between atoms: C_13  and  C_22
REMARK    9  A    between atoms: C_14  and  C_23
REMARK   10  A    between atoms: C_24  and  C_25
REMARK   11  A    between atoms: C_25  and  C_26
REMARK   12  A    between atoms: C_26  and  C_27
REMARK                            x       y       z     vdW  Elec       q    Type
REMARK                         _______ _______ _______ _____ _____    ______ ____
ROOT
ATOM      6  C   UNL     1      -5.522 -10.440  10.570  0.00  0.00    +0.000 C 
ATOM      7  C   UNL     1      -4.710 -10.124   9.293  0.00  0.00    +0.029 C 
ATOM      8  C   UNL     1      -4.637 -11.144  11.610  0.00  0.00    +0.012 C 
ATOM      9  C   UNL     1      -3.378 -10.335  11.988  0.00  0.00    +0.024 C 
ATOM     12  C   UNL     1      -3.344  -9.564   9.599  0.00  0.00    -0.023 C 
ATOM     13  C   UNL     1      -2.737  -9.637  10.798  0.00  0.00    -0.073 C 
ATOM     22  C   UNL     1      -1.408  -8.968  11.017  0.00  0.00    +0.039 C 
ENDROOT
BRANCH   6  10
ATOM     10  C   UNL     1      -6.163  -9.174  11.154  0.00  0.00    -0.013 C 
ATOM     17  C   UNL     1      -6.737  -9.457  12.538  0.00  0.00    +0.007 C 
ATOM     18  C   UNL     1      -7.246  -8.646  10.217  0.00  0.00    +0.007 C 
ENDBRANCH   6  10
BRANCH   7  11
ATOM     11  C   UNL     1      -4.559 -11.358   8.397  0.00  0.00    +0.092 C 
BRANCH  11   3
ATOM      3  N   UNL     1      -4.931 -11.043   7.018  0.00  0.00    -0.302 NA
ATOM     15  C   UNL     1      -4.728 -12.212   6.151  0.00  0.00    +0.087 C 
ATOM     16  C   UNL     1      -6.321 -10.568   6.956  0.00  0.00    +0.087 C 
ATOM     19  C   UNL     1      -5.065 -11.883   4.697  0.00  0.00    +0.046 C 
ATOM     20  C   UNL     1      -6.708 -10.187   5.527  0.00  0.00    +0.046 C 
ATOM     21  C   UNL     1      -6.489 -11.350   4.564  0.00  0.00    +0.117 C 
BRANCH  21   1
ATOM      1  O   UNL     1      -6.717 -10.900   3.235  0.00  0.00    -0.392 OA
ATOM     28  H   UNL     1      -5.971 -11.203   2.691  0.00  0.00    +0.210 HD
ENDBRANCH  21   1
ENDBRANCH  11   3
ENDBRANCH   7  11
BRANCH   9  14
ATOM     14  C   UNL     1      -2.407 -11.261  12.731  0.00  0.00    +0.105 C 
BRANCH  14  23
ATOM      2  O   UNL     1      -3.690 -10.780  14.750  0.00  0.00    -0.425 OA
ATOM      4  N   UNL     1      -1.499 -11.059  15.103  0.00  0.00    -0.112 NA
ATOM      5  N   UNL     1      -2.097 -10.797  16.321  0.00  0.00    -0.112 NA
ATOM     23  C   UNL     1      -2.466 -11.040  14.215  0.00  0.00    +0.218 A 
ATOM     24  C   UNL     1      -3.376 -10.641  16.067  0.00  0.00    +0.217 A 
BRANCH  24  25
ATOM     25  C   UNL     1      -4.483 -10.347  16.986  0.00  0.00    +0.097 C 
BRANCH  25  26
ATOM     26  C   UNL     1      -5.639  -9.578  16.312  0.00  0.00    +0.006 C 
ATOM     27  C   UNL     1      -6.974  -9.795  17.008  0.00  0.00    +0.004 C 
ENDBRANCH  25  26
ENDBRANCH  24  25
ENDBRANCH  14  23
ENDBRANCH   9  14
TORSDOF 8
ENDMDL
MODEL 7
REMARK VINA RESULT:      -5.9     28.089     31.066
REMARK  Name = 45783998
REMARK  12 active torsions:
REMARK  status: ('A' for Active; 'I' for Inactive)
REMARK    1  A    between atoms: O_1  and  C_21
REMARK    2  A    between atoms: N_3  and  C_11
REMARK    3  A    between atoms: C_6  and  C_10
REMARK    4  A    between atoms: C_7  and  C_11
REMARK    5  A    between atoms: C_9  and  C_14
REMARK    6  A    between atoms: C_10  and  C_17
REMARK    7  A    between atoms: C_10  and  C_18
REMARK    8  A    between atoms: C_13  and  C_22
REMARK    9  A    between atoms: C_14  and  C_23
REMARK   10  A    between atoms: C_24  and  C_25
REMARK   11  A    between atoms: C_25  and  C_26
REMARK   12  A    between atoms: C_26  and  C_27
REMARK                            x       y       z     vdW  Elec       q    Type
REMARK                         _______ _______ _______ _____ _____    ______ ____
ROOT
ATOM      6  C   UNL     1      -9.755  -9.337  17.865  0.00  0.00    +0.000 C 
ATOM      7  C   UNL     1      -8.867  -9.974  16.771  0.00  0.00    +0.029 C 
ATOM      8  C   UNL     1     -10.113  -7.890  17.491  0.00  0.00    +0.012 C 
ATOM      9  C   UNL     1     -10.816  -7.769  16.123  0.00  0.00    +0.024 C 
ATOM     12  C   UNL     1      -9.357  -9.672  15.378  0.00  0.00    -0.023 C 
ATOM     13  C   UNL     1     -10.236  -8.700  15.069  0.00  0.00    -0.073 C 
ATOM     22  C   UNL     1     -10.723  -8.540  13.655  0.00  0.00    +0.039 C 
ENDROOT
BRANCH   6  10
ATOM     10  C   UNL     1     -11.017 -10.172  18.118  0.00  0.00    -0.013 C 
ATOM     17  C   UNL     1     -11.731  -9.690  19.377  0.00  0.00    +0.007 C 
ATOM     18  C   UNL     1     -10.662 -11.652  18.232  0.00  0.00    +0.007 C 
ENDBRANCH   6  10
BRANCH   7  11
ATOM     11  C   UNL     1      -7.406  -9.532  16.898  0.00  0.00    +0.092 C 
BRANCH  11   3
ATOM      3  N   UNL     1      -6.614 -10.557  17.579  0.00  0.00    -0.302 NA
ATOM     15  C   UNL     1      -7.103 -11.899  17.231  0.00  0.00    +0.087 C 
ATOM     16  C   UNL     1      -5.189 -10.407  17.249  0.00  0.00    +0.087 C 
ATOM     19  C   UNL     1      -6.316 -12.979  17.973  0.00  0.00    +0.046 C 
ATOM     20  C   UNL     1      -4.342 -11.440  17.992  0.00  0.00    +0.046 C 
ATOM     21  C   UNL     1      -4.819 -12.860  17.702  0.00  0.00    +0.117 C 
BRANCH  21   1
ATOM      1  O   UNL     1      -4.102 -13.767  18.529  0.00  0.00    -0.392 OA
ATOM     28  H   UNL     1      -3.401 -14.167  17.987  0.00  0.00    +0.210 HD
ENDBRANCH  21   1
ENDBRANCH  11   3
ENDBRANCH   7  11
BRANCH   9  14
ATOM     14  C   UNL     1     -10.797  -6.297  15.693  0.00  0.00    +0.105 C 
BRANCH  14  23
ATOM      2  O   UNL     1     -11.963  -5.011  13.977  0.00  0.00    -0.425 OA
ATOM      4  N   UNL     1     -13.297  -6.325  15.201  0.00  0.00    -0.112 NA
ATOM      5  N   UNL     1     -14.082  -5.663  14.276  0.00  0.00    -0.112 NA
ATOM     23  C   UNL     1     -12.068  -5.915  14.989  0.00  0.00    +0.218 A 
ATOM     24  C   UNL     1     -13.262  -4.907  13.584  0.00  0.00    +0.217 A 
BRANCH  24  25
ATOM     25  C   UNL     1     -13.547  -3.992  12.472  0.00  0.00    +0.097 C 
BRANCH  25  26
ATOM     26  C   UNL     1     -12.278  -3.331  11.893  0.00  0.00    +0.006 C 
ATOM     27  C   UNL     1     -11.975  -3.781  10.473  0.00  0.00    +0.004 C 
ENDBRANCH  25  26
ENDBRANCH  24  25
ENDBRANCH  14  23
ENDBRANCH   9  14
TORSDOF 8
ENDMDL
MODEL 8
REMARK VINA RESULT:      -5.9     26.007     29.036
REMARK  Name = 45783998
REMARK  12 active torsions:
REMARK  status: ('A' for Active; 'I' for Inactive)
REMARK    1  A    between atoms: O_1  and  C_21
REMARK    2  A    between atoms: N_3  and  C_11
REMARK    3  A    between atoms: C_6  and  C_10
REMARK    4  A    between atoms: C_7  and  C_11
REMARK    5  A    between atoms: C_9  and  C_14
REMARK    6  A    between atoms: C_10  and  C_17
REMARK    7  A    between atoms: C_10  and  C_18
REMARK    8  A    between atoms: C_13  and  C_22
REMARK    9  A    between atoms: C_14  and  C_23
REMARK   10  A    between atoms: C_24  and  C_25
REMARK   11  A    between atoms: C_25  and  C_26
REMARK   12  A    between atoms: C_26  and  C_27
REMARK                            x       y       z     vdW  Elec       q    Type
REMARK                         _______ _______ _______ _____ _____    ______ ____
ROOT
ATOM      6  C   UNL     1     -13.231   8.781  20.352  0.00  0.00    +0.000 C 
ATOM      7  C   UNL     1     -11.928   7.952  20.285  0.00  0.00    +0.029 C 
ATOM      8  C   UNL     1     -14.458   7.867  20.211  0.00  0.00    +0.012 C 
ATOM      9  C   UNL     1     -14.508   6.744  21.268  0.00  0.00    +0.024 C 
ATOM     12  C   UNL     1     -12.003   6.687  21.102  0.00  0.00    -0.023 C 
ATOM     13  C   UNL     1     -13.143   6.138  21.561  0.00  0.00    -0.073 C 
ATOM     22  C   UNL     1     -13.098   4.920  22.441  0.00  0.00    +0.039 C 
ENDROOT
BRANCH   6  10
ATOM     10  C   UNL     1     -13.302   9.609  21.642  0.00  0.00    -0.013 C 
ATOM     17  C   UNL     1     -14.676  10.253  21.786  0.00  0.00    +0.007 C 
ATOM     18  C   UNL     1     -12.204  10.669  21.655  0.00  0.00    +0.007 C 
ENDBRANCH   6  10
BRANCH   7  11
ATOM     11  C   UNL     1     -11.555   7.597  18.841  0.00  0.00    +0.092 C 
BRANCH  11   3
ATOM      3  N   UNL     1     -11.383   8.810  18.040  0.00  0.00    -0.302 NA
ATOM     15  C   UNL     1     -10.274   9.619  18.565  0.00  0.00    +0.087 C 
ATOM     16  C   UNL     1     -11.169   8.466  16.627  0.00  0.00    +0.087 C 
ATOM     19  C   UNL     1     -10.113  10.914  17.768  0.00  0.00    +0.046 C 
ATOM     20  C   UNL     1     -11.038   9.724  15.769  0.00  0.00    +0.046 C 
ATOM     21  C   UNL     1      -9.922  10.630  16.282  0.00  0.00    +0.117 C 
BRANCH  21   1
ATOM      1  O   UNL     1      -9.941  11.848  15.548  0.00  0.00    -0.392 OA
ATOM     28  H   UNL     1      -9.019  12.129  15.423  0.00  0.00    +0.210 HD
ENDBRANCH  21   1
ENDBRANCH  11   3
ENDBRANCH   7  11
BRANCH   9  14
ATOM     14  C   UNL     1     -15.541   5.702  20.826  0.00  0.00    +0.105 C 
BRANCH  14  23
ATOM      2  O   UNL     1     -16.350   3.985  22.360  0.00  0.00    -0.425 OA
ATOM      4  N   UNL     1     -17.279   5.996  22.665  0.00  0.00    -0.112 NA
ATOM      5  N   UNL     1     -17.823   5.129  23.594  0.00  0.00    -0.112 NA
ATOM     23  C   UNL     1     -16.424   5.286  21.967  0.00  0.00    +0.218 A 
ATOM     24  C   UNL     1     -17.253   3.967  23.378  0.00  0.00    +0.217 A 
BRANCH  24  25
ATOM     25  C   UNL     1     -17.447   2.686  24.070  0.00  0.00    +0.097 C 
BRANCH  25  26
ATOM     26  C   UNL     1     -16.369   2.407  25.139  0.00  0.00    +0.006 C 
ATOM     27  C   UNL     1     -16.962   2.058  26.495  0.00  0.00    +0.004 C 
ENDBRANCH  25  26
ENDBRANCH  24  25
ENDBRANCH  14  23
ENDBRANCH   9  14
TORSDOF 8
ENDMDL
MODEL 9
REMARK VINA RESULT:      -5.7     26.276     29.178
REMARK  Name = 45783998
REMARK  12 active torsions:
REMARK  status: ('A' for Active; 'I' for Inactive)
REMARK    1  A    between atoms: O_1  and  C_21
REMARK    2  A    between atoms: N_3  and  C_11
REMARK    3  A    between atoms: C_6  and  C_10
REMARK    4  A    between atoms: C_7  and  C_11
REMARK    5  A    between atoms: C_9  and  C_14
REMARK    6  A    between atoms: C_10  and  C_17
REMARK    7  A    between atoms: C_10  and  C_18
REMARK    8  A    between atoms: C_13  and  C_22
REMARK    9  A    between atoms: C_14  and  C_23
REMARK   10  A    between atoms: C_24  and  C_25
REMARK   11  A    between atoms: C_25  and  C_26
REMARK   12  A    between atoms: C_26  and  C_27
REMARK                            x       y       z     vdW  Elec       q    Type
REMARK                         _______ _______ _______ _____ _____    ______ ____
ROOT
ATOM      6  C   UNL     1      -3.422 -10.639  15.284  0.00  0.00    +0.000 C 
ATOM      7  C   UNL     1      -4.263 -11.249  14.138  0.00  0.00    +0.029 C 
ATOM      8  C   UNL     1      -4.180 -10.734  16.617  0.00  0.00    +0.012 C 
ATOM      9  C   UNL     1      -4.585 -12.176  16.988  0.00  0.00    +0.024 C 
ATOM     12  C   UNL     1      -4.911 -12.553  14.527  0.00  0.00    -0.023 C 
ATOM     13  C   UNL     1      -5.054 -12.991  15.791  0.00  0.00    -0.073 C 
ATOM     22  C   UNL     1      -5.639 -14.350  16.062  0.00  0.00    +0.039 C 
ENDROOT
BRANCH   6  10
ATOM     10  C   UNL     1      -2.043 -11.305  15.382  0.00  0.00    -0.013 C 
ATOM     17  C   UNL     1      -0.989 -10.286  15.800  0.00  0.00    +0.007 C 
ATOM     18  C   UNL     1      -1.670 -11.953  14.052  0.00  0.00    +0.007 C 
ENDBRANCH   6  10
BRANCH   7  11
ATOM     11  C   UNL     1      -5.341 -10.277  13.647  0.00  0.00    +0.092 C 
BRANCH  11   3
ATOM      3  N   UNL     1      -5.264 -10.112  12.195  0.00  0.00    -0.302 NA
ATOM     15  C   UNL     1      -6.023  -8.926  11.772  0.00  0.00    +0.087 C 
ATOM     16  C   UNL     1      -3.862 -10.031  11.761  0.00  0.00    +0.087 C 
ATOM     19  C   UNL     1      -5.992  -8.769  10.252  0.00  0.00    +0.046 C 
ATOM     20  C   UNL     1      -3.763  -9.908  10.241  0.00  0.00    +0.046 C 
ATOM     21  C   UNL     1      -4.560  -8.712   9.728  0.00  0.00    +0.117 C 
BRANCH  21   1
ATOM      1  O   UNL     1      -4.561  -8.732   8.307  0.00  0.00    -0.392 OA
ATOM     28  H   UNL     1      -3.984  -8.011   8.003  0.00  0.00    +0.210 HD
ENDBRANCH  21   1
ENDBRANCH  11   3
ENDBRANCH   7  11
BRANCH   9  14
ATOM     14  C   UNL     1      -5.624 -12.118  18.114  0.00  0.00    +0.105 C 
BRANCH  14  23
ATOM      2  O   UNL     1      -7.522 -11.395  16.760  0.00  0.00    -0.425 OA
ATOM      4  N   UNL     1      -6.993  -9.990  18.419  0.00  0.00    -0.112 NA
ATOM      5  N   UNL     1      -8.075  -9.462  17.741  0.00  0.00    -0.112 NA
ATOM     23  C   UNL     1      -6.704 -11.118  17.813  0.00  0.00    +0.218 A 
ATOM     24  C   UNL     1      -8.349 -10.314  16.781  0.00  0.00    +0.217 A 
BRANCH  24  25
ATOM     25  C   UNL     1      -9.401 -10.264  15.757  0.00  0.00    +0.097 C 
BRANCH  25  26
ATOM     26  C   UNL     1      -8.883  -9.791  14.382  0.00  0.00    +0.006 C 
ATOM     27  C   UNL     1      -9.001 -10.862  13.309  0.00  0.00    +0.004 C 
ENDBRANCH  25  26
ENDBRANCH  24  25
ENDBRANCH  14  23
ENDBRANCH   9  14
TORSDOF 8
ENDMDL
MODEL 10
REMARK VINA RESULT:      -5.7     17.772     22.000
REMARK  Name = 45783998
REMARK  12 active torsions:
REMARK  status: ('A' for Active; 'I' for Inactive)
REMARK    1  A    between atoms: O_1  and  C_21
REMARK    2  A    between atoms: N_3  and  C_11
REMARK    3  A    between atoms: C_6  and  C_10
REMARK    4  A    between atoms: C_7  and  C_11
REMARK    5  A    between atoms: C_9  and  C_14
REMARK    6  A    between atoms: C_10  and  C_17
REMARK    7  A    between atoms: C_10  and  C_18
REMARK    8  A    between atoms: C_13  and  C_22
REMARK    9  A    between atoms: C_14  and  C_23
REMARK   10  A    between atoms: C_24  and  C_25
REMARK   11  A    between atoms: C_25  and  C_26
REMARK   12  A    between atoms: C_26  and  C_27
REMARK                            x       y       z     vdW  Elec       q    Type
REMARK                         _______ _______ _______ _____ _____    ______ ____
ROOT
ATOM      6  C   UNL     1      12.184   5.178  -1.400  0.00  0.00    +0.000 C 
ATOM      7  C   UNL     1      13.266   4.136  -1.765  0.00  0.00    +0.029 C 
ATOM      8  C   UNL     1      11.519   4.818  -0.063  0.00  0.00    +0.012 C 
ATOM      9  C   UNL     1      12.522   4.689   1.102  0.00  0.00    +0.024 C 
ATOM     12  C   UNL     1      14.131   3.763  -0.588  0.00  0.00    -0.023 C 
ATOM     13  C   UNL     1      13.823   4.012   0.698  0.00  0.00    -0.073 C 
ATOM     22  C   UNL     1      14.800   3.674   1.790  0.00  0.00    +0.039 C 
ENDROOT
BRANCH   6  10
ATOM     10  C   UNL     1      12.763   6.598  -1.366  0.00  0.00    -0.013 C 
ATOM     17  C   UNL     1      11.642   7.632  -1.397  0.00  0.00    +0.007 C 
ATOM     18  C   UNL     1      13.723   6.809  -2.533  0.00  0.00    +0.007 C 
ENDBRANCH   6  10
BRANCH   7  11
ATOM     11  C   UNL     1      12.651   2.865  -2.360  0.00  0.00    +0.092 C 
BRANCH  11   3
ATOM      3  N   UNL     1      11.618   3.202  -3.340  0.00  0.00    -0.302 NA
ATOM     15  C   UNL     1      12.134   3.038  -4.707  0.00  0.00    +0.087 C 
ATOM     16  C   UNL     1      10.417   2.383  -3.122  0.00  0.00    +0.087 C 
ATOM     19  C   UNL     1      11.081   3.434  -5.742  0.00  0.00    +0.046 C 
ATOM     20  C   UNL     1       9.310   2.758  -4.107  0.00  0.00    +0.046 C 
ATOM     21  C   UNL     1       9.790   2.643  -5.551  0.00  0.00    +0.117 C 
BRANCH  21   1
ATOM      1  O   UNL     1       8.780   3.145  -6.416  0.00  0.00    -0.392 OA
ATOM     28  H   UNL     1       9.203   3.769  -7.030  0.00  0.00    +0.210 HD
ENDBRANCH  21   1
ENDBRANCH  11   3
ENDBRANCH   7  11
BRANCH   9  14
ATOM     14  C   UNL     1      11.824   3.988   2.274  0.00  0.00    +0.105 C 
BRANCH  14  23
ATOM      2  O   UNL     1      10.277   4.595   4.061  0.00  0.00    -0.425 OA
ATOM      4  N   UNL     1      11.769   6.185   3.563  0.00  0.00    -0.112 NA
ATOM      5  N   UNL     1      10.965   6.658   4.583  0.00  0.00    -0.112 NA
ATOM     23  C   UNL     1      11.332   4.977   3.291  0.00  0.00    +0.218 A 
ATOM     24  C   UNL     1      10.108   5.698   4.841  0.00  0.00    +0.217 A 
BRANCH  24  25
ATOM     25  C   UNL     1       9.025   5.651   5.831  0.00  0.00    +0.097 C 
BRANCH  25  26
ATOM     26  C   UNL     1       9.538   5.559   7.283  0.00  0.00    +0.006 C 
ATOM     27  C   UNL     1       9.143   6.762   8.124  0.00  0.00    +0.004 C 
ENDBRANCH  25  26
ENDBRANCH  24  25
ENDBRANCH  14  23
ENDBRANCH   9  14
TORSDOF 8
ENDMDL
