MODEL 1
REMARK VINA RESULT:      -6.5      0.000      0.000
REMARK  Name = 45783700
REMARK  9 active torsions:
REMARK  status: ('A' for Active; 'I' for Inactive)
REMARK    1  A    between atoms: O_2  and  C_22
REMARK    2  A    between atoms: O_2  and  C_23
REMARK    3  A    between atoms: N_3  and  C_10
REMARK    4  A    between atoms: C_7  and  C_13
REMARK    5  A    between atoms: C_10  and  C_12
REMARK    6  A    between atoms: C_12  and  C_14
REMARK    7  A    between atoms: C_12  and  C_15
REMARK    8  A    between atoms: C_12  and  C_16
REMARK    9  A    between atoms: C_17  and  C_18
REMARK                            x       y       z     vdW  Elec       q    Type
REMARK                         _______ _______ _______ _____ _____    ______ ____
ROOT
ATOM      1  O   UNL     1      15.391   8.784  19.718  0.00  0.00    -0.336 OA
ATOM      4  N   UNL     1      16.227   6.765  19.223  0.00  0.00    -0.190 NA
ATOM      5  N   UNL     1      16.559   8.649  20.480  0.00  0.00    -0.056 NA
ATOM     13  C   UNL     1      15.269   7.632  19.007  0.00  0.00    +0.245 A 
ATOM     17  C   UNL     1      16.994   7.433  20.133  0.00  0.00    +0.204 A 
ENDROOT
BRANCH  17  18
ATOM      6  N   UNL     1      19.882   6.859  22.404  0.00  0.00    -0.221 NA
ATOM     18  C   UNL     1      18.190   6.858  20.678  0.00  0.00    +0.041 A 
ATOM     19  C   UNL     1      18.816   5.784  20.054  0.00  0.00    +0.018 A 
ATOM     20  C   UNL     1      18.757   7.354  21.840  0.00  0.00    +0.126 A 
ATOM     21  C   UNL     1      19.975   5.247  20.605  0.00  0.00    +0.068 A 
ATOM     22  C   UNL     1      20.463   5.816  21.770  0.00  0.00    +0.214 A 
BRANCH  22   2
ATOM      2  O   UNL     1      21.603   5.304  22.332  0.00  0.00    -0.480 OA
ATOM     23  C   UNL     1      21.983   3.994  21.927  0.00  0.00    +0.279 C 
ENDBRANCH  22   2
ENDBRANCH  17  18
BRANCH  13   7
ATOM      3  N   UNL     1      12.804   7.874  18.771  0.00  0.00    -0.291 NA
ATOM      7  C   UNL     1      14.068   7.528  18.091  0.00  0.00    +0.146 C 
ATOM      8  C   UNL     1      14.147   8.495  16.896  0.00  0.00    +0.030 C 
ATOM      9  C   UNL     1      11.916   8.415  17.743  0.00  0.00    +0.085 C 
ATOM     11  C   UNL     1      12.857   9.301  16.952  0.00  0.00    +0.017 C 
BRANCH   3  10
ATOM     10  C   UNL     1      12.205   6.748  19.476  0.00  0.00    +0.091 C 
BRANCH  10  12
ATOM     12  C   UNL     1      11.780   7.067  20.933  0.00  0.00    -0.025 C 
ATOM     14  C   UNL     1      11.160   5.831  21.607  0.00  0.00    +0.012 C 
ATOM     15  C   UNL     1      12.977   7.554  21.770  0.00  0.00    +0.012 C 
ATOM     16  C   UNL     1      10.723   8.188  20.893  0.00  0.00    +0.012 C 
ENDBRANCH  10  12
ENDBRANCH   3  10
ENDBRANCH  13   7
TORSDOF 5
ENDMDL
MODEL 2
REMARK VINA RESULT:      -6.1      1.105      3.112
REMARK  Name = 45783700
REMARK  9 active torsions:
REMARK  status: ('A' for Active; 'I' for Inactive)
REMARK    1  A    between atoms: O_2  and  C_22
REMARK    2  A    between atoms: O_2  and  C_23
REMARK    3  A    between atoms: N_3  and  C_10
REMARK    4  A    between atoms: C_7  and  C_13
REMARK    5  A    between atoms: C_10  and  C_12
REMARK    6  A    between atoms: C_12  and  C_14
REMARK    7  A    between atoms: C_12  and  C_15
REMARK    8  A    between atoms: C_12  and  C_16
REMARK    9  A    between atoms: C_17  and  C_18
REMARK                            x       y       z     vdW  Elec       q    Type
REMARK                         _______ _______ _______ _____ _____    ______ ____
ROOT
ATOM      1  O   UNL     1      14.703   6.708  19.566  0.00  0.00    -0.336 OA
ATOM      4  N   UNL     1      15.898   7.930  21.014  0.00  0.00    -0.190 NA
ATOM      5  N   UNL     1      15.992   6.161  19.565  0.00  0.00    -0.056 NA
ATOM     13  C   UNL     1      14.733   7.744  20.445  0.00  0.00    +0.245 A 
ATOM     17  C   UNL     1      16.638   6.935  20.443  0.00  0.00    +0.204 A 
ENDROOT
BRANCH  17  18
ATOM      6  N   UNL     1      19.960   7.432  22.037  0.00  0.00    -0.221 NA
ATOM     18  C   UNL     1      18.021   6.742  20.770  0.00  0.00    +0.041 A 
ATOM     19  C   UNL     1      18.762   5.727  20.174  0.00  0.00    +0.018 A 
ATOM     20  C   UNL     1      18.661   7.560  21.687  0.00  0.00    +0.126 A 
ATOM     21  C   UNL     1      20.102   5.564  20.509  0.00  0.00    +0.068 A 
ATOM     22  C   UNL     1      20.649   6.435  21.438  0.00  0.00    +0.214 A 
BRANCH  22   2
ATOM      2  O   UNL     1      21.967   6.294  21.785  0.00  0.00    -0.480 OA
ATOM     23  C   UNL     1      22.419   4.973  22.058  0.00  0.00    +0.279 C 
ENDBRANCH  22   2
ENDBRANCH  17  18
BRANCH  13   7
ATOM      3  N   UNL     1      12.665   8.627  19.378  0.00  0.00    -0.291 NA
ATOM      7  C   UNL     1      13.441   8.511  20.630  0.00  0.00    +0.146 C 
ATOM      8  C   UNL     1      12.481   7.829  21.622  0.00  0.00    +0.030 C 
ATOM      9  C   UNL     1      11.259   8.708  19.770  0.00  0.00    +0.085 C 
ATOM     11  C   UNL     1      11.176   7.657  20.859  0.00  0.00    +0.017 C 
BRANCH   3  10
ATOM     10  C   UNL     1      13.071   9.759  18.555  0.00  0.00    +0.091 C 
BRANCH  10  12
ATOM     12  C   UNL     1      13.177   9.434  17.042  0.00  0.00    -0.025 C 
ATOM     14  C   UNL     1      14.082   8.213  16.806  0.00  0.00    +0.012 C 
ATOM     15  C   UNL     1      11.791   9.164  16.431  0.00  0.00    +0.012 C 
ATOM     16  C   UNL     1      13.797  10.652  16.329  0.00  0.00    +0.012 C 
ENDBRANCH  10  12
ENDBRANCH   3  10
ENDBRANCH  13   7
TORSDOF 5
ENDMDL
MODEL 3
REMARK VINA RESULT:      -6.1     26.060     28.223
REMARK  Name = 45783700
REMARK  9 active torsions:
REMARK  status: ('A' for Active; 'I' for Inactive)
REMARK    1  A    between atoms: O_2  and  C_22
REMARK    2  A    between atoms: O_2  and  C_23
REMARK    3  A    between atoms: N_3  and  C_10
REMARK    4  A    between atoms: C_7  and  C_13
REMARK    5  A    between atoms: C_10  and  C_12
REMARK    6  A    between atoms: C_12  and  C_14
REMARK    7  A    between atoms: C_12  and  C_15
REMARK    8  A    between atoms: C_12  and  C_16
REMARK    9  A    between atoms: C_17  and  C_18
REMARK                            x       y       z     vdW  Elec       q    Type
REMARK                         _______ _______ _______ _____ _____    ______ ____
ROOT
ATOM      1  O   UNL     1      -2.019 -10.473  14.590  0.00  0.00    -0.336 OA
ATOM      4  N   UNL     1      -4.229 -10.816  14.456  0.00  0.00    -0.190 NA
ATOM      5  N   UNL     1      -2.499 -10.434  15.905  0.00  0.00    -0.056 NA
ATOM     13  C   UNL     1      -3.101 -10.703  13.801  0.00  0.00    +0.245 A 
ATOM     17  C   UNL     1      -3.810 -10.644  15.744  0.00  0.00    +0.204 A 
ENDROOT
BRANCH  17  18
ATOM      6  N   UNL     1      -6.878 -10.085  17.769  0.00  0.00    -0.221 NA
ATOM     18  C   UNL     1      -4.726 -10.685  16.847  0.00  0.00    +0.041 A 
ATOM     19  C   UNL     1      -4.389 -11.331  18.032  0.00  0.00    +0.018 A 
ATOM     20  C   UNL     1      -5.971 -10.083  16.766  0.00  0.00    +0.126 A 
ATOM     21  C   UNL     1      -5.297 -11.354  19.086  0.00  0.00    +0.068 A 
ATOM     22  C   UNL     1      -6.517 -10.722  18.905  0.00  0.00    +0.214 A 
BRANCH  22   2
ATOM      2  O   UNL     1      -7.428 -10.732  19.928  0.00  0.00    -0.480 OA
ATOM     23  C   UNL     1      -8.749 -11.149  19.605  0.00  0.00    +0.279 C 
ENDBRANCH  22   2
ENDBRANCH  17  18
BRANCH  13   7
ATOM      3  N   UNL     1      -3.895 -10.130  11.513  0.00  0.00    -0.291 NA
ATOM      7  C   UNL     1      -2.843 -10.792  12.311  0.00  0.00    +0.146 C 
ATOM      8  C   UNL     1      -1.536 -10.095  11.891  0.00  0.00    +0.030 C 
ATOM      9  C   UNL     1      -3.250  -9.664  10.286  0.00  0.00    +0.085 C 
ATOM     11  C   UNL     1      -1.944  -9.102  10.812  0.00  0.00    +0.017 C 
BRANCH   3  10
ATOM     10  C   UNL     1      -5.036 -10.993  11.238  0.00  0.00    +0.091 C 
BRANCH  10  12
ATOM     12  C   UNL     1      -6.404 -10.267  11.285  0.00  0.00    -0.025 C 
ATOM     14  C   UNL     1      -6.305  -8.963  12.096  0.00  0.00    +0.012 C 
ATOM     15  C   UNL     1      -6.915  -9.945   9.869  0.00  0.00    +0.012 C 
ATOM     16  C   UNL     1      -7.423 -11.197  11.973  0.00  0.00    +0.012 C 
ENDBRANCH  10  12
ENDBRANCH   3  10
ENDBRANCH  13   7
TORSDOF 5
ENDMDL
MODEL 4
REMARK VINA RESULT:      -5.7      1.702      2.172
REMARK  Name = 45783700
REMARK  9 active torsions:
REMARK  status: ('A' for Active; 'I' for Inactive)
REMARK    1  A    between atoms: O_2  and  C_22
REMARK    2  A    between atoms: O_2  and  C_23
REMARK    3  A    between atoms: N_3  and  C_10
REMARK    4  A    between atoms: C_7  and  C_13
REMARK    5  A    between atoms: C_10  and  C_12
REMARK    6  A    between atoms: C_12  and  C_14
REMARK    7  A    between atoms: C_12  and  C_15
REMARK    8  A    between atoms: C_12  and  C_16
REMARK    9  A    between atoms: C_17  and  C_18
REMARK                            x       y       z     vdW  Elec       q    Type
REMARK                         _______ _______ _______ _____ _____    ______ ____
ROOT
ATOM      1  O   UNL     1      15.817   6.078  18.627  0.00  0.00    -0.336 OA
ATOM      4  N   UNL     1      15.831   8.064  19.664  0.00  0.00    -0.190 NA
ATOM      5  N   UNL     1      16.950   6.079  19.451  0.00  0.00    -0.056 NA
ATOM     13  C   UNL     1      15.215   7.283  18.813  0.00  0.00    +0.245 A 
ATOM     17  C   UNL     1      16.889   7.284  20.029  0.00  0.00    +0.204 A 
ENDROOT
BRANCH  17  18
ATOM      6  N   UNL     1      19.661   7.204  22.506  0.00  0.00    -0.221 NA
ATOM     18  C   UNL     1      17.870   7.736  20.972  0.00  0.00    +0.041 A 
ATOM     19  C   UNL     1      17.996   9.086  21.281  0.00  0.00    +0.018 A 
ATOM     20  C   UNL     1      18.719   6.843  21.606  0.00  0.00    +0.126 A 
ATOM     21  C   UNL     1      18.955   9.496  22.201  0.00  0.00    +0.068 A 
ATOM     22  C   UNL     1      19.756   8.524  22.780  0.00  0.00    +0.214 A 
BRANCH  22   2
ATOM      2  O   UNL     1      20.708   8.903  23.689  0.00  0.00    -0.480 OA
ATOM     23  C   UNL     1      21.314   7.866  24.451  0.00  0.00    +0.279 C 
ENDBRANCH  22   2
ENDBRANCH  17  18
BRANCH  13   7
ATOM      3  N   UNL     1      12.948   8.309  18.784  0.00  0.00    -0.291 NA
ATOM      7  C   UNL     1      13.947   7.533  18.022  0.00  0.00    +0.146 C 
ATOM      8  C   UNL     1      14.195   8.360  16.747  0.00  0.00    +0.030 C 
ATOM      9  C   UNL     1      12.170   9.060  17.799  0.00  0.00    +0.085 C 
ATOM     11  C   UNL     1      13.248   9.547  16.853  0.00  0.00    +0.017 C 
BRANCH   3  10
ATOM     10  C   UNL     1      12.103   7.480  19.634  0.00  0.00    +0.091 C 
BRANCH  10  12
ATOM     12  C   UNL     1      11.940   8.016  21.079  0.00  0.00    -0.025 C 
ATOM     14  C   UNL     1      10.823   7.261  21.821  0.00  0.00    +0.012 C 
ATOM     15  C   UNL     1      13.252   7.888  21.874  0.00  0.00    +0.012 C 
ATOM     16  C   UNL     1      11.558   9.507  21.001  0.00  0.00    +0.012 C 
ENDBRANCH  10  12
ENDBRANCH   3  10
ENDBRANCH  13   7
TORSDOF 5
ENDMDL
MODEL 5
REMARK VINA RESULT:      -5.7      2.327      3.495
REMARK  Name = 45783700
REMARK  9 active torsions:
REMARK  status: ('A' for Active; 'I' for Inactive)
REMARK    1  A    between atoms: O_2  and  C_22
REMARK    2  A    between atoms: O_2  and  C_23
REMARK    3  A    between atoms: N_3  and  C_10
REMARK    4  A    between atoms: C_7  and  C_13
REMARK    5  A    between atoms: C_10  and  C_12
REMARK    6  A    between atoms: C_12  and  C_14
REMARK    7  A    between atoms: C_12  and  C_15
REMARK    8  A    between atoms: C_12  and  C_16
REMARK    9  A    between atoms: C_17  and  C_18
REMARK                            x       y       z     vdW  Elec       q    Type
REMARK                         _______ _______ _______ _____ _____    ______ ____
ROOT
ATOM      1  O   UNL     1      14.296   6.621  19.884  0.00  0.00    -0.336 OA
ATOM      4  N   UNL     1      15.549   7.428  21.556  0.00  0.00    -0.190 NA
ATOM      5  N   UNL     1      15.618   6.270  19.583  0.00  0.00    -0.056 NA
ATOM     13  C   UNL     1      14.344   7.299  21.060  0.00  0.00    +0.245 A 
ATOM     17  C   UNL     1      16.297   6.781  20.615  0.00  0.00    +0.204 A 
ENDROOT
BRANCH  17  18
ATOM      6  N   UNL     1      19.758   5.513  20.127  0.00  0.00    -0.221 NA
ATOM     18  C   UNL     1      17.722   6.664  20.735  0.00  0.00    +0.041 A 
ATOM     19  C   UNL     1      18.447   7.537  21.539  0.00  0.00    +0.018 A 
ATOM     20  C   UNL     1      18.418   5.678  20.055  0.00  0.00    +0.126 A 
ATOM     21  C   UNL     1      19.827   7.399  21.637  0.00  0.00    +0.068 A 
ATOM     22  C   UNL     1      20.429   6.379  20.917  0.00  0.00    +0.214 A 
BRANCH  22   2
ATOM      2  O   UNL     1      21.788   6.223  20.997  0.00  0.00    -0.480 OA
ATOM     23  C   UNL     1      22.464   6.996  21.983  0.00  0.00    +0.279 C 
ENDBRANCH  22   2
ENDBRANCH  17  18
BRANCH  13   7
ATOM      3  N   UNL     1      12.791   9.225  21.331  0.00  0.00    -0.291 NA
ATOM      7  C   UNL     1      13.022   7.793  21.610  0.00  0.00    +0.146 C 
ATOM      8  C   UNL     1      11.813   7.073  20.985  0.00  0.00    +0.030 C 
ATOM      9  C   UNL     1      11.342   9.400  21.240  0.00  0.00    +0.085 C 
ATOM     11  C   UNL     1      10.929   8.184  20.435  0.00  0.00    +0.017 C 
BRANCH   3  10
ATOM     10  C   UNL     1      13.389  10.107  22.325  0.00  0.00    +0.091 C 
BRANCH  10  12
ATOM     12  C   UNL     1      14.278  11.226  21.724  0.00  0.00    -0.025 C 
ATOM     14  C   UNL     1      13.523  12.566  21.688  0.00  0.00    +0.012 C 
ATOM     15  C   UNL     1      15.578  11.399  22.530  0.00  0.00    +0.012 C 
ATOM     16  C   UNL     1      14.646  10.830  20.281  0.00  0.00    +0.012 C 
ENDBRANCH  10  12
ENDBRANCH   3  10
ENDBRANCH  13   7
TORSDOF 5
ENDMDL
MODEL 6
REMARK VINA RESULT:      -5.7     26.647     28.508
REMARK  Name = 45783700
REMARK  9 active torsions:
REMARK  status: ('A' for Active; 'I' for Inactive)
REMARK    1  A    between atoms: O_2  and  C_22
REMARK    2  A    between atoms: O_2  and  C_23
REMARK    3  A    between atoms: N_3  and  C_10
REMARK    4  A    between atoms: C_7  and  C_13
REMARK    5  A    between atoms: C_10  and  C_12
REMARK    6  A    between atoms: C_12  and  C_14
REMARK    7  A    between atoms: C_12  and  C_15
REMARK    8  A    between atoms: C_12  and  C_16
REMARK    9  A    between atoms: C_17  and  C_18
REMARK                            x       y       z     vdW  Elec       q    Type
REMARK                         _______ _______ _______ _____ _____    ______ ____
ROOT
ATOM      1  O   UNL     1      -1.745 -10.640  13.405  0.00  0.00    -0.336 OA
ATOM      4  N   UNL     1      -3.985 -10.665  13.454  0.00  0.00    -0.190 NA
ATOM      5  N   UNL     1      -2.104 -10.623  14.758  0.00  0.00    -0.056 NA
ATOM     13  C   UNL     1      -2.910 -10.664  12.705  0.00  0.00    +0.245 A 
ATOM     17  C   UNL     1      -3.441 -10.639  14.705  0.00  0.00    +0.204 A 
ENDROOT
BRANCH  17  18
ATOM      6  N   UNL     1      -6.306  -9.943  16.970  0.00  0.00    -0.221 NA
ATOM     18  C   UNL     1      -4.259 -10.628  15.883  0.00  0.00    +0.041 A 
ATOM     19  C   UNL     1      -3.840 -11.256  17.051  0.00  0.00    +0.018 A 
ATOM     20  C   UNL     1      -5.489  -9.991  15.894  0.00  0.00    +0.126 A 
ATOM     21  C   UNL     1      -4.654 -11.228  18.179  0.00  0.00    +0.068 A 
ATOM     22  C   UNL     1      -5.866 -10.564  18.087  0.00  0.00    +0.214 A 
BRANCH  22   2
ATOM      2  O   UNL     1      -6.686 -10.523  19.185  0.00  0.00    -0.480 OA
ATOM     23  C   UNL     1      -7.150 -11.773  19.683  0.00  0.00    +0.279 C 
ENDBRANCH  22   2
ENDBRANCH  17  18
BRANCH  13   7
ATOM      3  N   UNL     1      -3.953 -11.328  10.545  0.00  0.00    -0.291 NA
ATOM      7  C   UNL     1      -2.792 -10.687  11.196  0.00  0.00    +0.146 C 
ATOM      8  C   UNL     1      -2.730  -9.276  10.583  0.00  0.00    +0.030 C 
ATOM      9  C   UNL     1      -4.089 -10.700   9.231  0.00  0.00    +0.085 C 
ATOM     11  C   UNL     1      -3.854  -9.239   9.557  0.00  0.00    +0.017 C 
BRANCH   3  10
ATOM     10  C   UNL     1      -3.829 -12.777  10.450  0.00  0.00    +0.091 C 
BRANCH  10  12
ATOM     12  C   UNL     1      -4.948 -13.556  11.188  0.00  0.00    -0.025 C 
ATOM     14  C   UNL     1      -4.430 -14.131  12.518  0.00  0.00    +0.012 C 
ATOM     15  C   UNL     1      -6.166 -12.657  11.465  0.00  0.00    +0.012 C 
ATOM     16  C   UNL     1      -5.397 -14.725  10.289  0.00  0.00    +0.012 C 
ENDBRANCH  10  12
ENDBRANCH   3  10
ENDBRANCH  13   7
TORSDOF 5
ENDMDL
MODEL 7
REMARK VINA RESULT:      -5.7     32.316     33.678
REMARK  Name = 45783700
REMARK  9 active torsions:
REMARK  status: ('A' for Active; 'I' for Inactive)
REMARK    1  A    between atoms: O_2  and  C_22
REMARK    2  A    between atoms: O_2  and  C_23
REMARK    3  A    between atoms: N_3  and  C_10
REMARK    4  A    between atoms: C_7  and  C_13
REMARK    5  A    between atoms: C_10  and  C_12
REMARK    6  A    between atoms: C_12  and  C_14
REMARK    7  A    between atoms: C_12  and  C_15
REMARK    8  A    between atoms: C_12  and  C_16
REMARK    9  A    between atoms: C_17  and  C_18
REMARK                            x       y       z     vdW  Elec       q    Type
REMARK                         _______ _______ _______ _____ _____    ______ ____
ROOT
ATOM      1  O   UNL     1     -16.888   5.806  29.478  0.00  0.00    -0.336 OA
ATOM      4  N   UNL     1     -16.008   3.856  28.813  0.00  0.00    -0.190 NA
ATOM      5  N   UNL     1     -17.158   5.705  28.107  0.00  0.00    -0.056 NA
ATOM     13  C   UNL     1     -16.209   4.677  29.813  0.00  0.00    +0.245 A 
ATOM     17  C   UNL     1     -16.607   4.529  27.788  0.00  0.00    +0.204 A 
ENDROOT
BRANCH  17  18
ATOM      6  N   UNL     1     -16.383   2.102  24.979  0.00  0.00    -0.221 NA
ATOM     18  C   UNL     1     -16.639   3.999  26.455  0.00  0.00    +0.041 A 
ATOM     19  C   UNL     1     -16.936   4.814  25.369  0.00  0.00    +0.018 A 
ATOM     20  C   UNL     1     -16.372   2.662  26.210  0.00  0.00    +0.126 A 
ATOM     21  C   UNL     1     -16.958   4.274  24.087  0.00  0.00    +0.068 A 
ATOM     22  C   UNL     1     -16.677   2.924  23.948  0.00  0.00    +0.214 A 
BRANCH  22   2
ATOM      2  O   UNL     1     -16.693   2.369  22.695  0.00  0.00    -0.480 OA
ATOM     23  C   UNL     1     -17.864   1.650  22.329  0.00  0.00    +0.279 C 
ENDBRANCH  22   2
ENDBRANCH  17  18
BRANCH  13   7
ATOM      3  N   UNL     1     -14.863   3.420  31.487  0.00  0.00    -0.291 NA
ATOM      7  C   UNL     1     -15.796   4.543  31.264  0.00  0.00    +0.146 C 
ATOM      8  C   UNL     1     -15.047   5.783  31.786  0.00  0.00    +0.030 C 
ATOM      9  C   UNL     1     -14.032   3.794  32.631  0.00  0.00    +0.085 C 
ATOM     11  C   UNL     1     -13.732   5.251  32.337  0.00  0.00    +0.017 C 
BRANCH   3  10
ATOM     10  C   UNL     1     -15.539   2.146  31.693  0.00  0.00    +0.091 C 
BRANCH  10  12
ATOM     12  C   UNL     1     -15.045   1.010  30.761  0.00  0.00    -0.025 C 
ATOM     14  C   UNL     1     -13.704   1.383  30.105  0.00  0.00    +0.012 C 
ATOM     15  C   UNL     1     -14.882  -0.313  31.530  0.00  0.00    +0.012 C 
ATOM     16  C   UNL     1     -16.094   0.805  29.651  0.00  0.00    +0.012 C 
ENDBRANCH  10  12
ENDBRANCH   3  10
ENDBRANCH  13   7
TORSDOF 5
ENDMDL
MODEL 8
REMARK VINA RESULT:      -5.6     26.602     30.028
REMARK  Name = 45783700
REMARK  9 active torsions:
REMARK  status: ('A' for Active; 'I' for Inactive)
REMARK    1  A    between atoms: O_2  and  C_22
REMARK    2  A    between atoms: O_2  and  C_23
REMARK    3  A    between atoms: N_3  and  C_10
REMARK    4  A    between atoms: C_7  and  C_13
REMARK    5  A    between atoms: C_10  and  C_12
REMARK    6  A    between atoms: C_12  and  C_14
REMARK    7  A    between atoms: C_12  and  C_15
REMARK    8  A    between atoms: C_12  and  C_16
REMARK    9  A    between atoms: C_17  and  C_18
REMARK                            x       y       z     vdW  Elec       q    Type
REMARK                         _______ _______ _______ _____ _____    ______ ____
ROOT
ATOM      1  O   UNL     1       2.338   5.324  -3.831  0.00  0.00    -0.336 OA
ATOM      4  N   UNL     1       2.795   4.331  -5.787  0.00  0.00    -0.190 NA
ATOM      5  N   UNL     1       1.414   4.279  -3.963  0.00  0.00    -0.056 NA
ATOM     13  C   UNL     1       3.113   5.284  -4.947  0.00  0.00    +0.245 A 
ATOM     17  C   UNL     1       1.748   3.741  -5.141  0.00  0.00    +0.204 A 
ENDROOT
BRANCH  17  18
ATOM      6  N   UNL     1       0.049   1.558  -7.625  0.00  0.00    -0.221 NA
ATOM     18  C   UNL     1       1.054   2.617  -5.699  0.00  0.00    +0.041 A 
ATOM     19  C   UNL     1       0.710   1.525  -4.909  0.00  0.00    +0.018 A 
ATOM     20  C   UNL     1       0.705   2.585  -7.039  0.00  0.00    +0.126 A 
ATOM     21  C   UNL     1       0.036   0.449  -5.477  0.00  0.00    +0.068 A 
ATOM     22  C   UNL     1      -0.269   0.514  -6.828  0.00  0.00    +0.214 A 
BRANCH  22   2
ATOM      2  O   UNL     1      -0.932  -0.534  -7.410  0.00  0.00    -0.480 OA
ATOM     23  C   UNL     1      -1.701  -1.363  -6.547  0.00  0.00    +0.279 C 
ENDBRANCH  22   2
ENDBRANCH  17  18
BRANCH  13   7
ATOM      3  N   UNL     1       3.687   7.706  -4.948  0.00  0.00    -0.291 NA
ATOM      7  C   UNL     1       4.207   6.327  -5.047  0.00  0.00    +0.146 C 
ATOM      8  C   UNL     1       5.240   6.216  -3.911  0.00  0.00    +0.030 C 
ATOM      9  C   UNL     1       4.759   8.510  -4.363  0.00  0.00    +0.085 C 
ATOM     11  C   UNL     1       5.276   7.596  -3.270  0.00  0.00    +0.017 C 
BRANCH   3  10
ATOM     10  C   UNL     1       3.233   8.241  -6.225  0.00  0.00    +0.091 C 
BRANCH  10  12
ATOM     12  C   UNL     1       1.714   8.544  -6.280  0.00  0.00    -0.025 C 
ATOM     14  C   UNL     1       1.113   8.593  -4.865  0.00  0.00    +0.012 C 
ATOM     15  C   UNL     1       1.436   9.878  -6.995  0.00  0.00    +0.012 C 
ATOM     16  C   UNL     1       1.024   7.413  -7.068  0.00  0.00    +0.012 C 
ENDBRANCH  10  12
ENDBRANCH   3  10
ENDBRANCH  13   7
TORSDOF 5
ENDMDL
MODEL 9
REMARK VINA RESULT:      -5.6      1.925      2.945
REMARK  Name = 45783700
REMARK  9 active torsions:
REMARK  status: ('A' for Active; 'I' for Inactive)
REMARK    1  A    between atoms: O_2  and  C_22
REMARK    2  A    between atoms: O_2  and  C_23
REMARK    3  A    between atoms: N_3  and  C_10
REMARK    4  A    between atoms: C_7  and  C_13
REMARK    5  A    between atoms: C_10  and  C_12
REMARK    6  A    between atoms: C_12  and  C_14
REMARK    7  A    between atoms: C_12  and  C_15
REMARK    8  A    between atoms: C_12  and  C_16
REMARK    9  A    between atoms: C_17  and  C_18
REMARK                            x       y       z     vdW  Elec       q    Type
REMARK                         _______ _______ _______ _____ _____    ______ ____
ROOT
ATOM      1  O   UNL     1      16.132   7.745  19.836  0.00  0.00    -0.336 OA
ATOM      4  N   UNL     1      17.603   8.304  21.430  0.00  0.00    -0.190 NA
ATOM      5  N   UNL     1      17.113   6.745  19.828  0.00  0.00    -0.056 NA
ATOM     13  C   UNL     1      16.496   8.622  20.808  0.00  0.00    +0.245 A 
ATOM     17  C   UNL     1      17.945   7.145  20.795  0.00  0.00    +0.204 A 
ENDROOT
BRANCH  17  18
ATOM      6  N   UNL     1      20.844   5.922  22.778  0.00  0.00    -0.221 NA
ATOM     18  C   UNL     1      19.126   6.411  21.149  0.00  0.00    +0.041 A 
ATOM     19  C   UNL     1      19.700   5.508  20.261  0.00  0.00    +0.018 A 
ATOM     20  C   UNL     1      19.730   6.580  22.384  0.00  0.00    +0.126 A 
ATOM     21  C   UNL     1      20.845   4.811  20.631  0.00  0.00    +0.068 A 
ATOM     22  C   UNL     1      21.373   5.052  21.889  0.00  0.00    +0.214 A 
BRANCH  22   2
ATOM      2  O   UNL     1      22.501   4.377  22.277  0.00  0.00    -0.480 OA
ATOM     23  C   UNL     1      22.639   4.108  23.667  0.00  0.00    +0.279 C 
ENDBRANCH  22   2
ENDBRANCH  17  18
BRANCH  13   7
ATOM      3  N   UNL     1      14.173   9.419  21.209  0.00  0.00    -0.291 NA
ATOM      7  C   UNL     1      15.584   9.812  21.019  0.00  0.00    +0.146 C 
ATOM      8  C   UNL     1      15.940  10.617  22.283  0.00  0.00    +0.030 C 
ATOM      9  C   UNL     1      13.569  10.446  22.058  0.00  0.00    +0.085 C 
ATOM     11  C   UNL     1      14.652  10.674  23.093  0.00  0.00    +0.017 C 
BRANCH   3  10
ATOM     10  C   UNL     1      13.451   9.249  19.955  0.00  0.00    +0.091 C 
BRANCH  10  12
ATOM     12  C   UNL     1      12.513   8.014  19.928  0.00  0.00    -0.025 C 
ATOM     14  C   UNL     1      12.908   7.002  21.018  0.00  0.00    +0.012 C 
ATOM     15  C   UNL     1      11.043   8.425  20.127  0.00  0.00    +0.012 C 
ATOM     16  C   UNL     1      12.649   7.334  18.552  0.00  0.00    +0.012 C 
ENDBRANCH  10  12
ENDBRANCH   3  10
ENDBRANCH  13   7
TORSDOF 5
ENDMDL
MODEL 10
REMARK VINA RESULT:      -5.6     15.002     18.284
REMARK  Name = 45783700
REMARK  9 active torsions:
REMARK  status: ('A' for Active; 'I' for Inactive)
REMARK    1  A    between atoms: O_2  and  C_22
REMARK    2  A    between atoms: O_2  and  C_23
REMARK    3  A    between atoms: N_3  and  C_10
REMARK    4  A    between atoms: C_7  and  C_13
REMARK    5  A    between atoms: C_10  and  C_12
REMARK    6  A    between atoms: C_12  and  C_14
REMARK    7  A    between atoms: C_12  and  C_15
REMARK    8  A    between atoms: C_12  and  C_16
REMARK    9  A    between atoms: C_17  and  C_18
REMARK                            x       y       z     vdW  Elec       q    Type
REMARK                         _______ _______ _______ _____ _____    ______ ____
ROOT
ATOM      1  O   UNL     1      10.086   4.461   5.560  0.00  0.00    -0.336 OA
ATOM      4  N   UNL     1      11.098   5.868   4.140  0.00  0.00    -0.190 NA
ATOM      5  N   UNL     1      10.234   3.760   4.356  0.00  0.00    -0.056 NA
ATOM     13  C   UNL     1      10.621   5.692   5.347  0.00  0.00    +0.245 A 
ATOM     17  C   UNL     1      10.838   4.656   3.569  0.00  0.00    +0.204 A 
ENDROOT
BRANCH  17  18
ATOM      6  N   UNL     1      10.550   4.288  -0.120  0.00  0.00    -0.221 NA
ATOM     18  C   UNL     1      11.193   4.372   2.209  0.00  0.00    +0.041 A 
ATOM     19  C   UNL     1      12.467   3.919   1.881  0.00  0.00    +0.018 A 
ATOM     20  C   UNL     1      10.280   4.539   1.181  0.00  0.00    +0.126 A 
ATOM     21  C   UNL     1      12.783   3.651   0.554  0.00  0.00    +0.068 A 
ATOM     22  C   UNL     1      11.798   3.849  -0.400  0.00  0.00    +0.214 A 
BRANCH  22   2
ATOM      2  O   UNL     1      12.085   3.592  -1.715  0.00  0.00    -0.480 OA
ATOM     23  C   UNL     1      11.986   2.237  -2.139  0.00  0.00    +0.279 C 
ENDBRANCH  22   2
ENDBRANCH  17  18
BRANCH  13   7
ATOM      3  N   UNL     1       9.523   7.673   6.380  0.00  0.00    -0.291 NA
ATOM      7  C   UNL     1      10.585   6.655   6.515  0.00  0.00    +0.146 C 
ATOM      8  C   UNL     1      10.287   5.955   7.854  0.00  0.00    +0.030 C 
ATOM      9  C   UNL     1       9.124   8.036   7.739  0.00  0.00    +0.085 C 
ATOM     11  C   UNL     1       9.080   6.686   8.424  0.00  0.00    +0.017 C 
BRANCH   3  10
ATOM     10  C   UNL     1       9.937   8.832   5.600  0.00  0.00    +0.091 C 
BRANCH  10  12
ATOM     12  C   UNL     1       9.048   9.111   4.361  0.00  0.00    -0.025 C 
ATOM     14  C   UNL     1       8.308  10.451   4.507  0.00  0.00    +0.012 C 
ATOM     15  C   UNL     1       9.883   9.132   3.068  0.00  0.00    +0.012 C 
ATOM     16  C   UNL     1       8.005   7.982   4.251  0.00  0.00    +0.012 C 
ENDBRANCH  10  12
ENDBRANCH   3  10
ENDBRANCH  13   7
TORSDOF 5
ENDMDL
