MODEL 1
REMARK VINA RESULT:      -8.1      0.000      0.000
REMARK  Name = 45360891
REMARK  6 active torsions:
REMARK  status: ('A' for Active; 'I' for Inactive)
REMARK    1  A    between atoms: N_4  and  C_17
REMARK    2  A    between atoms: N_5  and  C_16
REMARK    3  A    between atoms: C_12  and  C_15
REMARK    4  A    between atoms: C_15  and  C_18
REMARK    5  A    between atoms: C_16  and  C_19
REMARK    6  A    between atoms: C_18  and  C_20
REMARK                            x       y       z     vdW  Elec       q    Type
REMARK                         _______ _______ _______ _____ _____    ______ ____
ROOT
ATOM      2  O   UNL     1     -13.599   4.910  22.637  0.00  0.00    -0.274 OA
ATOM      4  N   UNL     1     -17.238   3.588  22.632  0.00  0.00    -0.296 NA
ATOM      5  N   UNL     1     -15.289   6.206  20.977  0.00  0.00    -0.286 NA
ATOM      6  N   UNL     1     -15.134   4.629  24.310  0.00  0.00    -0.312 N 
ATOM      8  C   UNL     1     -17.086   4.884  21.935  0.00  0.00    +0.084 C 
ATOM      9  C   UNL     1     -15.847   5.766  22.269  0.00  0.00    +0.161 C 
ATOM     10  C   UNL     1     -16.985   4.761  20.402  0.00  0.00    +0.036 C 
ATOM     11  C   UNL     1     -16.348   6.069  19.985  0.00  0.00    +0.087 C 
ATOM     12  C   UNL     1     -17.422   3.700  24.106  0.00  0.00    +0.074 C 
ATOM     13  C   UNL     1     -14.745   5.060  23.056  0.00  0.00    +0.232 C 
ATOM     14  C   UNL     1     -16.496   4.719  24.800  0.00  0.00    +0.123 C 
ATOM     17  C   UNL     1     -18.332   2.800  22.040  0.00  0.00    +0.105 C 
ATOM     34  H   UNL     1     -14.428   4.221  24.914  0.00  0.00    +0.149 HD
ENDROOT
BRANCH  12  15
ATOM     15  C   UNL     1     -17.197   2.331  24.783  0.00  0.00    +0.029 C 
BRANCH  15  18
ATOM     18  C   UNL     1     -17.850   2.262  26.150  0.00  0.00    +0.098 C 
BRANCH  18  20
ATOM      3  O   UNL     1     -16.850   0.297  27.023  0.00  0.00    -0.275 OA
ATOM      7  N   UNL     1     -16.384   2.314  28.104  0.00  0.00    -0.271 N 
ATOM     20  C   UNL     1     -16.979   1.517  27.134  0.00  0.00    +0.220 C 
ATOM     23  C   UNL     1     -16.541   3.777  28.235  0.00  0.00    +0.118 C 
ATOM     24  C   UNL     1     -15.532   1.864  29.134  0.00  0.00    +0.039 A 
ATOM     25  C   UNL     1     -15.704   4.230  29.437  0.00  0.00    +0.056 C 
ATOM     26  C   UNL     1     -15.122   2.943  29.920  0.00  0.00    -0.024 A 
ATOM     29  C   UNL     1     -15.096   0.577  29.419  0.00  0.00    +0.024 A 
ATOM     31  C   UNL     1     -14.274   2.765  31.003  0.00  0.00    +0.005 A 
ATOM     32  C   UNL     1     -14.242   0.390  30.510  0.00  0.00    +0.002 A 
ATOM     33  C   UNL     1     -13.833   1.475  31.296  0.00  0.00    +0.000 A 
ENDBRANCH  18  20
ENDBRANCH  15  18
ENDBRANCH  12  15
BRANCH   5  16
ATOM     16  C   UNL     1     -14.744   7.558  21.015  0.00  0.00    +0.120 C 
BRANCH  16  19
ATOM      1 CL   UNL     1     -12.601   8.461  16.351  0.00  0.00    -0.084 Cl
ATOM     19  C   UNL     1     -13.505   7.686  20.170  0.00  0.00    -0.032 A 
ATOM     21  C   UNL     1     -13.613   7.981  18.811  0.00  0.00    +0.025 A 
ATOM     22  C   UNL     1     -12.246   7.511  20.746  0.00  0.00    +0.005 A 
ATOM     27  C   UNL     1     -12.465   8.100  18.028  0.00  0.00    +0.041 A 
ATOM     28  C   UNL     1     -11.099   7.630  19.964  0.00  0.00    +0.002 A 
ATOM     30  C   UNL     1     -11.207   7.925  18.605  0.00  0.00    +0.020 A 
ENDBRANCH  16  19
ENDBRANCH   5  16
TORSDOF 5
ENDMDL
MODEL 2
REMARK VINA RESULT:      -7.8     28.163     32.009
REMARK  Name = 45360891
REMARK  6 active torsions:
REMARK  status: ('A' for Active; 'I' for Inactive)
REMARK    1  A    between atoms: N_4  and  C_17
REMARK    2  A    between atoms: N_5  and  C_16
REMARK    3  A    between atoms: C_12  and  C_15
REMARK    4  A    between atoms: C_15  and  C_18
REMARK    5  A    between atoms: C_16  and  C_19
REMARK    6  A    between atoms: C_18  and  C_20
REMARK                            x       y       z     vdW  Elec       q    Type
REMARK                         _______ _______ _______ _____ _____    ______ ____
ROOT
ATOM      2  O   UNL     1      14.320  10.143  22.236  0.00  0.00    -0.274 OA
ATOM      4  N   UNL     1      14.461   7.494  19.416  0.00  0.00    -0.296 NA
ATOM      5  N   UNL     1      11.924   9.181  21.443  0.00  0.00    -0.286 NA
ATOM      6  N   UNL     1      15.410   8.138  22.063  0.00  0.00    -0.312 N 
ATOM      8  C   UNL     1      13.130   7.596  20.056  0.00  0.00    +0.084 C 
ATOM      9  C   UNL     1      13.039   8.217  21.481  0.00  0.00    +0.161 C 
ATOM     10  C   UNL     1      12.123   8.455  19.269  0.00  0.00    +0.036 C 
ATOM     11  C   UNL     1      11.085   8.822  20.308  0.00  0.00    +0.087 C 
ATOM     12  C   UNL     1      15.417   6.598  20.124  0.00  0.00    +0.074 C 
ATOM     13  C   UNL     1      14.295   8.948  21.950  0.00  0.00    +0.232 C 
ATOM     14  C   UNL     1      15.432   6.747  21.658  0.00  0.00    +0.123 C 
ATOM     17  C   UNL     1      14.333   7.092  18.006  0.00  0.00    +0.105 C 
ATOM     34  H   UNL     1      16.258   8.546  22.445  0.00  0.00    +0.149 HD
ENDROOT
BRANCH  12  15
ATOM     15  C   UNL     1      16.856   6.838  19.619  0.00  0.00    +0.029 C 
BRANCH  15  18
ATOM     18  C   UNL     1      17.849   6.932  20.762  0.00  0.00    +0.098 C 
BRANCH  18  20
ATOM      3  O   UNL     1      18.872   5.068  19.714  0.00  0.00    -0.275 OA
ATOM      7  N   UNL     1      19.923   5.951  21.602  0.00  0.00    -0.271 N 
ATOM     20  C   UNL     1      18.930   5.885  20.633  0.00  0.00    +0.220 C 
ATOM     23  C   UNL     1      19.990   6.933  22.704  0.00  0.00    +0.118 C 
ATOM     24  C   UNL     1      21.037   5.092  21.703  0.00  0.00    +0.039 A 
ATOM     25  C   UNL     1      21.253   6.634  23.519  0.00  0.00    +0.056 C 
ATOM     26  C   UNL     1      21.823   5.457  22.797  0.00  0.00    -0.024 A 
ATOM     29  C   UNL     1      21.399   4.020  20.900  0.00  0.00    +0.024 A 
ATOM     31  C   UNL     1      22.983   4.766  23.115  0.00  0.00    +0.005 A 
ATOM     32  C   UNL     1      22.566   3.318  21.214  0.00  0.00    +0.002 A 
ATOM     33  C   UNL     1      23.354   3.687  22.313  0.00  0.00    +0.000 A 
ENDBRANCH  18  20
ENDBRANCH  15  18
ENDBRANCH  12  15
BRANCH   5  16
ATOM     16  C   UNL     1      11.169   9.239  22.688  0.00  0.00    +0.120 C 
BRANCH  16  19
ATOM      1 CL   UNL     1      10.863  14.352  21.727  0.00  0.00    -0.084 Cl
ATOM     19  C   UNL     1      11.065  10.645  23.217  0.00  0.00    -0.032 A 
ATOM     21  C   UNL     1      11.017  11.722  22.332  0.00  0.00    +0.025 A 
ATOM     22  C   UNL     1      11.015  10.872  24.592  0.00  0.00    +0.005 A 
ATOM     27  C   UNL     1      10.920  13.025  22.820  0.00  0.00    +0.041 A 
ATOM     28  C   UNL     1      10.919  12.174  25.081  0.00  0.00    +0.002 A 
ATOM     30  C   UNL     1      10.870  13.250  24.196  0.00  0.00    +0.020 A 
ENDBRANCH  16  19
ENDBRANCH   5  16
TORSDOF 5
ENDMDL
MODEL 3
REMARK VINA RESULT:      -7.7     17.101     18.903
REMARK  Name = 45360891
REMARK  6 active torsions:
REMARK  status: ('A' for Active; 'I' for Inactive)
REMARK    1  A    between atoms: N_4  and  C_17
REMARK    2  A    between atoms: N_5  and  C_16
REMARK    3  A    between atoms: C_12  and  C_15
REMARK    4  A    between atoms: C_15  and  C_18
REMARK    5  A    between atoms: C_16  and  C_19
REMARK    6  A    between atoms: C_18  and  C_20
REMARK                            x       y       z     vdW  Elec       q    Type
REMARK                         _______ _______ _______ _____ _____    ______ ____
ROOT
ATOM      2  O   UNL     1      -5.591  -9.249  16.158  0.00  0.00    -0.274 OA
ATOM      4  N   UNL     1      -8.678 -10.402  18.190  0.00  0.00    -0.296 NA
ATOM      5  N   UNL     1      -5.540 -11.827  16.961  0.00  0.00    -0.286 NA
ATOM      6  N   UNL     1      -7.832  -9.226  15.695  0.00  0.00    -0.312 N 
ATOM      8  C   UNL     1      -7.813 -11.521  17.757  0.00  0.00    +0.084 C 
ATOM      9  C   UNL     1      -6.852 -11.293  16.553  0.00  0.00    +0.161 C 
ATOM     10  C   UNL     1      -6.845 -12.021  18.846  0.00  0.00    +0.036 C 
ATOM     11  C   UNL     1      -5.778 -12.753  18.061  0.00  0.00    +0.087 C 
ATOM     12  C   UNL     1      -9.676  -9.966  17.174  0.00  0.00    +0.074 C 
ATOM     13  C   UNL     1      -6.672  -9.835  16.137  0.00  0.00    +0.232 C 
ATOM     14  C   UNL     1      -9.134  -9.862  15.735  0.00  0.00    +0.123 C 
ATOM     17  C   UNL     1      -9.350 -10.721  19.460  0.00  0.00    +0.105 C 
ATOM     34  H   UNL     1      -7.765  -8.281  15.331  0.00  0.00    +0.149 HD
ENDROOT
BRANCH  12  15
ATOM     15  C   UNL     1     -10.263  -8.589  17.550  0.00  0.00    +0.029 C 
BRANCH  15  18
ATOM     18  C   UNL     1     -11.630  -8.368  16.932  0.00  0.00    +0.098 C 
BRANCH  18  20
ATOM      3  O   UNL     1     -10.523  -6.720  15.637  0.00  0.00    -0.275 OA
ATOM      7  N   UNL     1     -12.841  -6.885  15.414  0.00  0.00    -0.271 N 
ATOM     20  C   UNL     1     -11.600  -7.240  15.929  0.00  0.00    +0.220 C 
ATOM     23  C   UNL     1     -14.133  -7.510  15.766  0.00  0.00    +0.118 C 
ATOM     24  C   UNL     1     -13.082  -5.867  14.468  0.00  0.00    +0.039 A 
ATOM     25  C   UNL     1     -15.227  -6.808  14.954  0.00  0.00    +0.056 C 
ATOM     26  C   UNL     1     -14.447  -5.796  14.181  0.00  0.00    -0.024 A 
ATOM     29  C   UNL     1     -12.186  -5.009  13.848  0.00  0.00    +0.024 A 
ATOM     31  C   UNL     1     -14.947  -4.872  13.276  0.00  0.00    +0.005 A 
ATOM     32  C   UNL     1     -12.681  -4.074  12.934  0.00  0.00    +0.002 A 
ATOM     33  C   UNL     1     -14.052  -4.005  12.649  0.00  0.00    +0.000 A 
ENDBRANCH  18  20
ENDBRANCH  15  18
ENDBRANCH  12  15
BRANCH   5  16
ATOM     16  C   UNL     1      -4.805 -12.451  15.868  0.00  0.00    +0.120 C 
BRANCH  16  19
ATOM      1 CL   UNL     1      -1.949 -10.283  12.086  0.00  0.00    -0.084 Cl
ATOM     19  C   UNL     1      -3.602 -11.640  15.466  0.00  0.00    -0.032 A 
ATOM     21  C   UNL     1      -3.361 -11.367  14.120  0.00  0.00    +0.025 A 
ATOM     22  C   UNL     1      -2.728 -11.160  16.441  0.00  0.00    +0.005 A 
ATOM     27  C   UNL     1      -2.246 -10.616  13.748  0.00  0.00    +0.041 A 
ATOM     28  C   UNL     1      -1.613 -10.409  16.070  0.00  0.00    +0.002 A 
ATOM     30  C   UNL     1      -1.372 -10.136  14.724  0.00  0.00    +0.020 A 
ENDBRANCH  16  19
ENDBRANCH   5  16
TORSDOF 5
ENDMDL
MODEL 4
REMARK VINA RESULT:      -7.6     30.266     34.481
REMARK  Name = 45360891
REMARK  6 active torsions:
REMARK  status: ('A' for Active; 'I' for Inactive)
REMARK    1  A    between atoms: N_4  and  C_17
REMARK    2  A    between atoms: N_5  and  C_16
REMARK    3  A    between atoms: C_12  and  C_15
REMARK    4  A    between atoms: C_15  and  C_18
REMARK    5  A    between atoms: C_16  and  C_19
REMARK    6  A    between atoms: C_18  and  C_20
REMARK                            x       y       z     vdW  Elec       q    Type
REMARK                         _______ _______ _______ _____ _____    ______ ____
ROOT
ATOM      2  O   UNL     1      19.949   6.577  23.619  0.00  0.00    -0.274 OA
ATOM      4  N   UNL     1      17.474   6.916  20.661  0.00  0.00    -0.296 NA
ATOM      5  N   UNL     1      20.830   5.589  21.265  0.00  0.00    -0.286 NA
ATOM      6  N   UNL     1      18.895   8.386  22.697  0.00  0.00    -0.312 N 
ATOM      8  C   UNL     1      18.836   6.520  20.241  0.00  0.00    +0.084 C 
ATOM      9  C   UNL     1      20.026   6.822  21.199  0.00  0.00    +0.161 C 
ATOM     10  C   UNL     1      19.000   5.007  19.997  0.00  0.00    +0.036 C 
ATOM     11  C   UNL     1      20.496   4.795  20.089  0.00  0.00    +0.087 C 
ATOM     12  C   UNL     1      17.281   8.385  20.818  0.00  0.00    +0.074 C 
ATOM     13  C   UNL     1      19.627   7.216  22.619  0.00  0.00    +0.232 C 
ATOM     14  C   UNL     1      18.432   9.118  21.534  0.00  0.00    +0.123 C 
ATOM     17  C   UNL     1      16.462   6.363  19.746  0.00  0.00    +0.105 C 
ATOM     34  H   UNL     1      18.665   8.745  23.618  0.00  0.00    +0.149 HD
ENDROOT
BRANCH  12  15
ATOM     15  C   UNL     1      15.984   8.678  21.602  0.00  0.00    +0.029 C 
BRANCH  15  18
ATOM     18  C   UNL     1      15.203   9.827  20.996  0.00  0.00    +0.098 C 
BRANCH  18  20
ATOM      3  O   UNL     1      13.118   8.701  20.922  0.00  0.00    -0.275 OA
ATOM      7  N   UNL     1      13.900   9.650  18.937  0.00  0.00    -0.271 N 
ATOM     20  C   UNL     1      13.965   9.332  20.288  0.00  0.00    +0.220 C 
ATOM     23  C   UNL     1      14.918  10.406  18.178  0.00  0.00    +0.118 C 
ATOM     24  C   UNL     1      12.855   9.304  18.055  0.00  0.00    +0.039 A 
ATOM     25  C   UNL     1      14.428  10.524  16.730  0.00  0.00    +0.056 C 
ATOM     26  C   UNL     1      13.128   9.792  16.776  0.00  0.00    -0.024 A 
ATOM     29  C   UNL     1      11.689   8.595  18.306  0.00  0.00    +0.024 A 
ATOM     31  C   UNL     1      12.250   9.585  15.722  0.00  0.00    +0.005 A 
ATOM     32  C   UNL     1      10.799   8.381  17.250  0.00  0.00    +0.002 A 
ATOM     33  C   UNL     1      11.076   8.873  15.967  0.00  0.00    +0.000 A 
ENDBRANCH  18  20
ENDBRANCH  15  18
ENDBRANCH  12  15
BRANCH   5  16
ATOM     16  C   UNL     1      22.262   5.838  21.370  0.00  0.00    +0.120 C 
BRANCH  16  19
ATOM      1 CL   UNL     1      26.196   3.581  18.803  0.00  0.00    -0.084 Cl
ATOM     19  C   UNL     1      23.070   4.601  21.080  0.00  0.00    -0.032 A 
ATOM     21  C   UNL     1      24.135   4.657  20.182  0.00  0.00    +0.025 A 
ATOM     22  C   UNL     1      22.753   3.398  21.711  0.00  0.00    +0.005 A 
ATOM     27  C   UNL     1      24.883   3.511  19.913  0.00  0.00    +0.041 A 
ATOM     28  C   UNL     1      23.501   2.252  21.443  0.00  0.00    +0.002 A 
ATOM     30  C   UNL     1      24.566   2.308  20.545  0.00  0.00    +0.020 A 
ENDBRANCH  16  19
ENDBRANCH   5  16
TORSDOF 5
ENDMDL
MODEL 5
REMARK VINA RESULT:      -7.4     19.686     20.621
REMARK  Name = 45360891
REMARK  6 active torsions:
REMARK  status: ('A' for Active; 'I' for Inactive)
REMARK    1  A    between atoms: N_4  and  C_17
REMARK    2  A    between atoms: N_5  and  C_16
REMARK    3  A    between atoms: C_12  and  C_15
REMARK    4  A    between atoms: C_15  and  C_18
REMARK    5  A    between atoms: C_16  and  C_19
REMARK    6  A    between atoms: C_18  and  C_20
REMARK                            x       y       z     vdW  Elec       q    Type
REMARK                         _______ _______ _______ _____ _____    ______ ____
ROOT
ATOM      2  O   UNL     1      -1.283 -10.780  15.625  0.00  0.00    -0.274 OA
ATOM      4  N   UNL     1      -4.448 -12.905  16.301  0.00  0.00    -0.296 NA
ATOM      5  N   UNL     1      -2.124 -12.282  13.544  0.00  0.00    -0.286 NA
ATOM      6  N   UNL     1      -3.385 -10.223  16.335  0.00  0.00    -0.312 N 
ATOM      8  C   UNL     1      -4.077 -12.848  14.870  0.00  0.00    +0.084 C 
ATOM      9  C   UNL     1      -3.174 -11.676  14.383  0.00  0.00    +0.161 C 
ATOM     10  C   UNL     1      -3.293 -14.080  14.378  0.00  0.00    +0.036 C 
ATOM     11  C   UNL     1      -2.615 -13.586  13.118  0.00  0.00    +0.087 C 
ATOM     12  C   UNL     1      -5.279 -11.761  16.768  0.00  0.00    +0.074 C 
ATOM     13  C   UNL     1      -2.502 -10.875  15.495  0.00  0.00    +0.232 C 
ATOM     14  C   UNL     1      -4.825 -10.379  16.258  0.00  0.00    +0.123 C 
ATOM     17  C   UNL     1      -5.111 -14.180  16.619  0.00  0.00    +0.105 C 
ATOM     34  H   UNL     1      -3.002  -9.610  17.048  0.00  0.00    +0.149 HD
ENDROOT
BRANCH  12  15
ATOM     15  C   UNL     1      -5.300 -11.703  18.310  0.00  0.00    +0.029 C 
BRANCH  15  18
ATOM     18  C   UNL     1      -6.005 -10.461  18.821  0.00  0.00    +0.098 C 
BRANCH  18  20
ATOM      3  O   UNL     1      -7.652 -11.601  20.089  0.00  0.00    -0.275 OA
ATOM      7  N   UNL     1      -8.393 -10.042  18.516  0.00  0.00    -0.271 N 
ATOM     20  C   UNL     1      -7.432 -10.765  19.212  0.00  0.00    +0.220 C 
ATOM     23  C   UNL     1      -8.126  -9.040  17.463  0.00  0.00    +0.118 C 
ATOM     24  C   UNL     1      -9.789 -10.142  18.691  0.00  0.00    +0.039 A 
ATOM     25  C   UNL     1      -9.476  -8.496  16.983  0.00  0.00    +0.056 C 
ATOM     26  C   UNL     1     -10.443  -9.265  17.824  0.00  0.00    -0.024 A 
ATOM     29  C   UNL     1     -10.513 -10.946  19.559  0.00  0.00    +0.024 A 
ATOM     31  C   UNL     1     -11.826  -9.171  17.800  0.00  0.00    +0.005 A 
ATOM     32  C   UNL     1     -11.908 -10.858  19.542  0.00  0.00    +0.002 A 
ATOM     33  C   UNL     1     -12.561  -9.976  18.670  0.00  0.00    +0.000 A 
ENDBRANCH  18  20
ENDBRANCH  15  18
ENDBRANCH  12  15
BRANCH   5  16
ATOM     16  C   UNL     1      -1.735 -11.446  12.415  0.00  0.00    +0.120 C 
BRANCH  16  19
ATOM      1 CL   UNL     1      -5.208  -8.047  10.531  0.00  0.00    -0.084 Cl
ATOM     19  C   UNL     1      -2.897 -11.165  11.499  0.00  0.00    -0.032 A 
ATOM     21  C   UNL     1      -3.450  -9.886  11.444  0.00  0.00    +0.025 A 
ATOM     22  C   UNL     1      -3.420 -12.184  10.703  0.00  0.00    +0.005 A 
ATOM     27  C   UNL     1      -4.526  -9.625  10.595  0.00  0.00    +0.041 A 
ATOM     28  C   UNL     1      -4.496 -11.924   9.855  0.00  0.00    +0.002 A 
ATOM     30  C   UNL     1      -5.048 -10.645   9.800  0.00  0.00    +0.020 A 
ENDBRANCH  16  19
ENDBRANCH   5  16
TORSDOF 5
ENDMDL
MODEL 6
REMARK VINA RESULT:      -7.4     20.346     21.543
REMARK  Name = 45360891
REMARK  6 active torsions:
REMARK  status: ('A' for Active; 'I' for Inactive)
REMARK    1  A    between atoms: N_4  and  C_17
REMARK    2  A    between atoms: N_5  and  C_16
REMARK    3  A    between atoms: C_12  and  C_15
REMARK    4  A    between atoms: C_15  and  C_18
REMARK    5  A    between atoms: C_16  and  C_19
REMARK    6  A    between atoms: C_18  and  C_20
REMARK                            x       y       z     vdW  Elec       q    Type
REMARK                         _______ _______ _______ _____ _____    ______ ____
ROOT
ATOM      2  O   UNL     1      -6.564 -10.460  11.853  0.00  0.00    -0.274 OA
ATOM      4  N   UNL     1      -2.693 -10.510  11.819  0.00  0.00    -0.296 NA
ATOM      5  N   UNL     1      -5.429  -9.849   9.480  0.00  0.00    -0.286 NA
ATOM      6  N   UNL     1      -5.043 -12.082  12.393  0.00  0.00    -0.312 N 
ATOM      8  C   UNL     1      -3.289 -10.431  10.466  0.00  0.00    +0.084 C 
ATOM      9  C   UNL     1      -4.762 -10.896  10.276  0.00  0.00    +0.161 C 
ATOM     10  C   UNL     1      -3.326  -9.006   9.883  0.00  0.00    +0.036 C 
ATOM     11  C   UNL     1      -4.382  -9.095   8.802  0.00  0.00    +0.087 C 
ATOM     12  C   UNL     1      -2.573 -11.893  12.358  0.00  0.00    +0.074 C 
ATOM     13  C   UNL     1      -5.549 -11.094  11.570  0.00  0.00    +0.232 C 
ATOM     14  C   UNL     1      -3.806 -12.789  12.126  0.00  0.00    +0.123 C 
ATOM     17  C   UNL     1      -1.386  -9.834  11.856  0.00  0.00    +0.105 C 
ATOM     34  H   UNL     1      -5.564 -12.317  13.232  0.00  0.00    +0.149 HD
ENDROOT
BRANCH  12  15
ATOM     15  C   UNL     1      -2.304 -11.858  13.878  0.00  0.00    +0.029 C 
BRANCH  15  18
ATOM     18  C   UNL     1      -2.821 -10.583  14.516  0.00  0.00    +0.098 C 
BRANCH  18  20
ATOM      3  O   UNL     1      -2.466 -11.247  16.764  0.00  0.00    -0.275 OA
ATOM      7  N   UNL     1      -4.614 -10.546  16.174  0.00  0.00    -0.271 N 
ATOM     20  C   UNL     1      -3.275 -10.829  15.935  0.00  0.00    +0.220 C 
ATOM     23  C   UNL     1      -5.583 -10.045  15.178  0.00  0.00    +0.118 C 
ATOM     24  C   UNL     1      -5.281 -10.692  17.409  0.00  0.00    +0.039 A 
ATOM     25  C   UNL     1      -6.932  -9.872  15.885  0.00  0.00    +0.056 C 
ATOM     26  C   UNL     1      -6.618 -10.312  17.276  0.00  0.00    -0.024 A 
ATOM     29  C   UNL     1      -4.790 -11.131  18.630  0.00  0.00    +0.024 A 
ATOM     31  C   UNL     1      -7.492 -10.362  18.352  0.00  0.00    +0.005 A 
ATOM     32  C   UNL     1      -5.664 -11.185  19.719  0.00  0.00    +0.002 A 
ATOM     33  C   UNL     1      -7.006 -10.803  19.583  0.00  0.00    +0.000 A 
ENDBRANCH  18  20
ENDBRANCH  15  18
ENDBRANCH  12  15
BRANCH   5  16
ATOM     16  C   UNL     1      -6.418 -10.376   8.548  0.00  0.00    +0.120 C 
BRANCH  16  19
ATOM      1 CL   UNL     1      -9.117  -5.918   8.429  0.00  0.00    -0.084 Cl
ATOM     19  C   UNL     1      -7.064  -9.282   7.740  0.00  0.00    -0.032 A 
ATOM     21  C   UNL     1      -7.714  -8.229   8.383  0.00  0.00    +0.025 A 
ATOM     22  C   UNL     1      -7.011  -9.320   6.346  0.00  0.00    +0.005 A 
ATOM     27  C   UNL     1      -8.312  -7.216   7.634  0.00  0.00    +0.041 A 
ATOM     28  C   UNL     1      -7.609  -8.308   5.597  0.00  0.00    +0.002 A 
ATOM     30  C   UNL     1      -8.259  -7.255   6.240  0.00  0.00    +0.020 A 
ENDBRANCH  16  19
ENDBRANCH   5  16
TORSDOF 5
ENDMDL
MODEL 7
REMARK VINA RESULT:      -7.2     18.195     20.106
REMARK  Name = 45360891
REMARK  6 active torsions:
REMARK  status: ('A' for Active; 'I' for Inactive)
REMARK    1  A    between atoms: N_4  and  C_17
REMARK    2  A    between atoms: N_5  and  C_16
REMARK    3  A    between atoms: C_12  and  C_15
REMARK    4  A    between atoms: C_15  and  C_18
REMARK    5  A    between atoms: C_16  and  C_19
REMARK    6  A    between atoms: C_18  and  C_20
REMARK                            x       y       z     vdW  Elec       q    Type
REMARK                         _______ _______ _______ _____ _____    ______ ____
ROOT
ATOM      2  O   UNL     1      -8.190  -8.830  17.552  0.00  0.00    -0.274 OA
ATOM      4  N   UNL     1      -6.794 -12.441  17.473  0.00  0.00    -0.296 NA
ATOM      5  N   UNL     1     -10.055 -10.783  17.548  0.00  0.00    -0.286 NA
ATOM      6  N   UNL     1      -6.733  -9.945  18.920  0.00  0.00    -0.312 N 
ATOM      8  C   UNL     1      -8.242 -12.380  17.773  0.00  0.00    +0.084 C 
ATOM      9  C   UNL     1      -8.830 -11.048  18.324  0.00  0.00    +0.161 C 
ATOM     10  C   UNL     1      -9.145 -12.648  16.554  0.00  0.00    +0.036 C 
ATOM     11  C   UNL     1     -10.474 -12.050  16.963  0.00  0.00    +0.087 C 
ATOM     12  C   UNL     1      -5.911 -12.267  18.660  0.00  0.00    +0.074 C 
ATOM     13  C   UNL     1      -7.910  -9.836  18.202  0.00  0.00    +0.232 C 
ATOM     14  C   UNL     1      -6.338 -11.147  19.628  0.00  0.00    +0.123 C 
ATOM     17  C   UNL     1      -6.458 -13.687  16.765  0.00  0.00    +0.105 C 
ATOM     34  H   UNL     1      -6.113  -9.142  18.944  0.00  0.00    +0.149 HD
ENDROOT
BRANCH  12  15
ATOM     15  C   UNL     1      -4.462 -11.971  18.216  0.00  0.00    +0.029 C 
BRANCH  15  18
ATOM     18  C   UNL     1      -4.349 -10.636  17.506  0.00  0.00    +0.098 C 
BRANCH  18  20
ATOM      3  O   UNL     1      -2.286 -11.004  16.398  0.00  0.00    -0.275 OA
ATOM      7  N   UNL     1      -4.149 -10.534  15.073  0.00  0.00    -0.271 N 
ATOM     20  C   UNL     1      -3.483 -10.745  16.273  0.00  0.00    +0.220 C 
ATOM     23  C   UNL     1      -5.586 -10.223  14.926  0.00  0.00    +0.118 C 
ATOM     24  C   UNL     1      -3.570 -10.578  13.788  0.00  0.00    +0.039 A 
ATOM     25  C   UNL     1      -5.882 -10.080  13.429  0.00  0.00    +0.056 C 
ATOM     26  C   UNL     1      -4.541 -10.321  12.818  0.00  0.00    -0.024 A 
ATOM     29  C   UNL     1      -2.256 -10.831  13.421  0.00  0.00    +0.024 A 
ATOM     31  C   UNL     1      -4.225 -10.307  11.467  0.00  0.00    +0.005 A 
ATOM     32  C   UNL     1      -1.929 -10.818  12.062  0.00  0.00    +0.002 A 
ATOM     33  C   UNL     1      -2.906 -10.559  11.091  0.00  0.00    +0.000 A 
ENDBRANCH  18  20
ENDBRANCH  15  18
ENDBRANCH  12  15
BRANCH   5  16
ATOM     16  C   UNL     1     -11.115 -10.166  18.336  0.00  0.00    +0.120 C 
BRANCH  16  19
ATOM      1 CL   UNL     1     -11.261  -5.806  15.484  0.00  0.00    -0.084 Cl
ATOM     19  C   UNL     1     -11.917  -9.184  17.525  0.00  0.00    -0.032 A 
ATOM     21  C   UNL     1     -11.292  -8.080  16.946  0.00  0.00    +0.025 A 
ATOM     22  C   UNL     1     -13.288  -9.378  17.349  0.00  0.00    +0.005 A 
ATOM     27  C   UNL     1     -12.035  -7.170  16.194  0.00  0.00    +0.041 A 
ATOM     28  C   UNL     1     -14.031  -8.469  16.598  0.00  0.00    +0.002 A 
ATOM     30  C   UNL     1     -13.405  -7.365  16.020  0.00  0.00    +0.020 A 
ENDBRANCH  16  19
ENDBRANCH   5  16
TORSDOF 5
ENDMDL
MODEL 8
REMARK VINA RESULT:      -7.2     17.479     19.281
REMARK  Name = 45360891
REMARK  6 active torsions:
REMARK  status: ('A' for Active; 'I' for Inactive)
REMARK    1  A    between atoms: N_4  and  C_17
REMARK    2  A    between atoms: N_5  and  C_16
REMARK    3  A    between atoms: C_12  and  C_15
REMARK    4  A    between atoms: C_15  and  C_18
REMARK    5  A    between atoms: C_16  and  C_19
REMARK    6  A    between atoms: C_18  and  C_20
REMARK                            x       y       z     vdW  Elec       q    Type
REMARK                         _______ _______ _______ _____ _____    ______ ____
ROOT
ATOM      2  O   UNL     1      -9.617  -8.682  14.690  0.00  0.00    -0.274 OA
ATOM      4  N   UNL     1      -9.019 -11.180  17.587  0.00  0.00    -0.296 NA
ATOM      5  N   UNL     1     -11.154  -8.294  16.877  0.00  0.00    -0.286 NA
ATOM      6  N   UNL     1      -7.738  -9.254  15.863  0.00  0.00    -0.312 N 
ATOM      8  C   UNL     1      -9.849 -10.019  17.978  0.00  0.00    +0.084 C 
ATOM      9  C   UNL     1      -9.764  -8.723  17.119  0.00  0.00    +0.161 C 
ATOM     10  C   UNL     1     -11.363 -10.304  17.977  0.00  0.00    +0.036 C 
ATOM     11  C   UNL     1     -11.982  -8.925  17.897  0.00  0.00    +0.087 C 
ATOM     12  C   UNL     1      -7.551 -10.942  17.666  0.00  0.00    +0.074 C 
ATOM     13  C   UNL     1      -9.067  -8.887  15.771  0.00  0.00    +0.232 C 
ATOM     14  C   UNL     1      -7.084  -9.581  17.115  0.00  0.00    +0.123 C 
ATOM     17  C   UNL     1      -9.386 -12.372  18.369  0.00  0.00    +0.105 C 
ATOM     34  H   UNL     1      -7.196  -9.304  15.006  0.00  0.00    +0.149 HD
ENDROOT
BRANCH  12  15
ATOM     15  C   UNL     1      -6.784 -12.042  16.901  0.00  0.00    +0.029 C 
BRANCH  15  18
ATOM     18  C   UNL     1      -5.355 -11.633  16.604  0.00  0.00    +0.098 C 
BRANCH  18  20
ATOM      3  O   UNL     1      -6.107 -11.514  14.359  0.00  0.00    -0.275 OA
ATOM      7  N   UNL     1      -3.876 -10.966  14.776  0.00  0.00    -0.271 N 
ATOM     20  C   UNL     1      -5.158 -11.367  15.130  0.00  0.00    +0.220 C 
ATOM     23  C   UNL     1      -2.740 -10.790  15.704  0.00  0.00    +0.118 C 
ATOM     24  C   UNL     1      -3.437 -10.660  13.472  0.00  0.00    +0.039 A 
ATOM     25  C   UNL     1      -1.530 -10.334  14.879  0.00  0.00    +0.056 C 
ATOM     26  C   UNL     1      -2.090 -10.292  13.495  0.00  0.00    -0.024 A 
ATOM     29  C   UNL     1      -4.141 -10.682  12.276  0.00  0.00    +0.024 A 
ATOM     31  C   UNL     1      -1.417  -9.942  12.334  0.00  0.00    +0.005 A 
ATOM     32  C   UNL     1      -3.470 -10.330  11.101  0.00  0.00    +0.002 A 
ATOM     33  C   UNL     1      -2.118  -9.961  11.129  0.00  0.00    +0.000 A 
ENDBRANCH  18  20
ENDBRANCH  15  18
ENDBRANCH  12  15
BRANCH   5  16
ATOM     16  C   UNL     1     -11.315  -6.845  16.858  0.00  0.00    +0.120 C 
BRANCH  16  19
ATOM      1 CL   UNL     1     -12.147  -4.085  12.516  0.00  0.00    -0.084 Cl
ATOM     19  C   UNL     1     -12.263  -6.401  15.776  0.00  0.00    -0.032 A 
ATOM     21  C   UNL     1     -11.819  -5.549  14.765  0.00  0.00    +0.025 A 
ATOM     22  C   UNL     1     -13.586  -6.843  15.783  0.00  0.00    +0.005 A 
ATOM     27  C   UNL     1     -12.696  -5.138  13.762  0.00  0.00    +0.041 A 
ATOM     28  C   UNL     1     -14.464  -6.432  14.781  0.00  0.00    +0.002 A 
ATOM     30  C   UNL     1     -14.020  -5.580  13.770  0.00  0.00    +0.020 A 
ENDBRANCH  16  19
ENDBRANCH   5  16
TORSDOF 5
ENDMDL
MODEL 9
REMARK VINA RESULT:      -7.1     30.569     34.418
REMARK  Name = 45360891
REMARK  6 active torsions:
REMARK  status: ('A' for Active; 'I' for Inactive)
REMARK    1  A    between atoms: N_4  and  C_17
REMARK    2  A    between atoms: N_5  and  C_16
REMARK    3  A    between atoms: C_12  and  C_15
REMARK    4  A    between atoms: C_15  and  C_18
REMARK    5  A    between atoms: C_16  and  C_19
REMARK    6  A    between atoms: C_18  and  C_20
REMARK                            x       y       z     vdW  Elec       q    Type
REMARK                         _______ _______ _______ _____ _____    ______ ____
ROOT
ATOM      2  O   UNL     1      14.997   7.219  22.358  0.00  0.00    -0.274 OA
ATOM      4  N   UNL     1      18.434   8.878  21.699  0.00  0.00    -0.296 NA
ATOM      5  N   UNL     1      14.918   9.479  20.882  0.00  0.00    -0.286 NA
ATOM      6  N   UNL     1      16.929   6.432  21.418  0.00  0.00    -0.312 N 
ATOM      8  C   UNL     1      17.345   9.439  20.869  0.00  0.00    +0.084 C 
ATOM      9  C   UNL     1      16.064   8.582  20.647  0.00  0.00    +0.161 C 
ATOM     10  C   UNL     1      16.757  10.754  21.416  0.00  0.00    +0.036 C 
ATOM     11  C   UNL     1      15.406  10.845  20.739  0.00  0.00    +0.087 C 
ATOM     12  C   UNL     1      19.066   7.652  21.137  0.00  0.00    +0.074 C 
ATOM     13  C   UNL     1      15.928   7.373  21.569  0.00  0.00    +0.232 C 
ATOM     14  C   UNL     1      18.080   6.620  20.556  0.00  0.00    +0.123 C 
ATOM     17  C   UNL     1      19.457   9.897  21.980  0.00  0.00    +0.105 C 
ATOM     34  H   UNL     1      16.855   5.568  21.945  0.00  0.00    +0.149 HD
ENDROOT
BRANCH  12  15
ATOM     15  C   UNL     1      19.907   6.935  22.215  0.00  0.00    +0.029 C 
BRANCH  15  18
ATOM     18  C   UNL     1      21.371   6.850  21.829  0.00  0.00    +0.098 C 
BRANCH  18  20
ATOM      3  O   UNL     1      20.956   4.698  20.924  0.00  0.00    -0.275 OA
ATOM      7  N   UNL     1      23.052   5.078  21.880  0.00  0.00    -0.271 N 
ATOM     20  C   UNL     1      21.765   5.431  21.495  0.00  0.00    +0.220 C 
ATOM     23  C   UNL     1      24.020   5.959  22.566  0.00  0.00    +0.118 C 
ATOM     24  C   UNL     1      23.657   3.819  21.686  0.00  0.00    +0.039 A 
ATOM     25  C   UNL     1      25.307   5.156  22.788  0.00  0.00    +0.056 C 
ATOM     26  C   UNL     1      24.956   3.829  22.198  0.00  0.00    -0.024 A 
ATOM     29  C   UNL     1      23.142   2.676  21.092  0.00  0.00    +0.024 A 
ATOM     31  C   UNL     1      25.767   2.706  22.130  0.00  0.00    +0.005 A 
ATOM     32  C   UNL     1      23.953   1.539  21.020  0.00  0.00    +0.002 A 
ATOM     33  C   UNL     1      25.256   1.553  21.534  0.00  0.00    +0.000 A 
ENDBRANCH  18  20
ENDBRANCH  15  18
ENDBRANCH  12  15
BRANCH   5  16
ATOM     16  C   UNL     1      13.784   9.208  20.007  0.00  0.00    +0.120 C 
BRANCH  16  19
ATOM      1 CL   UNL     1      10.866   5.175  21.552  0.00  0.00    -0.084 Cl
ATOM     19  C   UNL     1      12.593   8.699  20.775  0.00  0.00    -0.032 A 
ATOM     21  C   UNL     1      12.314   7.333  20.806  0.00  0.00    +0.025 A 
ATOM     22  C   UNL     1      11.769   9.594  21.458  0.00  0.00    +0.005 A 
ATOM     27  C   UNL     1      11.211   6.861  21.518  0.00  0.00    +0.041 A 
ATOM     28  C   UNL     1      10.666   9.123  22.170  0.00  0.00    +0.002 A 
ATOM     30  C   UNL     1      10.387   7.757  22.200  0.00  0.00    +0.020 A 
ENDBRANCH  16  19
ENDBRANCH   5  16
TORSDOF 5
ENDMDL
MODEL 10
REMARK VINA RESULT:      -7.1     18.414     19.334
REMARK  Name = 45360891
REMARK  6 active torsions:
REMARK  status: ('A' for Active; 'I' for Inactive)
REMARK    1  A    between atoms: N_4  and  C_17
REMARK    2  A    between atoms: N_5  and  C_16
REMARK    3  A    between atoms: C_12  and  C_15
REMARK    4  A    between atoms: C_15  and  C_18
REMARK    5  A    between atoms: C_16  and  C_19
REMARK    6  A    between atoms: C_18  and  C_20
REMARK                            x       y       z     vdW  Elec       q    Type
REMARK                         _______ _______ _______ _____ _____    ______ ____
ROOT
ATOM      2  O   UNL     1      -6.309  -9.814  14.109  0.00  0.00    -0.274 OA
ATOM      4  N   UNL     1      -5.957 -11.013  17.774  0.00  0.00    -0.296 NA
ATOM      5  N   UNL     1      -4.100 -11.277  14.632  0.00  0.00    -0.286 NA
ATOM      6  N   UNL     1      -7.687 -11.039  15.465  0.00  0.00    -0.312 N 
ATOM      8  C   UNL     1      -5.003 -11.667  16.851  0.00  0.00    +0.084 C 
ATOM      9  C   UNL     1      -5.334 -11.681  15.329  0.00  0.00    +0.161 C 
ATOM     10  C   UNL     1      -3.594 -11.045  16.865  0.00  0.00    +0.036 C 
ATOM     11  C   UNL     1      -2.993 -11.503  15.553  0.00  0.00    +0.087 C 
ATOM     12  C   UNL     1      -7.298 -11.658  17.832  0.00  0.00    +0.074 C 
ATOM     13  C   UNL     1      -6.459 -10.740  14.904  0.00  0.00    +0.232 C 
ATOM     14  C   UNL     1      -7.880 -12.070  16.465  0.00  0.00    +0.123 C 
ATOM     17  C   UNL     1      -5.385 -10.903  19.126  0.00  0.00    +0.105 C 
ATOM     34  H   UNL     1      -8.493 -10.500  15.163  0.00  0.00    +0.149 HD
ENDROOT
BRANCH  12  15
ATOM     15  C   UNL     1      -8.320 -10.718  18.507  0.00  0.00    +0.029 C 
BRANCH  15  18
ATOM     18  C   UNL     1      -9.291 -11.478  19.390  0.00  0.00    +0.098 C 
BRANCH  18  20
ATOM      3  O   UNL     1     -10.683  -9.583  19.086  0.00  0.00    -0.275 OA
ATOM      7  N   UNL     1     -11.556 -11.376  20.301  0.00  0.00    -0.271 N 
ATOM     20  C   UNL     1     -10.578 -10.710  19.573  0.00  0.00    +0.220 C 
ATOM     23  C   UNL     1     -11.427 -12.728  20.884  0.00  0.00    +0.118 C 
ATOM     24  C   UNL     1     -12.838 -10.878  20.611  0.00  0.00    +0.039 A 
ATOM     25  C   UNL     1     -12.747 -13.059  21.590  0.00  0.00    +0.056 C 
ATOM     26  C   UNL     1     -13.550 -11.822  21.353  0.00  0.00    -0.024 A 
ATOM     29  C   UNL     1     -13.414  -9.659  20.283  0.00  0.00    +0.024 A 
ATOM     31  C   UNL     1     -14.845 -11.574  21.785  0.00  0.00    +0.005 A 
ATOM     32  C   UNL     1     -14.718  -9.401  20.714  0.00  0.00    +0.002 A 
ATOM     33  C   UNL     1     -15.430 -10.351  21.459  0.00  0.00    +0.000 A 
ENDBRANCH  18  20
ENDBRANCH  15  18
ENDBRANCH  12  15
BRANCH   5  16
ATOM     16  C   UNL     1      -3.905 -11.962  13.360  0.00  0.00    +0.120 C 
BRANCH  16  19
ATOM      1 CL   UNL     1      -0.385  -8.881  11.063  0.00  0.00    -0.084 Cl
ATOM     19  C   UNL     1      -3.561 -11.001  12.253  0.00  0.00    -0.032 A 
ATOM     21  C   UNL     1      -2.282 -10.451  12.178  0.00  0.00    +0.025 A 
ATOM     22  C   UNL     1      -4.522 -10.663  11.300  0.00  0.00    +0.005 A 
ATOM     27  C   UNL     1      -1.963  -9.561  11.152  0.00  0.00    +0.041 A 
ATOM     28  C   UNL     1      -4.203  -9.774  10.274  0.00  0.00    +0.002 A 
ATOM     30  C   UNL     1      -2.924  -9.223  10.199  0.00  0.00    +0.020 A 
ENDBRANCH  16  19
ENDBRANCH   5  16
TORSDOF 5
ENDMDL
