MODEL 1
REMARK VINA RESULT:      -7.3      0.000      0.000
REMARK  Name = 11941514
REMARK  9 active torsions:
REMARK  status: ('A' for Active; 'I' for Inactive)
REMARK    1  A    between atoms: O_4  and  C_26
REMARK    2  A    between atoms: O_6  and  C_33
REMARK    3  A    between atoms: O_6  and  C_34
REMARK    4  A    between atoms: N_8  and  C_10
REMARK    5  A    between atoms: C_18  and  C_20
REMARK    6  A    between atoms: C_20  and  C_24
REMARK    7  A    between atoms: C_22  and  C_25
REMARK    8  A    between atoms: C_24  and  C_26
REMARK    9  A    between atoms: C_27  and  C_28
REMARK                            x       y       z     vdW  Elec       q    Type
REMARK                         _______ _______ _______ _____ _____    ______ ____
ROOT
ATOM      1  O   UNL     1      -1.637 -10.746  16.457  0.00  0.00    -0.273 OA
ATOM      2  O   UNL     1      -4.840 -13.165  13.044  0.00  0.00    -0.270 OA
ATOM      7  N   UNL     1      -4.290 -11.953  14.919  0.00  0.00    -0.284 N 
ATOM      9  N   UNL     1      -1.843 -10.483  14.204  0.00  0.00    -0.283 N 
ATOM     10  C   UNL     1      -4.400 -10.847  17.007  0.00  0.00    +0.104 C 
ATOM     11  C   UNL     1      -3.878 -10.722  15.569  0.00  0.00    +0.183 C 
ATOM     12  C   UNL     1      -4.456 -12.359  17.235  0.00  0.00    +0.043 C 
ATOM     13  C   UNL     1      -4.842 -12.907  15.870  0.00  0.00    +0.111 C 
ATOM     14  C   UNL     1      -2.365 -10.692  15.464  0.00  0.00    +0.240 C 
ATOM     15  C   UNL     1      -4.332 -12.169  13.559  0.00  0.00    +0.249 C 
ATOM     16  C   UNL     1      -3.708 -11.155  12.669  0.00  0.00    +0.059 A 
ATOM     17  C   UNL     1      -2.518 -10.468  12.964  0.00  0.00    +0.046 A 
ATOM     19  C   UNL     1      -4.282 -11.026  11.390  0.00  0.00    +0.022 A 
ATOM     21  C   UNL     1      -1.897  -9.721  11.948  0.00  0.00    +0.024 A 
ATOM     22  C   UNL     1      -3.676 -10.242  10.411  0.00  0.00    -0.024 A 
ATOM     23  C   UNL     1      -2.477  -9.599  10.684  0.00  0.00    +0.010 A 
ATOM     36  H   UNL     1      -0.859 -10.229  14.176  0.00  0.00    +0.155 HD
ENDROOT
BRANCH  10   8
ATOM      3  O   UNL     1      -6.058 -10.759  19.376  0.00  0.00    -0.276 OA
ATOM      8  N   UNL     1      -5.709 -10.250  17.136  0.00  0.00    -0.310 N 
ATOM     18  C   UNL     1      -6.432 -10.258  18.320  0.00  0.00    +0.214 C 
ATOM     35  H   UNL     1      -6.138  -9.856  16.304  0.00  0.00    +0.149 HD
BRANCH  18  20
ATOM     20  C   UNL     1      -7.771  -9.562  18.160  0.00  0.00    +0.107 C 
BRANCH  20  24
ATOM     24  C   UNL     1      -8.131  -9.317  16.698  0.00  0.00    +0.129 C 
BRANCH  24  26
ATOM      5  O   UNL     1      -9.789  -7.997  15.500  0.00  0.00    -0.251 OA
ATOM     26  C   UNL     1      -9.243  -8.305  16.552  0.00  0.00    +0.305 C 
BRANCH  26   4
ATOM      4  O   UNL     1      -9.579  -7.759  17.749  0.00  0.00    -0.481 OA
ATOM     37  H   UNL     1     -10.537  -7.559  17.804  0.00  0.00    +0.295 HD
ENDBRANCH  26   4
ENDBRANCH  24  26
ENDBRANCH  20  24
ENDBRANCH  18  20
ENDBRANCH  10   8
BRANCH  22  25
ATOM     25  C   UNL     1      -4.285 -10.119   9.095  0.00  0.00    +0.008 C 
ATOM     27  C   UNL     1      -4.520 -11.145   8.244  0.00  0.00    +0.008 C 
BRANCH  27  28
ATOM     28  C   UNL     1      -5.155 -11.023   6.920  0.00  0.00    -0.025 A 
ATOM     29  C   UNL     1      -6.056  -9.995   6.692  0.00  0.00    +0.011 A 
ATOM     30  C   UNL     1      -4.838 -11.938   5.929  0.00  0.00    +0.011 A 
ATOM     31  C   UNL     1      -6.657  -9.879   5.439  0.00  0.00    +0.046 A 
ATOM     32  C   UNL     1      -5.441 -11.823   4.676  0.00  0.00    +0.046 A 
ATOM     33  C   UNL     1      -6.349 -10.793   4.430  0.00  0.00    +0.120 A 
BRANCH  33   6
ATOM      6  O   UNL     1      -6.937 -10.681   3.208  0.00  0.00    -0.495 OA
ATOM     34  C   UNL     1      -8.034  -9.777   3.096  0.00  0.00    +0.277 C 
ENDBRANCH  33   6
ENDBRANCH  27  28
ENDBRANCH  22  25
TORSDOF 8
ENDMDL
MODEL 2
REMARK VINA RESULT:      -7.2      4.792     10.665
REMARK  Name = 11941514
REMARK  9 active torsions:
REMARK  status: ('A' for Active; 'I' for Inactive)
REMARK    1  A    between atoms: O_4  and  C_26
REMARK    2  A    between atoms: O_6  and  C_33
REMARK    3  A    between atoms: O_6  and  C_34
REMARK    4  A    between atoms: N_8  and  C_10
REMARK    5  A    between atoms: C_18  and  C_20
REMARK    6  A    between atoms: C_20  and  C_24
REMARK    7  A    between atoms: C_22  and  C_25
REMARK    8  A    between atoms: C_24  and  C_26
REMARK    9  A    between atoms: C_27  and  C_28
REMARK                            x       y       z     vdW  Elec       q    Type
REMARK                         _______ _______ _______ _____ _____    ______ ____
ROOT
ATOM      1  O   UNL     1      -0.641 -10.939  15.430  0.00  0.00    -0.273 OA
ATOM      2  O   UNL     1      -5.717  -9.906  14.467  0.00  0.00    -0.270 OA
ATOM      7  N   UNL     1      -3.679 -10.925  14.153  0.00  0.00    -0.284 N 
ATOM      9  N   UNL     1      -2.442 -11.025  16.821  0.00  0.00    -0.283 N 
ATOM     10  C   UNL     1      -1.896 -12.173  13.229  0.00  0.00    +0.104 C 
ATOM     11  C   UNL     1      -2.664 -11.892  14.528  0.00  0.00    +0.183 C 
ATOM     12  C   UNL     1      -2.084 -10.889  12.419  0.00  0.00    +0.043 C 
ATOM     13  C   UNL     1      -3.486 -10.437  12.795  0.00  0.00    +0.111 C 
ATOM     14  C   UNL     1      -1.831 -11.214  15.600  0.00  0.00    +0.240 C 
ATOM     15  C   UNL     1      -4.799 -10.607  14.891  0.00  0.00    +0.249 C 
ATOM     16  C   UNL     1      -4.889 -11.122  16.283  0.00  0.00    +0.059 A 
ATOM     17  C   UNL     1      -3.799 -11.215  17.165  0.00  0.00    +0.046 A 
ATOM     19  C   UNL     1      -6.190 -11.362  16.764  0.00  0.00    +0.022 A 
ATOM     21  C   UNL     1      -4.046 -11.481  18.523  0.00  0.00    +0.024 A 
ATOM     22  C   UNL     1      -6.410 -11.671  18.105  0.00  0.00    -0.024 A 
ATOM     23  C   UNL     1      -5.340 -11.719  18.988  0.00  0.00    +0.010 A 
ATOM     36  H   UNL     1      -1.818 -10.796  17.591  0.00  0.00    +0.155 HD
ENDROOT
BRANCH  10   8
ATOM      3  O   UNL     1      -1.248 -14.962  13.648  0.00  0.00    -0.276 OA
ATOM      8  N   UNL     1      -2.452 -13.314  12.537  0.00  0.00    -0.310 N 
ATOM     18  C   UNL     1      -2.076 -14.621  12.809  0.00  0.00    +0.214 C 
ATOM     35  H   UNL     1      -3.108 -13.141  11.781  0.00  0.00    +0.149 HD
BRANCH  18  20
ATOM     20  C   UNL     1      -2.821 -15.610  11.930  0.00  0.00    +0.107 C 
BRANCH  20  24
ATOM     24  C   UNL     1      -2.059 -16.918  11.747  0.00  0.00    +0.129 C 
BRANCH  24  26
ATOM      5  O   UNL     1      -1.093 -17.098   9.520  0.00  0.00    -0.251 OA
ATOM     26  C   UNL     1      -0.976 -16.799  10.701  0.00  0.00    +0.305 C 
BRANCH  26   4
ATOM      4  O   UNL     1       0.175 -16.310  11.231  0.00  0.00    -0.481 OA
ATOM     37  H   UNL     1       0.475 -16.835  12.004  0.00  0.00    +0.295 HD
ENDBRANCH  26   4
ENDBRANCH  24  26
ENDBRANCH  20  24
ENDBRANCH  18  20
ENDBRANCH  10   8
BRANCH  22  25
ATOM     25  C   UNL     1      -7.762 -11.918  18.584  0.00  0.00    +0.008 C 
ATOM     27  C   UNL     1      -8.490 -11.064  19.339  0.00  0.00    +0.008 C 
BRANCH  27  28
ATOM     28  C   UNL     1      -9.866 -11.306  19.808  0.00  0.00    -0.025 A 
ATOM     29  C   UNL     1     -10.225 -12.574  20.235  0.00  0.00    +0.011 A 
ATOM     30  C   UNL     1     -10.776 -10.259  19.812  0.00  0.00    +0.011 A 
ATOM     31  C   UNL     1     -11.527 -12.803  20.678  0.00  0.00    +0.046 A 
ATOM     32  C   UNL     1     -12.078 -10.489  20.254  0.00  0.00    +0.046 A 
ATOM     33  C   UNL     1     -12.454 -11.760  20.688  0.00  0.00    +0.120 A 
BRANCH  33   6
ATOM      6  O   UNL     1     -13.726 -11.984  21.119  0.00  0.00    -0.495 OA
ATOM     34  C   UNL     1     -13.926 -12.078  22.528  0.00  0.00    +0.277 C 
ENDBRANCH  33   6
ENDBRANCH  27  28
ENDBRANCH  22  25
TORSDOF 8
ENDMDL
MODEL 3
REMARK VINA RESULT:      -7.1      1.460      1.772
REMARK  Name = 11941514
REMARK  9 active torsions:
REMARK  status: ('A' for Active; 'I' for Inactive)
REMARK    1  A    between atoms: O_4  and  C_26
REMARK    2  A    between atoms: O_6  and  C_33
REMARK    3  A    between atoms: O_6  and  C_34
REMARK    4  A    between atoms: N_8  and  C_10
REMARK    5  A    between atoms: C_18  and  C_20
REMARK    6  A    between atoms: C_20  and  C_24
REMARK    7  A    between atoms: C_22  and  C_25
REMARK    8  A    between atoms: C_24  and  C_26
REMARK    9  A    between atoms: C_27  and  C_28
REMARK                            x       y       z     vdW  Elec       q    Type
REMARK                         _______ _______ _______ _____ _____    ______ ____
ROOT
ATOM      1  O   UNL     1      -1.992 -10.684  16.898  0.00  0.00    -0.273 OA
ATOM      2  O   UNL     1      -4.634 -13.990  13.759  0.00  0.00    -0.270 OA
ATOM      7  N   UNL     1      -4.363 -12.463  15.457  0.00  0.00    -0.284 N 
ATOM      9  N   UNL     1      -2.107 -10.767  14.625  0.00  0.00    -0.283 N 
ATOM     10  C   UNL     1      -4.741 -11.108  17.358  0.00  0.00    +0.104 C 
ATOM     11  C   UNL     1      -4.162 -11.108  15.936  0.00  0.00    +0.183 C 
ATOM     12  C   UNL     1      -4.599 -12.566  17.800  0.00  0.00    +0.043 C 
ATOM     13  C   UNL     1      -4.829 -13.347  16.516  0.00  0.00    +0.111 C 
ATOM     14  C   UNL     1      -2.664 -10.874  15.882  0.00  0.00    +0.240 C 
ATOM     15  C   UNL     1      -4.298 -12.869  14.142  0.00  0.00    +0.249 C 
ATOM     16  C   UNL     1      -3.772 -11.908  13.137  0.00  0.00    +0.059 A 
ATOM     17  C   UNL     1      -2.708 -11.021  13.372  0.00  0.00    +0.046 A 
ATOM     19  C   UNL     1      -4.286 -12.041  11.834  0.00  0.00    +0.022 A 
ATOM     21  C   UNL     1      -2.140 -10.340  12.281  0.00  0.00    +0.024 A 
ATOM     22  C   UNL     1      -3.740 -11.321  10.773  0.00  0.00    -0.024 A 
ATOM     23  C   UNL     1      -2.659 -10.479  10.994  0.00  0.00    +0.010 A 
ATOM     36  H   UNL     1      -1.168 -10.379  14.596  0.00  0.00    +0.155 HD
ENDROOT
BRANCH  10   8
ATOM      3  O   UNL     1      -6.323 -10.258  19.626  0.00  0.00    -0.276 OA
ATOM      8  N   UNL     1      -6.125 -10.696  17.352  0.00  0.00    -0.310 N 
ATOM     18  C   UNL     1      -6.803 -10.303  18.498  0.00  0.00    +0.214 C 
ATOM     35  H   UNL     1      -6.636 -10.749  16.476  0.00  0.00    +0.149 HD
BRANCH  18  20
ATOM     20  C   UNL     1      -8.242  -9.926  18.192  0.00  0.00    +0.107 C 
BRANCH  20  24
ATOM     24  C   UNL     1      -9.193 -11.113  18.305  0.00  0.00    +0.129 C 
BRANCH  24  26
ATOM      5  O   UNL     1      -9.795 -12.485  20.224  0.00  0.00    -0.251 OA
ATOM     26  C   UNL     1      -9.596 -11.380  19.736  0.00  0.00    +0.305 C 
BRANCH  26   4
ATOM      4  O   UNL     1      -9.717 -10.225  20.442  0.00  0.00    -0.481 OA
ATOM     37  H   UNL     1      -9.305  -9.467  19.975  0.00  0.00    +0.295 HD
ENDBRANCH  26   4
ENDBRANCH  24  26
ENDBRANCH  20  24
ENDBRANCH  18  20
ENDBRANCH  10   8
BRANCH  22  25
ATOM     25  C   UNL     1      -4.286 -11.470   9.433  0.00  0.00    +0.008 C 
ATOM     27  C   UNL     1      -4.643 -10.450   8.618  0.00  0.00    +0.008 C 
BRANCH  27  28
ATOM     28  C   UNL     1      -5.177 -10.601   7.253  0.00  0.00    -0.025 A 
ATOM     29  C   UNL     1      -6.158  -9.729   6.808  0.00  0.00    +0.011 A 
ATOM     30  C   UNL     1      -4.688 -11.612   6.440  0.00  0.00    +0.011 A 
ATOM     31  C   UNL     1      -6.664  -9.872   5.516  0.00  0.00    +0.046 A 
ATOM     32  C   UNL     1      -5.195 -11.755   5.148  0.00  0.00    +0.046 A 
ATOM     33  C   UNL     1      -6.182 -10.885   4.686  0.00  0.00    +0.120 A 
BRANCH  33   6
ATOM      6  O   UNL     1      -6.676 -11.025   3.426  0.00  0.00    -0.495 OA
ATOM     34  C   UNL     1      -6.655 -12.334   2.861  0.00  0.00    +0.277 C 
ENDBRANCH  33   6
ENDBRANCH  27  28
ENDBRANCH  22  25
TORSDOF 8
ENDMDL
MODEL 4
REMARK VINA RESULT:      -7.0     25.652     28.904
REMARK  Name = 11941514
REMARK  9 active torsions:
REMARK  status: ('A' for Active; 'I' for Inactive)
REMARK    1  A    between atoms: O_4  and  C_26
REMARK    2  A    between atoms: O_6  and  C_33
REMARK    3  A    between atoms: O_6  and  C_34
REMARK    4  A    between atoms: N_8  and  C_10
REMARK    5  A    between atoms: C_18  and  C_20
REMARK    6  A    between atoms: C_20  and  C_24
REMARK    7  A    between atoms: C_22  and  C_25
REMARK    8  A    between atoms: C_24  and  C_26
REMARK    9  A    between atoms: C_27  and  C_28
REMARK                            x       y       z     vdW  Elec       q    Type
REMARK                         _______ _______ _______ _____ _____    ______ ____
ROOT
ATOM      1  O   UNL     1       9.441   9.014   5.453  0.00  0.00    -0.273 OA
ATOM      2  O   UNL     1      13.306   6.203   7.671  0.00  0.00    -0.270 OA
ATOM      7  N   UNL     1      11.559   6.613   6.233  0.00  0.00    -0.284 N 
ATOM      9  N   UNL     1      11.651   9.506   5.703  0.00  0.00    -0.283 N 
ATOM     10  C   UNL     1       9.812   6.334   4.663  0.00  0.00    +0.104 C 
ATOM     11  C   UNL     1      11.004   7.225   5.040  0.00  0.00    +0.183 C 
ATOM     12  C   UNL     1       9.390   5.720   6.000  0.00  0.00    +0.043 C 
ATOM     13  C   UNL     1      10.707   5.546   6.739  0.00  0.00    +0.111 C 
ATOM     14  C   UNL     1      10.614   8.633   5.448  0.00  0.00    +0.240 C 
ATOM     15  C   UNL     1      12.810   6.859   6.756  0.00  0.00    +0.249 C 
ATOM     16  C   UNL     1      13.590   7.995   6.199  0.00  0.00    +0.059 A 
ATOM     17  C   UNL     1      13.031   9.225   5.809  0.00  0.00    +0.046 A 
ATOM     19  C   UNL     1      14.990   7.854   6.236  0.00  0.00    +0.022 A 
ATOM     21  C   UNL     1      13.890  10.302   5.532  0.00  0.00    +0.024 A 
ATOM     22  C   UNL     1      15.825   8.921   5.911  0.00  0.00    -0.024 A 
ATOM     23  C   UNL     1      15.276  10.149   5.570  0.00  0.00    +0.010 A 
ATOM     36  H   UNL     1      11.395  10.489   5.740  0.00  0.00    +0.155 HD
ENDROOT
BRANCH  10   8
ATOM      3  O   UNL     1       9.852   6.536   1.778  0.00  0.00    -0.276 OA
ATOM      8  N   UNL     1      10.208   5.313   3.721  0.00  0.00    -0.310 N 
ATOM     18  C   UNL     1      10.193   5.504   2.347  0.00  0.00    +0.214 C 
ATOM     35  H   UNL     1      10.456   4.397   4.085  0.00  0.00    +0.149 HD
BRANCH  18  20
ATOM     20  C   UNL     1      10.657   4.262   1.606  0.00  0.00    +0.107 C 
BRANCH  20  24
ATOM     24  C   UNL     1      11.826   3.571   2.300  0.00  0.00    +0.129 C 
BRANCH  24  26
ATOM      5  O   UNL     1      12.895   3.238   0.139  0.00  0.00    -0.251 OA
ATOM     26  C   UNL     1      12.980   3.328   1.357  0.00  0.00    +0.305 C 
BRANCH  26   4
ATOM      4  O   UNL     1      14.156   3.218   2.028  0.00  0.00    -0.481 OA
ATOM     37  H   UNL     1      14.139   2.485   2.680  0.00  0.00    +0.295 HD
ENDBRANCH  26   4
ENDBRANCH  24  26
ENDBRANCH  20  24
ENDBRANCH  18  20
ENDBRANCH  10   8
BRANCH  22  25
ATOM     25  C   UNL     1      17.270   8.755   5.953  0.00  0.00    +0.008 C 
ATOM     27  C   UNL     1      18.042   8.369   4.911  0.00  0.00    +0.008 C 
BRANCH  27  28
ATOM     28  C   UNL     1      19.507   8.220   4.948  0.00  0.00    -0.025 A 
ATOM     29  C   UNL     1      20.233   8.893   5.917  0.00  0.00    +0.011 A 
ATOM     30  C   UNL     1      20.131   7.409   4.013  0.00  0.00    +0.011 A 
ATOM     31  C   UNL     1      21.621   8.753   5.952  0.00  0.00    +0.046 A 
ATOM     32  C   UNL     1      21.519   7.270   4.047  0.00  0.00    +0.046 A 
ATOM     33  C   UNL     1      22.264   7.941   5.017  0.00  0.00    +0.120 A 
BRANCH  33   6
ATOM      6  O   UNL     1      23.617   7.805   5.051  0.00  0.00    -0.495 OA
ATOM     34  C   UNL     1      24.394   8.968   4.772  0.00  0.00    +0.277 C 
ENDBRANCH  33   6
ENDBRANCH  27  28
ENDBRANCH  22  25
TORSDOF 8
ENDMDL
MODEL 5
REMARK VINA RESULT:      -6.9      1.360      1.683
REMARK  Name = 11941514
REMARK  9 active torsions:
REMARK  status: ('A' for Active; 'I' for Inactive)
REMARK    1  A    between atoms: O_4  and  C_26
REMARK    2  A    between atoms: O_6  and  C_33
REMARK    3  A    between atoms: O_6  and  C_34
REMARK    4  A    between atoms: N_8  and  C_10
REMARK    5  A    between atoms: C_18  and  C_20
REMARK    6  A    between atoms: C_20  and  C_24
REMARK    7  A    between atoms: C_22  and  C_25
REMARK    8  A    between atoms: C_24  and  C_26
REMARK    9  A    between atoms: C_27  and  C_28
REMARK                            x       y       z     vdW  Elec       q    Type
REMARK                         _______ _______ _______ _____ _____    ______ ____
ROOT
ATOM      1  O   UNL     1      -1.618 -11.039  15.467  0.00  0.00    -0.273 OA
ATOM      2  O   UNL     1      -5.316 -12.831  12.169  0.00  0.00    -0.270 OA
ATOM      7  N   UNL     1      -4.494 -11.876  14.093  0.00  0.00    -0.284 N 
ATOM      9  N   UNL     1      -2.014 -10.513  13.286  0.00  0.00    -0.283 N 
ATOM     10  C   UNL     1      -4.315 -11.005  16.284  0.00  0.00    +0.104 C 
ATOM     11  C   UNL     1      -3.924 -10.758  14.820  0.00  0.00    +0.183 C 
ATOM     12  C   UNL     1      -4.472 -12.526  16.359  0.00  0.00    +0.043 C 
ATOM     13  C   UNL     1      -5.029 -12.889  14.991  0.00  0.00    +0.111 C 
ATOM     14  C   UNL     1      -2.430 -10.823  14.564  0.00  0.00    +0.240 C 
ATOM     15  C   UNL     1      -4.682 -11.937  12.729  0.00  0.00    +0.249 C 
ATOM     16  C   UNL     1      -4.065 -10.876  11.889  0.00  0.00    +0.059 A 
ATOM     17  C   UNL     1      -2.801 -10.311  12.130  0.00  0.00    +0.046 A 
ATOM     19  C   UNL     1      -4.745 -10.566  10.697  0.00  0.00    +0.022 A 
ATOM     21  C   UNL     1      -2.220  -9.502  11.138  0.00  0.00    +0.024 A 
ATOM     22  C   UNL     1      -4.172  -9.722   9.747  0.00  0.00    -0.024 A 
ATOM     23  C   UNL     1      -2.905  -9.200   9.961  0.00  0.00    +0.010 A 
ATOM     36  H   UNL     1      -1.020 -10.327  13.184  0.00  0.00    +0.155 HD
ENDROOT
BRANCH  10   8
ATOM      3  O   UNL     1      -5.608 -10.870  18.869  0.00  0.00    -0.276 OA
ATOM      8  N   UNL     1      -5.554 -10.336  16.608  0.00  0.00    -0.310 N 
ATOM     18  C   UNL     1      -6.098 -10.326  17.884  0.00  0.00    +0.214 C 
ATOM     35  H   UNL     1      -6.073  -9.900  15.851  0.00  0.00    +0.149 HD
BRANCH  18  20
ATOM     20  C   UNL     1      -7.402  -9.549  17.928  0.00  0.00    +0.107 C 
BRANCH  20  24
ATOM     24  C   UNL     1      -8.142  -9.574  16.594  0.00  0.00    +0.129 C 
BRANCH  24  26
ATOM      5  O   UNL     1      -9.723  -8.107  15.466  0.00  0.00    -0.251 OA
ATOM     26  C   UNL     1      -9.163  -8.465  16.494  0.00  0.00    +0.305 C 
BRANCH  26   4
ATOM      4  O   UNL     1      -9.396  -7.894  17.704  0.00  0.00    -0.481 OA
ATOM     37  H   UNL     1     -10.166  -7.287  17.679  0.00  0.00    +0.295 HD
ENDBRANCH  26   4
ENDBRANCH  24  26
ENDBRANCH  20  24
ENDBRANCH  18  20
ENDBRANCH  10   8
BRANCH  22  25
ATOM     25  C   UNL     1      -4.891  -9.411   8.520  0.00  0.00    +0.008 C 
ATOM     27  C   UNL     1      -6.219  -9.164   8.436  0.00  0.00    +0.008 C 
BRANCH  27  28
ATOM     28  C   UNL     1      -6.944  -8.829   7.197  0.00  0.00    -0.025 A 
ATOM     29  C   UNL     1      -7.885  -7.812   7.216  0.00  0.00    +0.011 A 
ATOM     30  C   UNL     1      -6.669  -9.537   6.038  0.00  0.00    +0.011 A 
ATOM     31  C   UNL     1      -8.571  -7.495   6.043  0.00  0.00    +0.046 A 
ATOM     32  C   UNL     1      -7.356  -9.220   4.866  0.00  0.00    +0.046 A 
ATOM     33  C   UNL     1      -8.306  -8.199   4.868  0.00  0.00    +0.120 A 
BRANCH  33   6
ATOM      6  O   UNL     1      -8.977  -7.891   3.724  0.00  0.00    -0.495 OA
ATOM     34  C   UNL     1      -8.196  -7.695   2.547  0.00  0.00    +0.277 C 
ENDBRANCH  33   6
ENDBRANCH  27  28
ENDBRANCH  22  25
TORSDOF 8
ENDMDL
MODEL 6
REMARK VINA RESULT:      -6.9     22.654     25.318
REMARK  Name = 11941514
REMARK  9 active torsions:
REMARK  status: ('A' for Active; 'I' for Inactive)
REMARK    1  A    between atoms: O_4  and  C_26
REMARK    2  A    between atoms: O_6  and  C_33
REMARK    3  A    between atoms: O_6  and  C_34
REMARK    4  A    between atoms: N_8  and  C_10
REMARK    5  A    between atoms: C_18  and  C_20
REMARK    6  A    between atoms: C_20  and  C_24
REMARK    7  A    between atoms: C_22  and  C_25
REMARK    8  A    between atoms: C_24  and  C_26
REMARK    9  A    between atoms: C_27  and  C_28
REMARK                            x       y       z     vdW  Elec       q    Type
REMARK                         _______ _______ _______ _____ _____    ______ ____
ROOT
ATOM      1  O   UNL     1      13.398   7.329   0.860  0.00  0.00    -0.273 OA
ATOM      2  O   UNL     1      10.565   3.631  -1.603  0.00  0.00    -0.270 OA
ATOM      7  N   UNL     1      11.470   4.739   0.198  0.00  0.00    -0.284 N 
ATOM      9  N   UNL     1      11.714   7.544  -0.658  0.00  0.00    -0.283 N 
ATOM     10  C   UNL     1      12.176   5.296   2.384  0.00  0.00    +0.104 C 
ATOM     11  C   UNL     1      11.506   5.857   1.123  0.00  0.00    +0.183 C 
ATOM     12  C   UNL     1      13.048   4.158   1.849  0.00  0.00    +0.043 C 
ATOM     13  C   UNL     1      12.229   3.601   0.695  0.00  0.00    +0.111 C 
ATOM     14  C   UNL     1      12.312   6.937   0.426  0.00  0.00    +0.240 C 
ATOM     15  C   UNL     1      10.690   4.657  -0.936  0.00  0.00    +0.249 C 
ATOM     16  C   UNL     1       9.981   5.884  -1.388  0.00  0.00    +0.059 A 
ATOM     17  C   UNL     1      10.521   7.180  -1.323  0.00  0.00    +0.046 A 
ATOM     19  C   UNL     1       8.768   5.674  -2.069  0.00  0.00    +0.022 A 
ATOM     21  C   UNL     1       9.866   8.222  -2.000  0.00  0.00    +0.024 A 
ATOM     22  C   UNL     1       8.108   6.730  -2.694  0.00  0.00    -0.024 A 
ATOM     23  C   UNL     1       8.662   8.002  -2.671  0.00  0.00    +0.010 A 
ATOM     36  H   UNL     1      12.145   8.411  -0.966  0.00  0.00    +0.155 HD
ENDROOT
BRANCH  10   8
ATOM      3  O   UNL     1      11.539   6.381   4.990  0.00  0.00    -0.276 OA
ATOM      8  N   UNL     1      11.190   4.805   3.319  0.00  0.00    -0.310 N 
ATOM     18  C   UNL     1      10.955   5.395   4.552  0.00  0.00    +0.214 C 
ATOM     35  H   UNL     1      10.687   3.955   3.079  0.00  0.00    +0.149 HD
BRANCH  18  20
ATOM     20  C   UNL     1       9.867   4.666   5.321  0.00  0.00    +0.107 C 
BRANCH  20  24
ATOM     24  C   UNL     1       9.437   5.416   6.577  0.00  0.00    +0.129 C 
BRANCH  24  26
ATOM      5  O   UNL     1       9.593   4.048   8.584  0.00  0.00    -0.251 OA
ATOM     26  C   UNL     1      10.094   4.861   7.819  0.00  0.00    +0.305 C 
BRANCH  26   4
ATOM      4  O   UNL     1      11.337   5.380   7.998  0.00  0.00    -0.481 OA
ATOM     37  H   UNL     1      11.558   5.480   8.948  0.00  0.00    +0.295 HD
ENDBRANCH  26   4
ENDBRANCH  24  26
ENDBRANCH  20  24
ENDBRANCH  18  20
ENDBRANCH  10   8
BRANCH  22  25
ATOM     25  C   UNL     1       6.852   6.495  -3.392  0.00  0.00    +0.008 C 
ATOM     27  C   UNL     1       5.655   7.022  -3.044  0.00  0.00    +0.008 C 
BRANCH  27  28
ATOM     28  C   UNL     1       4.389   6.799  -3.762  0.00  0.00    -0.025 A 
ATOM     29  C   UNL     1       3.756   7.871  -4.371  0.00  0.00    +0.011 A 
ATOM     30  C   UNL     1       3.854   5.521  -3.816  0.00  0.00    +0.011 A 
ATOM     31  C   UNL     1       2.556   7.661  -5.051  0.00  0.00    +0.046 A 
ATOM     32  C   UNL     1       2.653   5.311  -4.495  0.00  0.00    +0.046 A 
ATOM     33  C   UNL     1       2.005   6.380  -5.113  0.00  0.00    +0.120 A 
BRANCH  33   6
ATOM      6  O   UNL     1       0.834   6.175  -5.775  0.00  0.00    -0.495 OA
ATOM     34  C   UNL     1       0.793   6.544  -7.152  0.00  0.00    +0.277 C 
ENDBRANCH  33   6
ENDBRANCH  27  28
ENDBRANCH  22  25
TORSDOF 8
ENDMDL
MODEL 7
REMARK VINA RESULT:      -6.8     29.886     33.356
REMARK  Name = 11941514
REMARK  9 active torsions:
REMARK  status: ('A' for Active; 'I' for Inactive)
REMARK    1  A    between atoms: O_4  and  C_26
REMARK    2  A    between atoms: O_6  and  C_33
REMARK    3  A    between atoms: O_6  and  C_34
REMARK    4  A    between atoms: N_8  and  C_10
REMARK    5  A    between atoms: C_18  and  C_20
REMARK    6  A    between atoms: C_20  and  C_24
REMARK    7  A    between atoms: C_22  and  C_25
REMARK    8  A    between atoms: C_24  and  C_26
REMARK    9  A    between atoms: C_27  and  C_28
REMARK                            x       y       z     vdW  Elec       q    Type
REMARK                         _______ _______ _______ _____ _____    ______ ____
ROOT
ATOM      1  O   UNL     1      25.310   4.766  20.767  0.00  0.00    -0.273 OA
ATOM      2  O   UNL     1      21.915   8.285  22.730  0.00  0.00    -0.270 OA
ATOM      7  N   UNL     1      23.696   7.552  21.474  0.00  0.00    -0.284 N 
ATOM      9  N   UNL     1      23.033   4.784  20.727  0.00  0.00    -0.283 N 
ATOM     10  C   UNL     1      25.647   7.494  20.138  0.00  0.00    +0.104 C 
ATOM     11  C   UNL     1      24.249   6.883  20.310  0.00  0.00    +0.183 C 
ATOM     12  C   UNL     1      26.021   7.932  21.556  0.00  0.00    +0.043 C 
ATOM     13  C   UNL     1      24.692   8.370  22.150  0.00  0.00    +0.111 C 
ATOM     14  C   UNL     1      24.261   5.406  20.656  0.00  0.00    +0.240 C 
ATOM     15  C   UNL     1      22.366   7.575  21.832  0.00  0.00    +0.249 C 
ATOM     16  C   UNL     1      21.430   6.675  21.108  0.00  0.00    +0.059 A 
ATOM     17  C   UNL     1      21.747   5.369  20.696  0.00  0.00    +0.046 A 
ATOM     19  C   UNL     1      20.104   7.132  20.996  0.00  0.00    +0.022 A 
ATOM     21  C   UNL     1      20.713   4.531  20.244  0.00  0.00    +0.024 A 
ATOM     22  C   UNL     1      19.101   6.300  20.500  0.00  0.00    -0.024 A 
ATOM     23  C   UNL     1      19.402   4.996  20.136  0.00  0.00    +0.010 A 
ATOM     36  H   UNL     1      23.057   3.767  20.721  0.00  0.00    +0.155 HD
ENDROOT
BRANCH  10   8
ATOM      3  O   UNL     1      26.319   7.501  17.324  0.00  0.00    -0.276 OA
ATOM      8  N   UNL     1      25.611   8.620  19.234  0.00  0.00    -0.310 N 
ATOM     18  C   UNL     1      25.953   8.526  17.893  0.00  0.00    +0.214 C 
ATOM     35  H   UNL     1      25.375   9.532  19.616  0.00  0.00    +0.149 HD
BRANCH  18  20
ATOM     20  C   UNL     1      25.824   9.865  17.189  0.00  0.00    +0.107 C 
BRANCH  20  24
ATOM     24  C   UNL     1      26.144   9.775  15.701  0.00  0.00    +0.129 C 
BRANCH  24  26
ATOM      5  O   UNL     1      24.344   8.544  14.619  0.00  0.00    -0.251 OA
ATOM     26  C   UNL     1      24.898   9.608  14.864  0.00  0.00    +0.305 C 
BRANCH  26   4
ATOM      4  O   UNL     1      24.447  10.802  14.400  0.00  0.00    -0.481 OA
ATOM     37  H   UNL     1      23.952  10.705  13.558  0.00  0.00    +0.295 HD
ENDBRANCH  26   4
ENDBRANCH  24  26
ENDBRANCH  20  24
ENDBRANCH  18  20
ENDBRANCH  10   8
BRANCH  22  25
ATOM     25  C   UNL     1      17.735   6.791  20.390  0.00  0.00    +0.008 C 
ATOM     27  C   UNL     1      16.782   6.270  19.583  0.00  0.00    +0.008 C 
BRANCH  27  28
ATOM     28  C   UNL     1      15.394   6.754  19.486  0.00  0.00    -0.025 A 
ATOM     29  C   UNL     1      14.557   6.642  20.584  0.00  0.00    +0.011 A 
ATOM     30  C   UNL     1      14.952   7.313  18.297  0.00  0.00    +0.011 A 
ATOM     31  C   UNL     1      13.243   7.100  20.492  0.00  0.00    +0.046 A 
ATOM     32  C   UNL     1      13.637   7.771  18.204  0.00  0.00    +0.046 A 
ATOM     33  C   UNL     1      12.783   7.665  19.302  0.00  0.00    +0.120 A 
BRANCH  33   6
ATOM      6  O   UNL     1      11.500   8.111  19.211  0.00  0.00    -0.495 OA
ATOM     34  C   UNL     1      10.834   8.425  20.433  0.00  0.00    +0.277 C 
ENDBRANCH  33   6
ENDBRANCH  27  28
ENDBRANCH  22  25
TORSDOF 8
ENDMDL
MODEL 8
REMARK VINA RESULT:      -6.8     22.622     25.641
REMARK  Name = 11941514
REMARK  9 active torsions:
REMARK  status: ('A' for Active; 'I' for Inactive)
REMARK    1  A    between atoms: O_4  and  C_26
REMARK    2  A    between atoms: O_6  and  C_33
REMARK    3  A    between atoms: O_6  and  C_34
REMARK    4  A    between atoms: N_8  and  C_10
REMARK    5  A    between atoms: C_18  and  C_20
REMARK    6  A    between atoms: C_20  and  C_24
REMARK    7  A    between atoms: C_22  and  C_25
REMARK    8  A    between atoms: C_24  and  C_26
REMARK    9  A    between atoms: C_27  and  C_28
REMARK                            x       y       z     vdW  Elec       q    Type
REMARK                         _______ _______ _______ _____ _____    ______ ____
ROOT
ATOM      1  O   UNL     1       3.448  12.356  -1.075  0.00  0.00    -0.273 OA
ATOM      2  O   UNL     1       4.604  12.936   4.033  0.00  0.00    -0.270 OA
ATOM      7  N   UNL     1       3.261  12.534   2.211  0.00  0.00    -0.284 N 
ATOM      9  N   UNL     1       5.027  11.316   0.196  0.00  0.00    -0.283 N 
ATOM     10  C   UNL     1       1.373  12.198   0.826  0.00  0.00    +0.104 C 
ATOM     11  C   UNL     1       2.782  11.677   1.141  0.00  0.00    +0.183 C 
ATOM     12  C   UNL     1       1.435  13.669   1.243  0.00  0.00    +0.043 C 
ATOM     13  C   UNL     1       2.361  13.653   2.449  0.00  0.00    +0.111 C 
ATOM     14  C   UNL     1       3.771  11.854   0.004  0.00  0.00    +0.240 C 
ATOM     15  C   UNL     1       4.331  12.267   3.037  0.00  0.00    +0.249 C 
ATOM     16  C   UNL     1       5.216  11.124   2.689  0.00  0.00    +0.059 A 
ATOM     17  C   UNL     1       5.580  10.774   1.378  0.00  0.00    +0.046 A 
ATOM     19  C   UNL     1       5.839  10.480   3.775  0.00  0.00    +0.022 A 
ATOM     21  C   UNL     1       6.609   9.836   1.187  0.00  0.00    +0.024 A 
ATOM     22  C   UNL     1       6.825   9.518   3.564  0.00  0.00    -0.024 A 
ATOM     23  C   UNL     1       7.219   9.204   2.271  0.00  0.00    +0.010 A 
ATOM     36  H   UNL     1       5.596  11.227  -0.641  0.00  0.00    +0.155 HD
ENDROOT
BRANCH  10   8
ATOM      3  O   UNL     1      -0.218   9.950  -0.059  0.00  0.00    -0.276 OA
ATOM      8  N   UNL     1       0.375  11.481   1.586  0.00  0.00    -0.310 N 
ATOM     18  C   UNL     1      -0.341  10.409   1.073  0.00  0.00    +0.214 C 
ATOM     35  H   UNL     1       0.154  11.815   2.519  0.00  0.00    +0.149 HD
BRANCH  18  20
ATOM     20  C   UNL     1      -1.319   9.853   2.092  0.00  0.00    +0.107 C 
BRANCH  20  24
ATOM     24  C   UNL     1      -0.704   9.724   3.482  0.00  0.00    +0.129 C 
BRANCH  24  26
ATOM      5  O   UNL     1      -2.906   9.393   4.465  0.00  0.00    -0.251 OA
ATOM     26  C   UNL     1      -1.697   9.203   4.493  0.00  0.00    +0.305 C 
BRANCH  26   4
ATOM      4  O   UNL     1      -1.083   8.478   5.465  0.00  0.00    -0.481 OA
ATOM     37  H   UNL     1      -0.225   8.111   5.160  0.00  0.00    +0.295 HD
ENDBRANCH  26   4
ENDBRANCH  24  26
ENDBRANCH  20  24
ENDBRANCH  18  20
ENDBRANCH  10   8
BRANCH  22  25
ATOM     25  C   UNL     1       7.457   8.861   4.699  0.00  0.00    +0.008 C 
ATOM     27  C   UNL     1       7.956   7.603   4.694  0.00  0.00    +0.008 C 
BRANCH  27  28
ATOM     28  C   UNL     1       8.614   6.946   5.836  0.00  0.00    -0.025 A 
ATOM     29  C   UNL     1       9.168   5.687   5.668  0.00  0.00    +0.011 A 
ATOM     30  C   UNL     1       8.665   7.599   7.058  0.00  0.00    +0.011 A 
ATOM     31  C   UNL     1       9.791   5.065   6.750  0.00  0.00    +0.046 A 
ATOM     32  C   UNL     1       9.287   6.976   8.140  0.00  0.00    +0.046 A 
ATOM     33  C   UNL     1       9.851   5.709   7.986  0.00  0.00    +0.120 A 
BRANCH  33   6
ATOM      6  O   UNL     1      10.457   5.101   9.042  0.00  0.00    -0.495 OA
ATOM     34  C   UNL     1       9.610   4.516  10.028  0.00  0.00    +0.277 C 
ENDBRANCH  33   6
ENDBRANCH  27  28
ENDBRANCH  22  25
TORSDOF 8
ENDMDL
MODEL 9
REMARK VINA RESULT:      -6.8     22.260     26.535
REMARK  Name = 11941514
REMARK  9 active torsions:
REMARK  status: ('A' for Active; 'I' for Inactive)
REMARK    1  A    between atoms: O_4  and  C_26
REMARK    2  A    between atoms: O_6  and  C_33
REMARK    3  A    between atoms: O_6  and  C_34
REMARK    4  A    between atoms: N_8  and  C_10
REMARK    5  A    between atoms: C_18  and  C_20
REMARK    6  A    between atoms: C_20  and  C_24
REMARK    7  A    between atoms: C_22  and  C_25
REMARK    8  A    between atoms: C_24  and  C_26
REMARK    9  A    between atoms: C_27  and  C_28
REMARK                            x       y       z     vdW  Elec       q    Type
REMARK                         _______ _______ _______ _____ _____    ______ ____
ROOT
ATOM      1  O   UNL     1      10.060   5.394  -4.924  0.00  0.00    -0.273 OA
ATOM      2  O   UNL     1       9.426   8.208  -0.514  0.00  0.00    -0.270 OA
ATOM      7  N   UNL     1       8.768   7.113  -2.426  0.00  0.00    -0.284 N 
ATOM      9  N   UNL     1      10.723   4.944  -2.792  0.00  0.00    -0.283 N 
ATOM     10  C   UNL     1       7.487   6.329  -4.253  0.00  0.00    +0.104 C 
ATOM     11  C   UNL     1       8.485   5.898  -3.169  0.00  0.00    +0.183 C 
ATOM     12  C   UNL     1       7.803   7.811  -4.460  0.00  0.00    +0.043 C 
ATOM     13  C   UNL     1       8.193   8.285  -3.069  0.00  0.00    +0.111 C 
ATOM     14  C   UNL     1       9.822   5.433  -3.714  0.00  0.00    +0.240 C 
ATOM     15  C   UNL     1       9.352   7.175  -1.180  0.00  0.00    +0.249 C 
ATOM     16  C   UNL     1       9.946   5.932  -0.622  0.00  0.00    +0.059 A 
ATOM     17  C   UNL     1      10.643   4.977  -1.382  0.00  0.00    +0.046 A 
ATOM     19  C   UNL     1       9.935   5.824   0.782  0.00  0.00    +0.022 A 
ATOM     21  C   UNL     1      11.367   3.975  -0.713  0.00  0.00    +0.024 A 
ATOM     22  C   UNL     1      10.620   4.795   1.425  0.00  0.00    -0.024 A 
ATOM     23  C   UNL     1      11.347   3.877   0.679  0.00  0.00    +0.010 A 
ATOM     36  H   UNL     1      11.505   4.423  -3.179  0.00  0.00    +0.155 HD
ENDROOT
BRANCH  10   8
ATOM      3  O   UNL     1       5.174   5.729  -5.884  0.00  0.00    -0.276 OA
ATOM      8  N   UNL     1       6.126   6.141  -3.805  0.00  0.00    -0.310 N 
ATOM     18  C   UNL     1       5.077   5.855  -4.667  0.00  0.00    +0.214 C 
ATOM     35  H   UNL     1       5.924   6.280  -2.819  0.00  0.00    +0.149 HD
BRANCH  18  20
ATOM     20  C   UNL     1       3.763   5.714  -3.920  0.00  0.00    +0.107 C 
BRANCH  20  24
ATOM     24  C   UNL     1       2.588   5.438  -4.853  0.00  0.00    +0.129 C 
BRANCH  24  26
ATOM      5  O   UNL     1       1.120   3.507  -4.653  0.00  0.00    -0.251 OA
ATOM     26  C   UNL     1       2.227   3.972  -4.888  0.00  0.00    +0.305 C 
BRANCH  26   4
ATOM      4  O   UNL     1       3.299   3.205  -5.220  0.00  0.00    -0.481 OA
ATOM     37  H   UNL     1       3.805   3.587  -5.969  0.00  0.00    +0.295 HD
ENDBRANCH  26   4
ENDBRANCH  24  26
ENDBRANCH  20  24
ENDBRANCH  18  20
ENDBRANCH  10   8
BRANCH  22  25
ATOM     25  C   UNL     1      10.596   4.698   2.877  0.00  0.00    +0.008 C 
ATOM     27  C   UNL     1      10.680   5.745   3.730  0.00  0.00    +0.008 C 
BRANCH  27  28
ATOM     28  C   UNL     1      10.635   5.648   5.200  0.00  0.00    -0.025 A 
ATOM     29  C   UNL     1       9.802   4.713   5.793  0.00  0.00    +0.011 A 
ATOM     30  C   UNL     1      11.427   6.495   5.960  0.00  0.00    +0.011 A 
ATOM     31  C   UNL     1       9.759   4.622   7.184  0.00  0.00    +0.046 A 
ATOM     32  C   UNL     1      11.383   6.404   7.351  0.00  0.00    +0.046 A 
ATOM     33  C   UNL     1      10.550   5.468   7.964  0.00  0.00    +0.120 A 
BRANCH  33   6
ATOM      6  O   UNL     1      10.507   5.380   9.321  0.00  0.00    -0.495 OA
ATOM     34  C   UNL     1       9.419   4.655   9.890  0.00  0.00    +0.277 C 
ENDBRANCH  33   6
ENDBRANCH  27  28
ENDBRANCH  22  25
TORSDOF 8
ENDMDL
MODEL 10
REMARK VINA RESULT:      -6.7      6.169      8.724
REMARK  Name = 11941514
REMARK  9 active torsions:
REMARK  status: ('A' for Active; 'I' for Inactive)
REMARK    1  A    between atoms: O_4  and  C_26
REMARK    2  A    between atoms: O_6  and  C_33
REMARK    3  A    between atoms: O_6  and  C_34
REMARK    4  A    between atoms: N_8  and  C_10
REMARK    5  A    between atoms: C_18  and  C_20
REMARK    6  A    between atoms: C_20  and  C_24
REMARK    7  A    between atoms: C_22  and  C_25
REMARK    8  A    between atoms: C_24  and  C_26
REMARK    9  A    between atoms: C_27  and  C_28
REMARK                            x       y       z     vdW  Elec       q    Type
REMARK                         _______ _______ _______ _____ _____    ______ ____
ROOT
ATOM      1  O   UNL     1      -4.553  -9.478   8.664  0.00  0.00    -0.273 OA
ATOM      2  O   UNL     1      -9.687 -10.373   9.436  0.00  0.00    -0.270 OA
ATOM      7  N   UNL     1      -7.461 -10.263  10.001  0.00  0.00    -0.284 N 
ATOM      9  N   UNL     1      -6.343  -8.108   8.337  0.00  0.00    -0.283 N 
ATOM     10  C   UNL     1      -5.406 -10.510  11.145  0.00  0.00    +0.104 C 
ATOM     11  C   UNL     1      -6.270  -9.515  10.357  0.00  0.00    +0.183 C 
ATOM     12  C   UNL     1      -5.846 -11.871  10.602  0.00  0.00    +0.043 C 
ATOM     13  C   UNL     1      -7.328 -11.676  10.323  0.00  0.00    +0.111 C 
ATOM     14  C   UNL     1      -5.655  -9.076   9.041  0.00  0.00    +0.240 C 
ATOM     15  C   UNL     1      -8.653  -9.721   9.571  0.00  0.00    +0.249 C 
ATOM     16  C   UNL     1      -8.681  -8.274   9.229  0.00  0.00    +0.059 A 
ATOM     17  C   UNL     1      -7.634  -7.592   8.585  0.00  0.00    +0.046 A 
ATOM     19  C   UNL     1      -9.912  -7.621   9.427  0.00  0.00    +0.022 A 
ATOM     21  C   UNL     1      -7.870  -6.296   8.095  0.00  0.00    +0.024 A 
ATOM     22  C   UNL     1     -10.110  -6.318   8.977  0.00  0.00    -0.024 A 
ATOM     23  C   UNL     1      -9.094  -5.658   8.299  0.00  0.00    +0.010 A 
ATOM     36  H   UNL     1      -5.818  -7.654   7.595  0.00  0.00    +0.155 HD
ENDROOT
BRANCH  10   8
ATOM      3  O   UNL     1      -3.476 -10.712  13.290  0.00  0.00    -0.276 OA
ATOM      8  N   UNL     1      -5.661 -10.405  12.563  0.00  0.00    -0.310 N 
ATOM     18  C   UNL     1      -4.665 -10.516  13.522  0.00  0.00    +0.214 C 
ATOM     35  H   UNL     1      -6.625 -10.299  12.869  0.00  0.00    +0.149 HD
BRANCH  18  20
ATOM     20  C   UNL     1      -5.223 -10.367  14.926  0.00  0.00    +0.107 C 
BRANCH  20  24
ATOM     24  C   UNL     1      -5.057 -11.635  15.758  0.00  0.00    +0.129 C 
BRANCH  24  26
ATOM      5  O   UNL     1      -4.177 -11.360  18.011  0.00  0.00    -0.251 OA
ATOM     26  C   UNL     1      -3.983 -11.485  16.809  0.00  0.00    +0.305 C 
BRANCH  26   4
ATOM      4  O   UNL     1      -2.742 -11.505  16.256  0.00  0.00    -0.481 OA
ATOM     37  H   UNL     1      -2.054 -11.211  16.891  0.00  0.00    +0.295 HD
ENDBRANCH  26   4
ENDBRANCH  24  26
ENDBRANCH  20  24
ENDBRANCH  18  20
ENDBRANCH  10   8
BRANCH  22  25
ATOM     25  C   UNL     1     -11.389  -5.658   9.193  0.00  0.00    +0.008 C 
ATOM     27  C   UNL     1     -11.580  -4.554   9.952  0.00  0.00    +0.008 C 
BRANCH  27  28
ATOM     28  C   UNL     1     -12.871  -3.875  10.154  0.00  0.00    -0.025 A 
ATOM     29  C   UNL     1     -13.381  -3.755  11.437  0.00  0.00    +0.011 A 
ATOM     30  C   UNL     1     -13.551  -3.369   9.058  0.00  0.00    +0.011 A 
ATOM     31  C   UNL     1     -14.604  -3.112  11.629  0.00  0.00    +0.046 A 
ATOM     32  C   UNL     1     -14.775  -2.727   9.250  0.00  0.00    +0.046 A 
ATOM     33  C   UNL     1     -15.301  -2.597  10.535  0.00  0.00    +0.120 A 
BRANCH  33   6
ATOM      6  O   UNL     1     -16.494  -1.971  10.722  0.00  0.00    -0.495 OA
ATOM     34  C   UNL     1     -16.543  -0.571  10.453  0.00  0.00    +0.277 C 
ENDBRANCH  33   6
ENDBRANCH  27  28
ENDBRANCH  22  25
TORSDOF 8
ENDMDL
