MODEL 1
REMARK VINA RESULT:      -7.3      0.000      0.000
REMARK  Name = 11887581
REMARK  11 active torsions:
REMARK  status: ('A' for Active; 'I' for Inactive)
REMARK    1  A    between atoms: O_4  and  C_21
REMARK    2  A    between atoms: O_4  and  C_31
REMARK    3  A    between atoms: O_6  and  C_30
REMARK    4  A    between atoms: O_6  and  C_35
REMARK    5  A    between atoms: N_9  and  C_18
REMARK    6  A    between atoms: N_10  and  C_23
REMARK    7  A    between atoms: C_11  and  C_15
REMARK    8  A    between atoms: C_16  and  C_20
REMARK    9  A    between atoms: C_18  and  C_19
REMARK   10  A    between atoms: C_18  and  C_21
REMARK   11  A    between atoms: C_19  and  C_22
REMARK                            x       y       z     vdW  Elec       q    Type
REMARK                         _______ _______ _______ _____ _____    ______ ____
ROOT
ATOM      2  O   UNL     1      11.206  12.607  24.114  0.00  0.00    -0.276 OA
ATOM      3  O   UNL     1      17.279  10.931  20.375  0.00  0.00    -0.252 OA
ATOM      7  N   UNL     1      13.229  12.505  22.969  0.00  0.00    -0.287 N 
ATOM      8  N   UNL     1      15.510  11.045  21.862  0.00  0.00    -0.282 N 
ATOM     10  N   UNL     1      16.995   9.215  21.921  0.00  0.00    -0.269 N 
ATOM     11  C   UNL     1      13.288  11.045  23.045  0.00  0.00    +0.179 C 
ATOM     12  C   UNL     1      14.707  10.483  22.958  0.00  0.00    +0.141 C 
ATOM     13  C   UNL     1      14.365  13.190  22.343  0.00  0.00    +0.127 C 
ATOM     14  C   UNL     1      15.074  12.326  21.310  0.00  0.00    +0.128 C 
ATOM     16  C   UNL     1      12.165  13.173  23.585  0.00  0.00    +0.213 C 
ATOM     17  C   UNL     1      16.652  10.421  21.306  0.00  0.00    +0.307 C 
ATOM     20  C   UNL     1      12.226  14.681  23.574  0.00  0.00    +0.109 C 
ATOM     37  H   UNL     1      16.720   9.086  22.890  0.00  0.00    +0.156 HD
ENDROOT
BRANCH  10  23
ATOM     23  C   UNL     1      17.632   8.094  21.332  0.00  0.00    +0.035 A 
ATOM     26  C   UNL     1      18.907   7.716  21.753  0.00  0.00    +0.023 A 
ATOM     27  C   UNL     1      16.983   7.369  20.333  0.00  0.00    +0.023 A 
ATOM     32  C   UNL     1      19.534   6.612  21.173  0.00  0.00    +0.002 A 
ATOM     33  C   UNL     1      17.610   6.265  19.754  0.00  0.00    +0.002 A 
ATOM     34  C   UNL     1      18.884   5.887  20.174  0.00  0.00    +0.000 A 
ENDBRANCH  10  23
BRANCH  11  15
ATOM      1  O   UNL     1      11.632  11.201  21.328  0.00  0.00    -0.274 OA
ATOM      9  N   UNL     1      12.625   9.138  21.752  0.00  0.00    -0.301 N 
ATOM     15  C   UNL     1      12.425  10.495  21.945  0.00  0.00    +0.236 C 
ATOM     36  H   UNL     1      13.324   8.655  22.307  0.00  0.00    +0.150 HD
BRANCH   9  18
ATOM     18  C   UNL     1      11.901   8.365  20.769  0.00  0.00    +0.186 C 
BRANCH  18  21
ATOM      5  O   UNL     1      10.206   7.585  22.304  0.00  0.00    -0.249 OA
ATOM     21  C   UNL     1      10.997   7.317  21.406  0.00  0.00    +0.328 C 
BRANCH  21   4
ATOM      4  O   UNL     1      11.194   6.078  20.874  0.00  0.00    -0.467 OA
ATOM     31  C   UNL     1      10.820   4.977  21.710  0.00  0.00    +0.280 C 
ENDBRANCH  21   4
ENDBRANCH  18  21
BRANCH  18  19
ATOM     19  C   UNL     1      12.852   7.750  19.731  0.00  0.00    +0.069 C 
BRANCH  19  22
ATOM     22  C   UNL     1      13.156   8.639  18.547  0.00  0.00    -0.045 A 
ATOM     24  C   UNL     1      12.341   8.596  17.416  0.00  0.00    +0.007 A 
ATOM     25  C   UNL     1      14.251   9.501  18.586  0.00  0.00    +0.007 A 
ATOM     28  C   UNL     1      12.622   9.417  16.323  0.00  0.00    +0.046 A 
ATOM     29  C   UNL     1      14.532  10.321  17.494  0.00  0.00    +0.046 A 
ATOM     30  C   UNL     1      13.717  10.279  16.362  0.00  0.00    +0.120 A 
BRANCH  30   6
ATOM      6  O   UNL     1      13.991  11.080  15.296  0.00  0.00    -0.495 OA
ATOM     35  C   UNL     1      15.281  10.951  14.701  0.00  0.00    +0.277 C 
ENDBRANCH  30   6
ENDBRANCH  19  22
ENDBRANCH  18  19
ENDBRANCH   9  18
ENDBRANCH  11  15
TORSDOF 8
ENDMDL
MODEL 2
REMARK VINA RESULT:      -6.6     27.451     29.857
REMARK  Name = 11887581
REMARK  11 active torsions:
REMARK  status: ('A' for Active; 'I' for Inactive)
REMARK    1  A    between atoms: O_4  and  C_21
REMARK    2  A    between atoms: O_4  and  C_31
REMARK    3  A    between atoms: O_6  and  C_30
REMARK    4  A    between atoms: O_6  and  C_35
REMARK    5  A    between atoms: N_9  and  C_18
REMARK    6  A    between atoms: N_10  and  C_23
REMARK    7  A    between atoms: C_11  and  C_15
REMARK    8  A    between atoms: C_16  and  C_20
REMARK    9  A    between atoms: C_18  and  C_19
REMARK   10  A    between atoms: C_18  and  C_21
REMARK   11  A    between atoms: C_19  and  C_22
REMARK                            x       y       z     vdW  Elec       q    Type
REMARK                         _______ _______ _______ _____ _____    ______ ____
ROOT
ATOM      2  O   UNL     1     -10.797  -9.202  18.192  0.00  0.00    -0.276 OA
ATOM      3  O   UNL     1      -8.141 -10.841  11.565  0.00  0.00    -0.252 OA
ATOM      7  N   UNL     1     -10.379  -9.751  15.970  0.00  0.00    -0.287 N 
ATOM      8  N   UNL     1      -8.641  -9.908  13.622  0.00  0.00    -0.282 N 
ATOM     10  N   UNL     1      -6.832  -9.086  12.353  0.00  0.00    -0.269 N 
ATOM     11  C   UNL     1      -8.975  -9.351  16.054  0.00  0.00    +0.179 C 
ATOM     12  C   UNL     1      -8.368  -8.955  14.708  0.00  0.00    +0.141 C 
ATOM     13  C   UNL     1     -10.871 -10.202  14.664  0.00  0.00    +0.127 C 
ATOM     14  C   UNL     1      -9.774 -10.814  13.803  0.00  0.00    +0.128 C 
ATOM     16  C   UNL     1     -11.201  -9.581  17.090  0.00  0.00    +0.213 C 
ATOM     17  C   UNL     1      -7.875 -10.011  12.437  0.00  0.00    +0.307 C 
ATOM     20  C   UNL     1     -12.664  -9.899  16.901  0.00  0.00    +0.109 C 
ATOM     37  H   UNL     1      -6.937  -8.212  12.862  0.00  0.00    +0.156 HD
ENDROOT
BRANCH  10  23
ATOM     23  C   UNL     1      -5.589  -9.241  11.691  0.00  0.00    +0.035 A 
ATOM     26  C   UNL     1      -5.348  -8.566  10.494  0.00  0.00    +0.023 A 
ATOM     27  C   UNL     1      -4.606 -10.066  12.237  0.00  0.00    +0.023 A 
ATOM     32  C   UNL     1      -4.124  -8.718   9.842  0.00  0.00    +0.002 A 
ATOM     33  C   UNL     1      -3.382 -10.218  11.585  0.00  0.00    +0.002 A 
ATOM     34  C   UNL     1      -3.141  -9.544  10.389  0.00  0.00    +0.000 A 
ENDBRANCH  10  23
BRANCH  11  15
ATOM      1  O   UNL     1      -8.688 -11.617  16.760  0.00  0.00    -0.274 OA
ATOM      9  N   UNL     1      -6.965 -10.095  17.128  0.00  0.00    -0.301 N 
ATOM     15  C   UNL     1      -8.212 -10.488  16.672  0.00  0.00    +0.236 C 
ATOM     36  H   UNL     1      -6.662  -9.137  16.985  0.00  0.00    +0.150 HD
BRANCH   9  18
ATOM     18  C   UNL     1      -6.044 -10.996  17.783  0.00  0.00    +0.186 C 
BRANCH  18  21
ATOM      5  O   UNL     1      -6.421 -10.423  20.100  0.00  0.00    -0.249 OA
ATOM     21  C   UNL     1      -6.440 -11.283  19.226  0.00  0.00    +0.328 C 
BRANCH  21   4
ATOM      4  O   UNL     1      -6.790 -12.586  19.413  0.00  0.00    -0.467 OA
ATOM     31  C   UNL     1      -8.119 -12.809  19.896  0.00  0.00    +0.280 C 
ENDBRANCH  21   4
ENDBRANCH  18  21
BRANCH  18  19
ATOM     19  C   UNL     1      -4.597 -10.492  17.674  0.00  0.00    +0.069 C 
BRANCH  19  22
ATOM     22  C   UNL     1      -3.790 -11.122  16.562  0.00  0.00    -0.045 A 
ATOM     24  C   UNL     1      -2.516 -10.638  16.263  0.00  0.00    +0.007 A 
ATOM     25  C   UNL     1      -4.321 -12.186  15.833  0.00  0.00    +0.007 A 
ATOM     28  C   UNL     1      -1.773 -11.220  15.236  0.00  0.00    +0.046 A 
ATOM     29  C   UNL     1      -3.578 -12.767  14.806  0.00  0.00    +0.046 A 
ATOM     30  C   UNL     1      -2.303 -12.284  14.508  0.00  0.00    +0.120 A 
BRANCH  30   6
ATOM      6  O   UNL     1      -1.577 -12.851  13.506  0.00  0.00    -0.495 OA
ATOM     35  C   UNL     1      -1.494 -14.275  13.490  0.00  0.00    +0.277 C 
ENDBRANCH  30   6
ENDBRANCH  19  22
ENDBRANCH  18  19
ENDBRANCH   9  18
ENDBRANCH  11  15
TORSDOF 8
ENDMDL
MODEL 3
REMARK VINA RESULT:      -6.3      2.090      3.781
REMARK  Name = 11887581
REMARK  11 active torsions:
REMARK  status: ('A' for Active; 'I' for Inactive)
REMARK    1  A    between atoms: O_4  and  C_21
REMARK    2  A    between atoms: O_4  and  C_31
REMARK    3  A    between atoms: O_6  and  C_30
REMARK    4  A    between atoms: O_6  and  C_35
REMARK    5  A    between atoms: N_9  and  C_18
REMARK    6  A    between atoms: N_10  and  C_23
REMARK    7  A    between atoms: C_11  and  C_15
REMARK    8  A    between atoms: C_16  and  C_20
REMARK    9  A    between atoms: C_18  and  C_19
REMARK   10  A    between atoms: C_18  and  C_21
REMARK   11  A    between atoms: C_19  and  C_22
REMARK                            x       y       z     vdW  Elec       q    Type
REMARK                         _______ _______ _______ _____ _____    ______ ____
ROOT
ATOM      2  O   UNL     1      10.506  10.961  24.107  0.00  0.00    -0.276 OA
ATOM      3  O   UNL     1      17.075  13.715  22.398  0.00  0.00    -0.252 OA
ATOM      7  N   UNL     1      12.458  12.188  23.796  0.00  0.00    -0.287 N 
ATOM      8  N   UNL     1      15.289  12.420  23.094  0.00  0.00    -0.282 N 
ATOM     10  N   UNL     1      17.452  11.491  22.971  0.00  0.00    -0.269 N 
ATOM     11  C   UNL     1      13.208  11.022  23.329  0.00  0.00    +0.179 C 
ATOM     12  C   UNL     1      14.718  11.140  23.538  0.00  0.00    +0.141 C 
ATOM     13  C   UNL     1      13.191  13.452  23.918  0.00  0.00    +0.127 C 
ATOM     14  C   UNL     1      14.366  13.545  22.954  0.00  0.00    +0.128 C 
ATOM     16  C   UNL     1      11.131  12.020  24.205  0.00  0.00    +0.213 C 
ATOM     17  C   UNL     1      16.654  12.622  22.782  0.00  0.00    +0.307 C 
ATOM     20  C   UNL     1      10.451  13.234  24.789  0.00  0.00    +0.109 C 
ATOM     37  H   UNL     1      17.144  10.808  23.656  0.00  0.00    +0.156 HD
ENDROOT
BRANCH  10  23
ATOM     23  C   UNL     1      18.628  11.134  22.264  0.00  0.00    +0.035 A 
ATOM     26  C   UNL     1      18.805  11.555  20.946  0.00  0.00    +0.023 A 
ATOM     27  C   UNL     1      19.607  10.362  22.887  0.00  0.00    +0.023 A 
ATOM     32  C   UNL     1      19.962  11.204  20.252  0.00  0.00    +0.002 A 
ATOM     33  C   UNL     1      20.765  10.011  22.192  0.00  0.00    +0.002 A 
ATOM     34  C   UNL     1      20.942  10.432  20.875  0.00  0.00    +0.000 A 
ENDBRANCH  10  23
BRANCH  11  15
ATOM      1  O   UNL     1      12.382  11.713  21.195  0.00  0.00    -0.274 OA
ATOM      9  N   UNL     1      13.192   9.544  21.442  0.00  0.00    -0.301 N 
ATOM     15  C   UNL     1      12.883  10.822  21.876  0.00  0.00    +0.236 C 
ATOM     36  H   UNL     1      13.625   8.890  22.087  0.00  0.00    +0.150 HD
BRANCH   9  18
ATOM     18  C   UNL     1      12.955   9.090  20.090  0.00  0.00    +0.186 C 
BRANCH  18  21
ATOM      5  O   UNL     1      11.996   7.151  19.011  0.00  0.00    -0.249 OA
ATOM     21  C   UNL     1      12.411   7.667  20.044  0.00  0.00    +0.328 C 
BRANCH  21   4
ATOM      4  O   UNL     1      12.431   7.070  21.268  0.00  0.00    -0.467 OA
ATOM     31  C   UNL     1      11.222   6.410  21.656  0.00  0.00    +0.280 C 
ENDBRANCH  21   4
ENDBRANCH  18  21
BRANCH  18  19
ATOM     19  C   UNL     1      14.208   9.255  19.217  0.00  0.00    +0.069 C 
BRANCH  19  22
ATOM     22  C   UNL     1      15.364   8.357  19.594  0.00  0.00    -0.045 A 
ATOM     24  C   UNL     1      15.478   7.090  19.021  0.00  0.00    +0.007 A 
ATOM     25  C   UNL     1      16.314   8.794  20.516  0.00  0.00    +0.007 A 
ATOM     28  C   UNL     1      16.544   6.261  19.369  0.00  0.00    +0.046 A 
ATOM     29  C   UNL     1      17.380   7.965  20.865  0.00  0.00    +0.046 A 
ATOM     30  C   UNL     1      17.496   6.698  20.291  0.00  0.00    +0.120 A 
BRANCH  30   6
ATOM      6  O   UNL     1      18.536   5.889  20.630  0.00  0.00    -0.495 OA
ATOM     35  C   UNL     1      19.618   6.487  21.343  0.00  0.00    +0.277 C 
ENDBRANCH  30   6
ENDBRANCH  19  22
ENDBRANCH  18  19
ENDBRANCH   9  18
ENDBRANCH  11  15
TORSDOF 8
ENDMDL
MODEL 4
REMARK VINA RESULT:      -6.2     13.238     16.626
REMARK  Name = 11887581
REMARK  11 active torsions:
REMARK  status: ('A' for Active; 'I' for Inactive)
REMARK    1  A    between atoms: O_4  and  C_21
REMARK    2  A    between atoms: O_4  and  C_31
REMARK    3  A    between atoms: O_6  and  C_30
REMARK    4  A    between atoms: O_6  and  C_35
REMARK    5  A    between atoms: N_9  and  C_18
REMARK    6  A    between atoms: N_10  and  C_23
REMARK    7  A    between atoms: C_11  and  C_15
REMARK    8  A    between atoms: C_16  and  C_20
REMARK    9  A    between atoms: C_18  and  C_19
REMARK   10  A    between atoms: C_18  and  C_21
REMARK   11  A    between atoms: C_19  and  C_22
REMARK                            x       y       z     vdW  Elec       q    Type
REMARK                         _______ _______ _______ _____ _____    ______ ____
ROOT
ATOM      2  O   UNL     1      12.055  10.756   8.815  0.00  0.00    -0.276 OA
ATOM      3  O   UNL     1      12.545   8.329   1.920  0.00  0.00    -0.252 OA
ATOM      7  N   UNL     1      12.318  10.404   6.530  0.00  0.00    -0.287 N 
ATOM      8  N   UNL     1      12.707   8.675   4.202  0.00  0.00    -0.282 N 
ATOM     10  N   UNL     1      13.552   6.696   3.238  0.00  0.00    -0.269 N 
ATOM     11  C   UNL     1      12.352   8.949   6.679  0.00  0.00    +0.179 C 
ATOM     12  C   UNL     1      13.094   8.234   5.550  0.00  0.00    +0.141 C 
ATOM     13  C   UNL     1      12.512  10.944   5.180  0.00  0.00    +0.127 C 
ATOM     14  C   UNL     1      12.059   9.981   4.092  0.00  0.00    +0.128 C 
ATOM     16  C   UNL     1      12.217  11.201   7.676  0.00  0.00    +0.213 C 
ATOM     17  C   UNL     1      12.905   7.916   3.024  0.00  0.00    +0.307 C 
ATOM     20  C   UNL     1      12.308  12.692   7.464  0.00  0.00    +0.109 C 
ATOM     37  H   UNL     1      14.167   6.625   4.043  0.00  0.00    +0.156 HD
ENDROOT
BRANCH  10  23
ATOM     23  C   UNL     1      13.404   5.497   2.497  0.00  0.00    +0.035 A 
ATOM     26  C   UNL     1      14.499   4.954   1.825  0.00  0.00    +0.023 A 
ATOM     27  C   UNL     1      12.165   4.862   2.440  0.00  0.00    +0.023 A 
ATOM     32  C   UNL     1      14.354   3.773   1.097  0.00  0.00    +0.002 A 
ATOM     33  C   UNL     1      12.020   3.681   1.711  0.00  0.00    +0.002 A 
ATOM     34  C   UNL     1      13.114   3.137   1.040  0.00  0.00    +0.000 A 
ENDBRANCH  10  23
BRANCH  11  15
ATOM      1  O   UNL     1       9.996   9.239   6.961  0.00  0.00    -0.274 OA
ATOM      9  N   UNL     1      10.840   7.090   6.665  0.00  0.00    -0.301 N 
ATOM     15  C   UNL     1      10.934   8.466   6.779  0.00  0.00    +0.236 C 
ATOM     36  H   UNL     1      11.681   6.546   6.494  0.00  0.00    +0.150 HD
BRANCH   9  18
ATOM     18  C   UNL     1       9.587   6.373   6.748  0.00  0.00    +0.186 C 
BRANCH  18  21
ATOM      5  O   UNL     1       9.925   4.107   7.518  0.00  0.00    -0.249 OA
ATOM     21  C   UNL     1       9.623   5.264   7.792  0.00  0.00    +0.328 C 
BRANCH  21   4
ATOM      4  O   UNL     1       9.268   5.711   9.029  0.00  0.00    -0.467 OA
ATOM     31  C   UNL     1       9.067   4.700  10.021  0.00  0.00    +0.280 C 
ENDBRANCH  21   4
ENDBRANCH  18  21
BRANCH  18  19
ATOM     19  C   UNL     1       9.148   5.853   5.371  0.00  0.00    +0.069 C 
BRANCH  19  22
ATOM     22  C   UNL     1       8.788   6.930   4.374  0.00  0.00    -0.045 A 
ATOM     24  C   UNL     1       9.406   6.958   3.124  0.00  0.00    +0.007 A 
ATOM     25  C   UNL     1       7.840   7.897   4.705  0.00  0.00    +0.007 A 
ATOM     28  C   UNL     1       9.074   7.953   2.204  0.00  0.00    +0.046 A 
ATOM     29  C   UNL     1       7.508   8.892   3.786  0.00  0.00    +0.046 A 
ATOM     30  C   UNL     1       8.125   8.920   2.535  0.00  0.00    +0.120 A 
BRANCH  30   6
ATOM      6  O   UNL     1       7.801   9.890   1.637  0.00  0.00    -0.495 OA
ATOM     35  C   UNL     1       7.850   9.540   0.255  0.00  0.00    +0.277 C 
ENDBRANCH  30   6
ENDBRANCH  19  22
ENDBRANCH  18  19
ENDBRANCH   9  18
ENDBRANCH  11  15
TORSDOF 8
ENDMDL
MODEL 5
REMARK VINA RESULT:      -6.0      2.233      6.790
REMARK  Name = 11887581
REMARK  11 active torsions:
REMARK  status: ('A' for Active; 'I' for Inactive)
REMARK    1  A    between atoms: O_4  and  C_21
REMARK    2  A    between atoms: O_4  and  C_31
REMARK    3  A    between atoms: O_6  and  C_30
REMARK    4  A    between atoms: O_6  and  C_35
REMARK    5  A    between atoms: N_9  and  C_18
REMARK    6  A    between atoms: N_10  and  C_23
REMARK    7  A    between atoms: C_11  and  C_15
REMARK    8  A    between atoms: C_16  and  C_20
REMARK    9  A    between atoms: C_18  and  C_19
REMARK   10  A    between atoms: C_18  and  C_21
REMARK   11  A    between atoms: C_19  and  C_22
REMARK                            x       y       z     vdW  Elec       q    Type
REMARK                         _______ _______ _______ _____ _____    ______ ____
ROOT
ATOM      2  O   UNL     1      10.861   7.730  22.607  0.00  0.00    -0.276 OA
ATOM      3  O   UNL     1      14.526   8.394  16.299  0.00  0.00    -0.252 OA
ATOM      7  N   UNL     1      11.883   7.529  20.526  0.00  0.00    -0.287 N 
ATOM      8  N   UNL     1      13.154   8.655  18.144  0.00  0.00    -0.282 N 
ATOM     10  N   UNL     1      13.419  10.419  16.602  0.00  0.00    -0.269 N 
ATOM     11  C   UNL     1      12.130   8.967  20.422  0.00  0.00    +0.179 C 
ATOM     12  C   UNL     1      12.258   9.465  18.982  0.00  0.00    +0.141 C 
ATOM     13  C   UNL     1      12.275   6.697  19.384  0.00  0.00    +0.127 C 
ATOM     14  C   UNL     1      13.432   7.292  18.594  0.00  0.00    +0.128 C 
ATOM     16  C   UNL     1      11.195   7.039  21.642  0.00  0.00    +0.213 C 
ATOM     17  C   UNL     1      13.769   9.114  16.954  0.00  0.00    +0.307 C 
ATOM     20  C   UNL     1      10.868   5.566  21.632  0.00  0.00    +0.109 C 
ATOM     37  H   UNL     1      12.519  10.767  16.921  0.00  0.00    +0.156 HD
ENDROOT
BRANCH  10  23
ATOM     23  C   UNL     1      14.205  11.366  15.899  0.00  0.00    +0.035 A 
ATOM     26  C   UNL     1      15.366  11.877  16.479  0.00  0.00    +0.023 A 
ATOM     27  C   UNL     1      13.817  11.785  14.627  0.00  0.00    +0.023 A 
ATOM     32  C   UNL     1      16.140  12.808  15.786  0.00  0.00    +0.002 A 
ATOM     33  C   UNL     1      14.591  12.717  13.934  0.00  0.00    +0.002 A 
ATOM     34  C   UNL     1      15.752  13.227  14.513  0.00  0.00    +0.000 A 
ENDBRANCH  10  23
BRANCH  11  15
ATOM      1  O   UNL     1      13.786   8.526  22.088  0.00  0.00    -0.274 OA
ATOM      9  N   UNL     1      13.942  10.481  20.835  0.00  0.00    -0.301 N 
ATOM     15  C   UNL     1      13.372   9.277  21.209  0.00  0.00    +0.236 C 
ATOM     36  H   UNL     1      13.526  11.014  20.076  0.00  0.00    +0.150 HD
BRANCH   9  18
ATOM     18  C   UNL     1      15.132  11.018  21.454  0.00  0.00    +0.186 C 
BRANCH  18  21
ATOM      5  O   UNL     1      15.305  13.407  21.129  0.00  0.00    -0.249 OA
ATOM     21  C   UNL     1      14.968  12.479  21.857  0.00  0.00    +0.328 C 
BRANCH  21   4
ATOM      4  O   UNL     1      14.429  12.611  23.101  0.00  0.00    -0.467 OA
ATOM     31  C   UNL     1      14.869  11.657  24.073  0.00  0.00    +0.280 C 
ENDBRANCH  21   4
ENDBRANCH  18  21
BRANCH  18  19
ATOM     19  C   UNL     1      16.369  10.802  20.569  0.00  0.00    +0.069 C 
BRANCH  19  22
ATOM     22  C   UNL     1      17.216   9.608  20.949  0.00  0.00    -0.045 A 
ATOM     24  C   UNL     1      16.877   8.337  20.485  0.00  0.00    +0.007 A 
ATOM     25  C   UNL     1      18.335   9.778  21.763  0.00  0.00    +0.007 A 
ATOM     28  C   UNL     1      17.658   7.236  20.835  0.00  0.00    +0.046 A 
ATOM     29  C   UNL     1      19.116   8.677  22.114  0.00  0.00    +0.046 A 
ATOM     30  C   UNL     1      18.777   7.406  21.649  0.00  0.00    +0.120 A 
BRANCH  30   6
ATOM      6  O   UNL     1      19.540   6.331  21.991  0.00  0.00    -0.495 OA
ATOM     35  C   UNL     1      20.589   6.552  22.931  0.00  0.00    +0.277 C 
ENDBRANCH  30   6
ENDBRANCH  19  22
ENDBRANCH  18  19
ENDBRANCH   9  18
ENDBRANCH  11  15
TORSDOF 8
ENDMDL
MODEL 6
REMARK VINA RESULT:      -6.0     28.010     29.853
REMARK  Name = 11887581
REMARK  11 active torsions:
REMARK  status: ('A' for Active; 'I' for Inactive)
REMARK    1  A    between atoms: O_4  and  C_21
REMARK    2  A    between atoms: O_4  and  C_31
REMARK    3  A    between atoms: O_6  and  C_30
REMARK    4  A    between atoms: O_6  and  C_35
REMARK    5  A    between atoms: N_9  and  C_18
REMARK    6  A    between atoms: N_10  and  C_23
REMARK    7  A    between atoms: C_11  and  C_15
REMARK    8  A    between atoms: C_16  and  C_20
REMARK    9  A    between atoms: C_18  and  C_19
REMARK   10  A    between atoms: C_18  and  C_21
REMARK   11  A    between atoms: C_19  and  C_22
REMARK                            x       y       z     vdW  Elec       q    Type
REMARK                         _______ _______ _______ _____ _____    ______ ____
ROOT
ATOM      2  O   UNL     1      -3.056 -11.145  17.390  0.00  0.00    -0.276 OA
ATOM      3  O   UNL     1     -10.306 -10.101  17.250  0.00  0.00    -0.252 OA
ATOM      7  N   UNL     1      -5.351 -11.001  17.746  0.00  0.00    -0.287 N 
ATOM      8  N   UNL     1      -8.002  -9.911  17.158  0.00  0.00    -0.282 N 
ATOM     10  N   UNL     1      -9.370  -8.147  16.400  0.00  0.00    -0.269 N 
ATOM     11  C   UNL     1      -5.540 -10.054  16.648  0.00  0.00    +0.179 C 
ATOM     12  C   UNL     1      -6.780  -9.173  16.804  0.00  0.00    +0.141 C 
ATOM     13  C   UNL     1      -6.533 -11.351  18.541  0.00  0.00    +0.127 C 
ATOM     14  C   UNL     1      -7.828 -11.237  17.749  0.00  0.00    +0.128 C 
ATOM     16  C   UNL     1      -4.056 -11.434  18.052  0.00  0.00    +0.213 C 
ATOM     17  C   UNL     1      -9.316  -9.430  16.948  0.00  0.00    +0.307 C 
ATOM     20  C   UNL     1      -3.915 -12.314  19.269  0.00  0.00    +0.109 C 
ATOM     37  H   UNL     1      -8.583  -7.528  16.575  0.00  0.00    +0.156 HD
ENDROOT
BRANCH  10  23
ATOM     23  C   UNL     1     -10.372  -7.608  15.555  0.00  0.00    +0.035 A 
ATOM     26  C   UNL     1     -10.883  -8.371  14.505  0.00  0.00    +0.023 A 
ATOM     27  C   UNL     1     -10.847  -6.316  15.775  0.00  0.00    +0.023 A 
ATOM     32  C   UNL     1     -11.870  -7.840  13.674  0.00  0.00    +0.002 A 
ATOM     33  C   UNL     1     -11.834  -5.785  14.944  0.00  0.00    +0.002 A 
ATOM     34  C   UNL     1     -12.345  -6.547  13.894  0.00  0.00    +0.000 A 
ENDBRANCH  10  23
BRANCH  11  15
ATOM      1  O   UNL     1      -6.616 -11.440  15.024  0.00  0.00    -0.274 OA
ATOM      9  N   UNL     1      -4.399 -10.816  14.682  0.00  0.00    -0.301 N 
ATOM     15  C   UNL     1      -5.601 -10.841  15.370  0.00  0.00    +0.236 C 
ATOM     36  H   UNL     1      -3.627 -10.269  15.050  0.00  0.00    +0.150 HD
BRANCH   9  18
ATOM     18  C   UNL     1      -4.189 -11.514  13.434  0.00  0.00    +0.186 C 
BRANCH  18  21
ATOM      5  O   UNL     1      -4.015 -13.787  14.238  0.00  0.00    -0.249 OA
ATOM     21  C   UNL     1      -3.495 -12.856  13.630  0.00  0.00    +0.328 C 
BRANCH  21   4
ATOM      4  O   UNL     1      -2.251 -12.878  13.074  0.00  0.00    -0.467 OA
ATOM     31  C   UNL     1      -1.358 -13.871  13.589  0.00  0.00    +0.280 C 
ENDBRANCH  21   4
ENDBRANCH  18  21
BRANCH  18  19
ATOM     19  C   UNL     1      -3.452 -10.630  12.417  0.00  0.00    +0.069 C 
BRANCH  19  22
ATOM     22  C   UNL     1      -4.354  -9.880  11.463  0.00  0.00    -0.045 A 
ATOM     24  C   UNL     1      -3.829  -9.335  10.291  0.00  0.00    +0.007 A 
ATOM     25  C   UNL     1      -5.709  -9.732  11.755  0.00  0.00    +0.007 A 
ATOM     28  C   UNL     1      -4.661  -8.642   9.411  0.00  0.00    +0.046 A 
ATOM     29  C   UNL     1      -6.541  -9.039  10.875  0.00  0.00    +0.046 A 
ATOM     30  C   UNL     1      -6.016  -8.495   9.703  0.00  0.00    +0.120 A 
BRANCH  30   6
ATOM      6  O   UNL     1      -6.828  -7.819   8.844  0.00  0.00    -0.495 OA
ATOM     35  C   UNL     1      -8.230  -8.057   8.952  0.00  0.00    +0.277 C 
ENDBRANCH  30   6
ENDBRANCH  19  22
ENDBRANCH  18  19
ENDBRANCH   9  18
ENDBRANCH  11  15
TORSDOF 8
ENDMDL
MODEL 7
REMARK VINA RESULT:      -5.8     20.834     25.341
REMARK  Name = 11887581
REMARK  11 active torsions:
REMARK  status: ('A' for Active; 'I' for Inactive)
REMARK    1  A    between atoms: O_4  and  C_21
REMARK    2  A    between atoms: O_4  and  C_31
REMARK    3  A    between atoms: O_6  and  C_30
REMARK    4  A    between atoms: O_6  and  C_35
REMARK    5  A    between atoms: N_9  and  C_18
REMARK    6  A    between atoms: N_10  and  C_23
REMARK    7  A    between atoms: C_11  and  C_15
REMARK    8  A    between atoms: C_16  and  C_20
REMARK    9  A    between atoms: C_18  and  C_19
REMARK   10  A    between atoms: C_18  and  C_21
REMARK   11  A    between atoms: C_19  and  C_22
REMARK                            x       y       z     vdW  Elec       q    Type
REMARK                         _______ _______ _______ _____ _____    ______ ____
ROOT
ATOM      2  O   UNL     1       6.153  -5.532  38.760  0.00  0.00    -0.276 OA
ATOM      3  O   UNL     1       5.997 -12.540  36.631  0.00  0.00    -0.252 OA
ATOM      7  N   UNL     1       6.142  -7.846  38.516  0.00  0.00    -0.287 N 
ATOM      8  N   UNL     1       5.605 -10.290  36.999  0.00  0.00    -0.282 N 
ATOM     10  N   UNL     1       4.358 -11.462  35.378  0.00  0.00    -0.269 N 
ATOM     11  C   UNL     1       5.649  -7.776  37.141  0.00  0.00    +0.179 C 
ATOM     12  C   UNL     1       4.904  -9.034  36.692  0.00  0.00    +0.141 C 
ATOM     13  C   UNL     1       6.326  -9.181  39.095  0.00  0.00    +0.127 C 
ATOM     14  C   UNL     1       6.626 -10.241  38.044  0.00  0.00    +0.128 C 
ATOM     16  C   UNL     1       6.305  -6.659  39.238  0.00  0.00    +0.213 C 
ATOM     17  C   UNL     1       5.366 -11.520  36.342  0.00  0.00    +0.307 C 
ATOM     20  C   UNL     1       6.702  -6.806  40.687  0.00  0.00    +0.109 C 
ATOM     37  H   UNL     1       3.636 -10.757  35.495  0.00  0.00    +0.156 HD
ENDROOT
BRANCH  10  23
ATOM     23  C   UNL     1       4.246 -12.234  34.195  0.00  0.00    +0.035 A 
ATOM     26  C   UNL     1       5.323 -12.317  33.313  0.00  0.00    +0.023 A 
ATOM     27  C   UNL     1       3.060 -12.911  33.913  0.00  0.00    +0.023 A 
ATOM     32  C   UNL     1       5.214 -13.077  32.148  0.00  0.00    +0.002 A 
ATOM     33  C   UNL     1       2.950 -13.671  32.749  0.00  0.00    +0.002 A 
ATOM     34  C   UNL     1       4.027 -13.755  31.867  0.00  0.00    +0.000 A 
ENDBRANCH  10  23
BRANCH  11  15
ATOM      1  O   UNL     1       7.969  -7.431  36.684  0.00  0.00    -0.274 OA
ATOM      9  N   UNL     1       6.446  -7.324  34.926  0.00  0.00    -0.301 N 
ATOM     15  C   UNL     1       6.823  -7.501  36.246  0.00  0.00    +0.236 C 
ATOM     36  H   UNL     1       5.469  -7.426  34.670  0.00  0.00    +0.150 HD
BRANCH   9  18
ATOM     18  C   UNL     1       7.386  -7.025  33.869  0.00  0.00    +0.186 C 
BRANCH  18  21
ATOM      5  O   UNL     1       7.242  -4.615  33.754  0.00  0.00    -0.249 OA
ATOM     21  C   UNL     1       7.933  -5.607  33.964  0.00  0.00    +0.328 C 
BRANCH  21   4
ATOM      4  O   UNL     1       9.257  -5.588  34.286  0.00  0.00    -0.467 OA
ATOM     31  C   UNL     1      10.044  -4.596  33.619  0.00  0.00    +0.280 C 
ENDBRANCH  21   4
ENDBRANCH  18  21
BRANCH  18  19
ATOM     19  C   UNL     1       6.783  -7.317  32.486  0.00  0.00    +0.069 C 
BRANCH  19  22
ATOM     22  C   UNL     1       7.211  -8.632  31.876  0.00  0.00    -0.045 A 
ATOM     24  C   UNL     1       8.311  -9.316  32.393  0.00  0.00    +0.007 A 
ATOM     25  C   UNL     1       6.506  -9.160  30.795  0.00  0.00    +0.007 A 
ATOM     28  C   UNL     1       8.705 -10.529  31.829  0.00  0.00    +0.046 A 
ATOM     29  C   UNL     1       6.900 -10.374  30.231  0.00  0.00    +0.046 A 
ATOM     30  C   UNL     1       8.000 -11.058  30.749  0.00  0.00    +0.120 A 
BRANCH  30   6
ATOM      6  O   UNL     1       8.385 -12.242  30.199  0.00  0.00    -0.495 OA
ATOM     35  C   UNL     1       7.568 -12.771  29.156  0.00  0.00    +0.277 C 
ENDBRANCH  30   6
ENDBRANCH  19  22
ENDBRANCH  18  19
ENDBRANCH   9  18
ENDBRANCH  11  15
TORSDOF 8
ENDMDL
MODEL 8
REMARK VINA RESULT:      -5.8      2.903      7.671
REMARK  Name = 11887581
REMARK  11 active torsions:
REMARK  status: ('A' for Active; 'I' for Inactive)
REMARK    1  A    between atoms: O_4  and  C_21
REMARK    2  A    between atoms: O_4  and  C_31
REMARK    3  A    between atoms: O_6  and  C_30
REMARK    4  A    between atoms: O_6  and  C_35
REMARK    5  A    between atoms: N_9  and  C_18
REMARK    6  A    between atoms: N_10  and  C_23
REMARK    7  A    between atoms: C_11  and  C_15
REMARK    8  A    between atoms: C_16  and  C_20
REMARK    9  A    between atoms: C_18  and  C_19
REMARK   10  A    between atoms: C_18  and  C_21
REMARK   11  A    between atoms: C_19  and  C_22
REMARK                            x       y       z     vdW  Elec       q    Type
REMARK                         _______ _______ _______ _____ _____    ______ ____
ROOT
ATOM      2  O   UNL     1      13.467   8.761  22.361  0.00  0.00    -0.276 OA
ATOM      3  O   UNL     1      12.316   9.237  15.142  0.00  0.00    -0.252 OA
ATOM      7  N   UNL     1      12.697   8.763  20.166  0.00  0.00    -0.287 N 
ATOM      8  N   UNL     1      12.855   9.591  17.364  0.00  0.00    -0.282 N 
ATOM     10  N   UNL     1      13.473  11.170  15.726  0.00  0.00    -0.269 N 
ATOM     11  C   UNL     1      13.808   9.589  19.694  0.00  0.00    +0.179 C 
ATOM     12  C   UNL     1      13.488  10.384  18.429  0.00  0.00    +0.141 C 
ATOM     13  C   UNL     1      11.669   8.399  19.185  0.00  0.00    +0.127 C 
ATOM     14  C   UNL     1      12.208   8.342  17.763  0.00  0.00    +0.128 C 
ATOM     16  C   UNL     1      12.608   8.460  21.529  0.00  0.00    +0.213 C 
ATOM     17  C   UNL     1      12.850   9.950  15.995  0.00  0.00    +0.307 C 
ATOM     20  C   UNL     1      11.377   7.708  21.969  0.00  0.00    +0.109 C 
ATOM     37  H   UNL     1      13.497  11.860  16.471  0.00  0.00    +0.156 HD
ENDROOT
BRANCH  10  23
ATOM     23  C   UNL     1      14.152  11.552  14.542  0.00  0.00    +0.035 A 
ATOM     26  C   UNL     1      13.479  12.270  13.553  0.00  0.00    +0.023 A 
ATOM     27  C   UNL     1      15.493  11.211  14.367  0.00  0.00    +0.023 A 
ATOM     32  C   UNL     1      14.148  12.647  12.389  0.00  0.00    +0.002 A 
ATOM     33  C   UNL     1      16.162  11.588  13.202  0.00  0.00    +0.002 A 
ATOM     34  C   UNL     1      15.489  12.306  12.213  0.00  0.00    +0.000 A 
ENDBRANCH  10  23
BRANCH  11  15
ATOM      1  O   UNL     1      15.043   7.909  18.525  0.00  0.00    -0.274 OA
ATOM      9  N   UNL     1      15.948   8.828  20.463  0.00  0.00    -0.301 N 
ATOM     15  C   UNL     1      14.988   8.685  19.475  0.00  0.00    +0.236 C 
ATOM     36  H   UNL     1      15.809   9.519  21.195  0.00  0.00    +0.150 HD
BRANCH   9  18
ATOM     18  C   UNL     1      17.170   8.057  20.495  0.00  0.00    +0.186 C 
BRANCH  18  21
ATOM      5  O   UNL     1      16.102   6.185  21.588  0.00  0.00    -0.249 OA
ATOM     21  C   UNL     1      16.915   6.578  20.758  0.00  0.00    +0.328 C 
BRANCH  21   4
ATOM      4  O   UNL     1      17.699   5.776  19.984  0.00  0.00    -0.467 OA
ATOM     31  C   UNL     1      17.292   5.640  18.619  0.00  0.00    +0.280 C 
ENDBRANCH  21   4
ENDBRANCH  18  21
BRANCH  18  19
ATOM     19  C   UNL     1      18.180   8.652  21.487  0.00  0.00    +0.069 C 
BRANCH  19  22
ATOM     22  C   UNL     1      19.473   7.878  21.613  0.00  0.00    -0.045 A 
ATOM     24  C   UNL     1      20.417   7.926  20.588  0.00  0.00    +0.007 A 
ATOM     25  C   UNL     1      19.719   7.114  22.754  0.00  0.00    +0.007 A 
ATOM     28  C   UNL     1      21.609   7.212  20.704  0.00  0.00    +0.046 A 
ATOM     29  C   UNL     1      20.911   6.400  22.870  0.00  0.00    +0.046 A 
ATOM     30  C   UNL     1      21.857   6.449  21.845  0.00  0.00    +0.120 A 
BRANCH  30   6
ATOM      6  O   UNL     1      23.020   5.752  21.958  0.00  0.00    -0.495 OA
ATOM     35  C   UNL     1      23.040   4.429  21.424  0.00  0.00    +0.277 C 
ENDBRANCH  30   6
ENDBRANCH  19  22
ENDBRANCH  18  19
ENDBRANCH   9  18
ENDBRANCH  11  15
TORSDOF 8
ENDMDL
MODEL 9
REMARK VINA RESULT:      -5.6     27.826     30.268
REMARK  Name = 11887581
REMARK  11 active torsions:
REMARK  status: ('A' for Active; 'I' for Inactive)
REMARK    1  A    between atoms: O_4  and  C_21
REMARK    2  A    between atoms: O_4  and  C_31
REMARK    3  A    between atoms: O_6  and  C_30
REMARK    4  A    between atoms: O_6  and  C_35
REMARK    5  A    between atoms: N_9  and  C_18
REMARK    6  A    between atoms: N_10  and  C_23
REMARK    7  A    between atoms: C_11  and  C_15
REMARK    8  A    between atoms: C_16  and  C_20
REMARK    9  A    between atoms: C_18  and  C_19
REMARK   10  A    between atoms: C_18  and  C_21
REMARK   11  A    between atoms: C_19  and  C_22
REMARK                            x       y       z     vdW  Elec       q    Type
REMARK                         _______ _______ _______ _____ _____    ______ ____
ROOT
ATOM      2  O   UNL     1      -4.379 -13.594  14.525  0.00  0.00    -0.276 OA
ATOM      3  O   UNL     1      -3.934  -8.830   8.978  0.00  0.00    -0.252 OA
ATOM      7  N   UNL     1      -3.820 -12.224  12.730  0.00  0.00    -0.287 N 
ATOM      8  N   UNL     1      -4.515 -10.500  10.471  0.00  0.00    -0.282 N 
ATOM     10  N   UNL     1      -5.992  -9.891   8.736  0.00  0.00    -0.269 N 
ATOM     11  C   UNL     1      -5.217 -11.904  12.439  0.00  0.00    +0.179 C 
ATOM     12  C   UNL     1      -5.464 -11.499  10.985  0.00  0.00    +0.141 C 
ATOM     13  C   UNL     1      -2.804 -11.666  11.832  0.00  0.00    +0.127 C 
ATOM     14  C   UNL     1      -3.245 -10.363  11.182  0.00  0.00    +0.128 C 
ATOM     16  C   UNL     1      -3.531 -13.120  13.765  0.00  0.00    +0.213 C 
ATOM     17  C   UNL     1      -4.761  -9.663   9.356  0.00  0.00    +0.307 C 
ATOM     20  C   UNL     1      -2.081 -13.500  13.936  0.00  0.00    +0.109 C 
ATOM     37  H   UNL     1      -6.397 -10.818   8.823  0.00  0.00    +0.156 HD
ENDROOT
BRANCH  10  23
ATOM     23  C   UNL     1      -6.799  -8.954   8.044  0.00  0.00    +0.035 A 
ATOM     26  C   UNL     1      -7.394  -7.900   8.738  0.00  0.00    +0.023 A 
ATOM     27  C   UNL     1      -6.996  -9.085   6.670  0.00  0.00    +0.023 A 
ATOM     32  C   UNL     1      -8.188  -6.977   8.056  0.00  0.00    +0.002 A 
ATOM     33  C   UNL     1      -7.790  -8.162   5.989  0.00  0.00    +0.002 A 
ATOM     34  C   UNL     1      -8.385  -7.108   6.681  0.00  0.00    +0.000 A 
ENDBRANCH  10  23
BRANCH  11  15
ATOM      1  O   UNL     1      -5.509  -9.625  13.096  0.00  0.00    -0.274 OA
ATOM      9  N   UNL     1      -6.160 -11.313  14.562  0.00  0.00    -0.301 N 
ATOM     15  C   UNL     1      -5.643 -10.813  13.379  0.00  0.00    +0.236 C 
ATOM     36  H   UNL     1      -6.245 -12.317  14.682  0.00  0.00    +0.150 HD
BRANCH   9  18
ATOM     18  C   UNL     1      -6.621 -10.469  15.642  0.00  0.00    +0.186 C 
BRANCH  18  21
ATOM      5  O   UNL     1      -6.061 -10.988  17.935  0.00  0.00    -0.249 OA
ATOM     21  C   UNL     1      -5.702 -10.528  16.856  0.00  0.00    +0.328 C 
BRANCH  21   4
ATOM      4  O   UNL     1      -4.472 -10.003  16.595  0.00  0.00    -0.467 OA
ATOM     31  C   UNL     1      -3.373 -10.913  16.701  0.00  0.00    +0.280 C 
ENDBRANCH  21   4
ENDBRANCH  18  21
BRANCH  18  19
ATOM     19  C   UNL     1      -8.080 -10.779  16.009  0.00  0.00    +0.069 C 
BRANCH  19  22
ATOM     22  C   UNL     1      -8.988  -9.572  16.061  0.00  0.00    -0.045 A 
ATOM     24  C   UNL     1      -9.125  -8.853  17.249  0.00  0.00    +0.007 A 
ATOM     25  C   UNL     1      -9.689  -9.178  14.922  0.00  0.00    +0.007 A 
ATOM     28  C   UNL     1      -9.964  -7.740  17.297  0.00  0.00    +0.046 A 
ATOM     29  C   UNL     1     -10.528  -8.064  14.970  0.00  0.00    +0.046 A 
ATOM     30  C   UNL     1     -10.665  -7.345  16.158  0.00  0.00    +0.120 A 
BRANCH  30   6
ATOM      6  O   UNL     1     -11.483  -6.258  16.205  0.00  0.00    -0.495 OA
ATOM     35  C   UNL     1     -11.909  -5.712  14.958  0.00  0.00    +0.277 C 
ENDBRANCH  30   6
ENDBRANCH  19  22
ENDBRANCH  18  19
ENDBRANCH   9  18
ENDBRANCH  11  15
TORSDOF 8
ENDMDL
MODEL 10
REMARK VINA RESULT:      -5.5      2.539      8.148
REMARK  Name = 11887581
REMARK  11 active torsions:
REMARK  status: ('A' for Active; 'I' for Inactive)
REMARK    1  A    between atoms: O_4  and  C_21
REMARK    2  A    between atoms: O_4  and  C_31
REMARK    3  A    between atoms: O_6  and  C_30
REMARK    4  A    between atoms: O_6  and  C_35
REMARK    5  A    between atoms: N_9  and  C_18
REMARK    6  A    between atoms: N_10  and  C_23
REMARK    7  A    between atoms: C_11  and  C_15
REMARK    8  A    between atoms: C_16  and  C_20
REMARK    9  A    between atoms: C_18  and  C_19
REMARK   10  A    between atoms: C_18  and  C_21
REMARK   11  A    between atoms: C_19  and  C_22
REMARK                            x       y       z     vdW  Elec       q    Type
REMARK                         _______ _______ _______ _____ _____    ______ ____
ROOT
ATOM      2  O   UNL     1      14.389   6.509  19.715  0.00  0.00    -0.276 OA
ATOM      3  O   UNL     1      11.961  13.358  20.642  0.00  0.00    -0.252 OA
ATOM      7  N   UNL     1      13.577   8.684  19.569  0.00  0.00    -0.287 N 
ATOM      8  N   UNL     1      12.365  11.081  20.728  0.00  0.00    -0.282 N 
ATOM     10  N   UNL     1      10.960  12.100  22.325  0.00  0.00    -0.269 N 
ATOM     11  C   UNL     1      13.291   8.756  21.002  0.00  0.00    +0.179 C 
ATOM     12  C   UNL     1      12.197   9.763  21.359  0.00  0.00    +0.141 C 
ATOM     13  C   UNL     1      13.208   9.845  18.753  0.00  0.00    +0.127 C 
ATOM     14  C   UNL     1      13.217  11.146  19.543  0.00  0.00    +0.128 C 
ATOM     16  C   UNL     1      14.076   7.490  19.037  0.00  0.00    +0.213 C 
ATOM     17  C   UNL     1      11.773  12.276  21.203  0.00  0.00    +0.307 C 
ATOM     20  C   UNL     1      14.237   7.441  17.538  0.00  0.00    +0.109 C 
ATOM     37  H   UNL     1      10.531  11.188  22.456  0.00  0.00    +0.156 HD
ENDROOT
BRANCH  10  23
ATOM     23  C   UNL     1      10.706  13.029  23.364  0.00  0.00    +0.035 A 
ATOM     26  C   UNL     1      10.066  14.235  23.080  0.00  0.00    +0.023 A 
ATOM     27  C   UNL     1      11.096  12.737  24.671  0.00  0.00    +0.023 A 
ATOM     32  C   UNL     1       9.816  15.150  24.103  0.00  0.00    +0.002 A 
ATOM     33  C   UNL     1      10.845  13.651  25.694  0.00  0.00    +0.002 A 
ATOM     34  C   UNL     1      10.205  14.857  25.410  0.00  0.00    +0.000 A 
ENDBRANCH  10  23
BRANCH  11  15
ATOM      1  O   UNL     1      14.586   9.607  22.821  0.00  0.00    -0.274 OA
ATOM      9  N   UNL     1      15.687   8.755  20.955  0.00  0.00    -0.301 N 
ATOM     15  C   UNL     1      14.574   9.085  21.709  0.00  0.00    +0.236 C 
ATOM     36  H   UNL     1      15.561   8.305  20.053  0.00  0.00    +0.150 HD
BRANCH   9  18
ATOM     18  C   UNL     1      17.042   8.991  21.401  0.00  0.00    +0.186 C 
BRANCH  18  21
ATOM      5  O   UNL     1      17.635  11.020  22.571  0.00  0.00    -0.249 OA
ATOM     21  C   UNL     1      17.367  10.475  21.505  0.00  0.00    +0.328 C 
BRANCH  21   4
ATOM      4  O   UNL     1      17.305  11.101  20.296  0.00  0.00    -0.467 OA
ATOM     31  C   UNL     1      16.629  12.362  20.284  0.00  0.00    +0.280 C 
ENDBRANCH  21   4
ENDBRANCH  18  21
BRANCH  18  19
ATOM     19  C   UNL     1      18.057   8.239  20.525  0.00  0.00    +0.069 C 
BRANCH  19  22
ATOM     22  C   UNL     1      19.067   7.418  21.293  0.00  0.00    -0.045 A 
ATOM     24  C   UNL     1      19.638   6.289  20.706  0.00  0.00    +0.007 A 
ATOM     25  C   UNL     1      19.426   7.788  22.589  0.00  0.00    +0.007 A 
ATOM     28  C   UNL     1      20.570   5.531  21.415  0.00  0.00    +0.046 A 
ATOM     29  C   UNL     1      20.358   7.030  23.298  0.00  0.00    +0.046 A 
ATOM     30  C   UNL     1      20.930   5.901  22.710  0.00  0.00    +0.120 A 
BRANCH  30   6
ATOM      6  O   UNL     1      21.840   5.161  23.402  0.00  0.00    -0.495 OA
ATOM     35  C   UNL     1      22.301   3.959  22.787  0.00  0.00    +0.277 C 
ENDBRANCH  30   6
ENDBRANCH  19  22
ENDBRANCH  18  19
ENDBRANCH   9  18
ENDBRANCH  11  15
TORSDOF 8
ENDMDL
