MODEL 1
REMARK VINA RESULT:      -6.0      0.000      0.000
REMARK  Name = 44716917
REMARK  16 active torsions:
REMARK  status: ('A' for Active; 'I' for Inactive)
REMARK    1  A    between atoms: O_1  and  C_15
REMARK    2  A    between atoms: O_1  and  C_24
REMARK    3  A    between atoms: O_2  and  C_16
REMARK    4  A    between atoms: O_3  and  C_20
REMARK    5  A    between atoms: O_6  and  C_34
REMARK    6  A    between atoms: O_6  and  C_35
REMARK    7  A    between atoms: N_7  and  C_25
REMARK    8  A    between atoms: N_8  and  C_26
REMARK    9  A    between atoms: C_9  and  C_19
REMARK   10  A    between atoms: C_11  and  C_20
REMARK   11  A    between atoms: C_11  and  C_21
REMARK   12  A    between atoms: C_12  and  C_22
REMARK   13  A    between atoms: C_22  and  C_23
REMARK   14  A    between atoms: C_25  and  C_27
REMARK   15  A    between atoms: C_26  and  C_28
REMARK   16  A    between atoms: C_28  and  C_31
REMARK                            x       y       z     vdW  Elec       q    Type
REMARK                         _______ _______ _______ _____ _____    ______ ____
ROOT
ATOM      9  C   UNL     1      -7.151 -10.568  17.396  0.00  0.00    -0.023 C 
ATOM     10  C   UNL     1      -6.559 -12.030  17.435  0.00  0.00    +0.007 C 
ATOM     11  C   UNL     1      -5.007 -12.158  17.682  0.00  0.00    +0.031 C 
ATOM     12  C   UNL     1      -8.626 -10.682  16.825  0.00  0.00    +0.032 C 
ATOM     13  C   UNL     1      -6.292  -9.717  16.423  0.00  0.00    +0.011 C 
ATOM     14  C   UNL     1      -7.429 -12.954  18.315  0.00  0.00    +0.007 C 
ATOM     15  C   UNL     1      -4.261 -11.199  16.705  0.00  0.00    +0.186 C 
ATOM     16  C   UNL     1      -9.518 -11.666  17.618  0.00  0.00    +0.119 C 
ATOM     17  C   UNL     1      -4.796  -9.773  16.714  0.00  0.00    +0.046 C 
ATOM     18  C   UNL     1      -8.863 -13.033  17.788  0.00  0.00    +0.032 C 
ATOM     19  C   UNL     1      -7.155  -9.864  18.774  0.00  0.00    +0.012 C 
ATOM     21  C   UNL     1      -4.556 -13.609  17.345  0.00  0.00    +0.017 C 
ENDROOT
BRANCH  16   2
ATOM      2  O   UNL     1      -9.856 -11.131  18.893  0.00  0.00    -0.391 OA
ATOM     36  H   UNL     1      -9.463 -11.708  19.570  0.00  0.00    +0.210 HD
ENDBRANCH  16   2
BRANCH  15   1
ATOM      1  O   UNL     1      -2.865 -11.126  16.998  0.00  0.00    -0.446 OA
BRANCH   1  24
ATOM      5  O   UNL     1      -1.173 -10.174  15.771  0.00  0.00    -0.226 OA
ATOM      8  N   UNL     1      -2.298 -12.064  15.035  0.00  0.00    -0.281 N 
ATOM     24  C   UNL     1      -2.029 -11.039  15.917  0.00  0.00    +0.401 C 
ATOM     39  H   UNL     1      -3.034 -12.721  15.276  0.00  0.00    +0.152 HD
BRANCH   8  26
ATOM     26  C   UNL     1      -1.590 -12.257  13.791  0.00  0.00    +0.107 C 
BRANCH  26  28
ATOM     28  C   UNL     1      -2.340 -11.674  12.599  0.00  0.00    +0.015 C 
ATOM     31  C   UNL     1      -1.833 -10.296  12.201  0.00  0.00    +0.005 C 
ENDBRANCH  26  28
ENDBRANCH   8  26
ENDBRANCH   1  24
ENDBRANCH  15   1
BRANCH  11  20
ATOM     20  C   UNL     1      -4.579 -11.916  19.144  0.00  0.00    +0.166 C 
BRANCH  20   3
ATOM      3  O   UNL     1      -3.332 -12.547  19.341  0.00  0.00    -0.394 OA
ATOM     37  H   UNL     1      -3.303 -13.320  18.751  0.00  0.00    +0.209 HD
ENDBRANCH  20   3
ENDBRANCH  11  20
BRANCH  12  22
ATOM     22  C   UNL     1      -9.356  -9.342  16.649  0.00  0.00    +0.102 C 
BRANCH  22  23
ATOM      4  O   UNL     1     -10.387  -8.128  14.826  0.00  0.00    -0.276 OA
ATOM      7  N   UNL     1      -9.100 -10.009  14.371  0.00  0.00    -0.311 N 
ATOM     23  C   UNL     1      -9.688  -9.066  15.201  0.00  0.00    +0.214 C 
ATOM     38  H   UNL     1      -8.563 -10.769  14.778  0.00  0.00    +0.149 HD
BRANCH   7  25
ATOM     25  C   UNL     1      -9.248  -9.995  12.933  0.00  0.00    +0.139 C 
BRANCH  25  27
ATOM     27  C   UNL     1      -7.980  -9.586  12.242  0.00  0.00    -0.030 A 
ATOM     29  C   UNL     1      -8.012  -9.178  10.908  0.00  0.00    +0.009 A 
ATOM     30  C   UNL     1      -6.769  -9.611  12.934  0.00  0.00    +0.009 A 
ATOM     32  C   UNL     1      -6.834  -8.796  10.267  0.00  0.00    +0.046 A 
ATOM     33  C   UNL     1      -5.591  -9.228  12.292  0.00  0.00    +0.046 A 
ATOM     34  C   UNL     1      -5.624  -8.821  10.959  0.00  0.00    +0.120 A 
BRANCH  34   6
ATOM      6  O   UNL     1      -4.474  -8.447  10.333  0.00  0.00    -0.495 OA
ATOM     35  C   UNL     1      -4.082  -9.203   9.188  0.00  0.00    +0.277 C 
ENDBRANCH  34   6
ENDBRANCH  25  27
ENDBRANCH   7  25
ENDBRANCH  22  23
ENDBRANCH  12  22
TORSDOF 12
ENDMDL
MODEL 2
REMARK VINA RESULT:      -5.8      2.465      6.064
REMARK  Name = 44716917
REMARK  16 active torsions:
REMARK  status: ('A' for Active; 'I' for Inactive)
REMARK    1  A    between atoms: O_1  and  C_15
REMARK    2  A    between atoms: O_1  and  C_24
REMARK    3  A    between atoms: O_2  and  C_16
REMARK    4  A    between atoms: O_3  and  C_20
REMARK    5  A    between atoms: O_6  and  C_34
REMARK    6  A    between atoms: O_6  and  C_35
REMARK    7  A    between atoms: N_7  and  C_25
REMARK    8  A    between atoms: N_8  and  C_26
REMARK    9  A    between atoms: C_9  and  C_19
REMARK   10  A    between atoms: C_11  and  C_20
REMARK   11  A    between atoms: C_11  and  C_21
REMARK   12  A    between atoms: C_12  and  C_22
REMARK   13  A    between atoms: C_22  and  C_23
REMARK   14  A    between atoms: C_25  and  C_27
REMARK   15  A    between atoms: C_26  and  C_28
REMARK   16  A    between atoms: C_28  and  C_31
REMARK                            x       y       z     vdW  Elec       q    Type
REMARK                         _______ _______ _______ _____ _____    ______ ____
ROOT
ATOM      9  C   UNL     1      -5.082 -11.609  15.257  0.00  0.00    -0.023 C 
ATOM     10  C   UNL     1      -4.929 -10.983  16.698  0.00  0.00    +0.007 C 
ATOM     11  C   UNL     1      -6.122 -11.219  17.702  0.00  0.00    +0.031 C 
ATOM     12  C   UNL     1      -3.941 -10.978  14.356  0.00  0.00    +0.032 C 
ATOM     13  C   UNL     1      -6.467 -11.199  14.689  0.00  0.00    +0.011 C 
ATOM     14  C   UNL     1      -3.530 -11.278  17.281  0.00  0.00    +0.007 C 
ATOM     15  C   UNL     1      -7.459 -10.849  16.990  0.00  0.00    +0.186 C 
ATOM     16  C   UNL     1      -2.521 -11.167  14.939  0.00  0.00    +0.119 C 
ATOM     17  C   UNL     1      -7.632 -11.503  15.625  0.00  0.00    +0.046 C 
ATOM     18  C   UNL     1      -2.426 -10.704  16.390  0.00  0.00    +0.032 C 
ATOM     19  C   UNL     1      -4.996 -13.154  15.240  0.00  0.00    +0.012 C 
ATOM     21  C   UNL     1      -5.960 -10.259  18.917  0.00  0.00    +0.017 C 
ENDROOT
BRANCH  16   2
ATOM      2  O   UNL     1      -2.106 -12.524  14.838  0.00  0.00    -0.391 OA
ATOM     36  H   UNL     1      -2.555 -12.915  14.069  0.00  0.00    +0.210 HD
ENDBRANCH  16   2
BRANCH  15   1
ATOM      1  O   UNL     1      -8.595 -11.212  17.776  0.00  0.00    -0.446 OA
BRANCH   1  24
ATOM      5  O   UNL     1     -10.802 -10.610  17.979  0.00  0.00    -0.226 OA
ATOM      8  N   UNL     1      -9.145  -9.043  17.556  0.00  0.00    -0.281 N 
ATOM     24  C   UNL     1      -9.627 -10.313  17.788  0.00  0.00    +0.401 C 
ATOM     39  H   UNL     1      -8.145  -8.930  17.415  0.00  0.00    +0.152 HD
BRANCH   8  26
ATOM     26  C   UNL     1      -9.980  -7.865  17.505  0.00  0.00    +0.107 C 
BRANCH  26  28
ATOM     28  C   UNL     1     -10.075  -7.281  16.101  0.00  0.00    +0.015 C 
ATOM     31  C   UNL     1     -11.091  -6.153  15.999  0.00  0.00    +0.005 C 
ENDBRANCH  26  28
ENDBRANCH   8  26
ENDBRANCH   1  24
ENDBRANCH  15   1
BRANCH  11  20
ATOM     20  C   UNL     1      -6.174 -12.641  18.295  0.00  0.00    +0.166 C 
BRANCH  20   3
ATOM      3  O   UNL     1      -6.788 -12.559  19.563  0.00  0.00    -0.394 OA
ATOM     37  H   UNL     1      -6.382 -13.241  20.125  0.00  0.00    +0.209 HD
ENDBRANCH  20   3
ENDBRANCH  11  20
BRANCH  12  22
ATOM     22  C   UNL     1      -3.962 -11.419  12.884  0.00  0.00    +0.102 C 
BRANCH  22  23
ATOM      4  O   UNL     1      -2.540  -9.978  11.558  0.00  0.00    -0.276 OA
ATOM      7  N   UNL     1      -4.834  -9.608  11.595  0.00  0.00    -0.311 N 
ATOM     23  C   UNL     1      -3.668 -10.272  11.947  0.00  0.00    +0.214 C 
ATOM     38  H   UNL     1      -5.719  -9.907  11.994  0.00  0.00    +0.149 HD
BRANCH   7  25
ATOM     25  C   UNL     1      -4.856  -8.466  10.710  0.00  0.00    +0.139 C 
BRANCH  25  27
ATOM     27  C   UNL     1      -5.516  -8.784   9.400  0.00  0.00    -0.030 A 
ATOM     29  C   UNL     1      -4.868  -9.596   8.470  0.00  0.00    +0.009 A 
ATOM     30  C   UNL     1      -6.781  -8.269   9.113  0.00  0.00    +0.009 A 
ATOM     32  C   UNL     1      -5.482  -9.893   7.254  0.00  0.00    +0.046 A 
ATOM     33  C   UNL     1      -7.395  -8.565   7.897  0.00  0.00    +0.046 A 
ATOM     34  C   UNL     1      -6.746  -9.377   6.967  0.00  0.00    +0.120 A 
BRANCH  34   6
ATOM      6  O   UNL     1      -7.347  -9.668   5.781  0.00  0.00    -0.495 OA
ATOM     35  C   UNL     1      -7.362  -8.639   4.791  0.00  0.00    +0.277 C 
ENDBRANCH  34   6
ENDBRANCH  25  27
ENDBRANCH   7  25
ENDBRANCH  22  23
ENDBRANCH  12  22
TORSDOF 12
ENDMDL
MODEL 3
REMARK VINA RESULT:      -5.6      2.449      5.781
REMARK  Name = 44716917
REMARK  16 active torsions:
REMARK  status: ('A' for Active; 'I' for Inactive)
REMARK    1  A    between atoms: O_1  and  C_15
REMARK    2  A    between atoms: O_1  and  C_24
REMARK    3  A    between atoms: O_2  and  C_16
REMARK    4  A    between atoms: O_3  and  C_20
REMARK    5  A    between atoms: O_6  and  C_34
REMARK    6  A    between atoms: O_6  and  C_35
REMARK    7  A    between atoms: N_7  and  C_25
REMARK    8  A    between atoms: N_8  and  C_26
REMARK    9  A    between atoms: C_9  and  C_19
REMARK   10  A    between atoms: C_11  and  C_20
REMARK   11  A    between atoms: C_11  and  C_21
REMARK   12  A    between atoms: C_12  and  C_22
REMARK   13  A    between atoms: C_22  and  C_23
REMARK   14  A    between atoms: C_25  and  C_27
REMARK   15  A    between atoms: C_26  and  C_28
REMARK   16  A    between atoms: C_28  and  C_31
REMARK                            x       y       z     vdW  Elec       q    Type
REMARK                         _______ _______ _______ _____ _____    ______ ____
ROOT
ATOM      9  C   UNL     1      -4.206 -11.701  15.888  0.00  0.00    -0.023 C 
ATOM     10  C   UNL     1      -4.301 -13.021  15.030  0.00  0.00    +0.007 C 
ATOM     11  C   UNL     1      -3.479 -13.051  13.685  0.00  0.00    +0.031 C 
ATOM     12  C   UNL     1      -5.341 -11.785  16.992  0.00  0.00    +0.032 C 
ATOM     13  C   UNL     1      -4.486 -10.490  14.959  0.00  0.00    +0.011 C 
ATOM     14  C   UNL     1      -4.124 -14.271  15.919  0.00  0.00    +0.007 C 
ATOM     15  C   UNL     1      -3.783 -11.750  12.880  0.00  0.00    +0.186 C 
ATOM     16  C   UNL     1      -5.265 -13.064  17.857  0.00  0.00    +0.119 C 
ATOM     17  C   UNL     1      -3.631 -10.472  13.696  0.00  0.00    +0.046 C 
ATOM     18  C   UNL     1      -5.196 -14.332  17.010  0.00  0.00    +0.032 C 
ATOM     19  C   UNL     1      -2.822 -11.489  16.548  0.00  0.00    +0.012 C 
ATOM     21  C   UNL     1      -3.959 -14.254  12.822  0.00  0.00    +0.017 C 
ENDROOT
BRANCH  16   2
ATOM      2  O   UNL     1      -4.151 -13.015  18.742  0.00  0.00    -0.391 OA
ATOM     36  H   UNL     1      -3.939 -13.928  19.003  0.00  0.00    +0.210 HD
ENDBRANCH  16   2
BRANCH  15   1
ATOM      1  O   UNL     1      -2.934 -11.623  11.739  0.00  0.00    -0.446 OA
BRANCH   1  24
ATOM      5  O   UNL     1      -4.068 -12.049   9.788  0.00  0.00    -0.226 OA
ATOM      8  N   UNL     1      -3.495  -9.891  10.418  0.00  0.00    -0.281 N 
ATOM     24  C   UNL     1      -3.549 -11.261  10.571  0.00  0.00    +0.401 C 
ATOM     39  H   UNL     1      -3.037  -9.348  11.145  0.00  0.00    +0.152 HD
BRANCH   8  26
ATOM     26  C   UNL     1      -4.055  -9.188   9.288  0.00  0.00    +0.107 C 
BRANCH  26  28
ATOM     28  C   UNL     1      -5.161  -8.223   9.695  0.00  0.00    +0.015 C 
ATOM     31  C   UNL     1      -6.206  -8.869  10.593  0.00  0.00    +0.005 C 
ENDBRANCH  26  28
ENDBRANCH   8  26
ENDBRANCH   1  24
ENDBRANCH  15   1
BRANCH  11  20
ATOM     20  C   UNL     1      -1.962 -13.253  13.877  0.00  0.00    +0.166 C 
BRANCH  20   3
ATOM      3  O   UNL     1      -1.478 -13.981  12.769  0.00  0.00    -0.394 OA
ATOM     37  H   UNL     1      -1.252 -13.337  12.077  0.00  0.00    +0.209 HD
ENDBRANCH  20   3
ENDBRANCH  11  20
BRANCH  12  22
ATOM     22  C   UNL     1      -5.453 -10.549  17.898  0.00  0.00    +0.102 C 
BRANCH  22  23
ATOM      4  O   UNL     1      -6.750 -10.628  19.940  0.00  0.00    -0.276 OA
ATOM      7  N   UNL     1      -7.840 -10.486  17.892  0.00  0.00    -0.311 N 
ATOM     23  C   UNL     1      -6.724 -10.561  18.713  0.00  0.00    +0.214 C 
ATOM     38  H   UNL     1      -7.718 -10.465  16.884  0.00  0.00    +0.149 HD
BRANCH   7  25
ATOM     25  C   UNL     1      -9.193 -10.481  18.398  0.00  0.00    +0.139 C 
BRANCH  25  27
ATOM     27  C   UNL     1     -10.036  -9.430  17.736  0.00  0.00    -0.030 A 
ATOM     29  C   UNL     1     -11.426  -9.550  17.732  0.00  0.00    +0.009 A 
ATOM     30  C   UNL     1      -9.431  -8.331  17.126  0.00  0.00    +0.009 A 
ATOM     32  C   UNL     1     -12.209  -8.573  17.119  0.00  0.00    +0.046 A 
ATOM     33  C   UNL     1     -10.214  -7.354  16.513  0.00  0.00    +0.046 A 
ATOM     34  C   UNL     1     -11.604  -7.475  16.509  0.00  0.00    +0.120 A 
BRANCH  34   6
ATOM      6  O   UNL     1     -12.368  -6.520  15.912  0.00  0.00    -0.495 OA
ATOM     35  C   UNL     1     -11.768  -5.778  14.850  0.00  0.00    +0.277 C 
ENDBRANCH  34   6
ENDBRANCH  25  27
ENDBRANCH   7  25
ENDBRANCH  22  23
ENDBRANCH  12  22
TORSDOF 12
ENDMDL
MODEL 4
REMARK VINA RESULT:      -5.6     27.657     30.677
REMARK  Name = 44716917
REMARK  16 active torsions:
REMARK  status: ('A' for Active; 'I' for Inactive)
REMARK    1  A    between atoms: O_1  and  C_15
REMARK    2  A    between atoms: O_1  and  C_24
REMARK    3  A    between atoms: O_2  and  C_16
REMARK    4  A    between atoms: O_3  and  C_20
REMARK    5  A    between atoms: O_6  and  C_34
REMARK    6  A    between atoms: O_6  and  C_35
REMARK    7  A    between atoms: N_7  and  C_25
REMARK    8  A    between atoms: N_8  and  C_26
REMARK    9  A    between atoms: C_9  and  C_19
REMARK   10  A    between atoms: C_11  and  C_20
REMARK   11  A    between atoms: C_11  and  C_21
REMARK   12  A    between atoms: C_12  and  C_22
REMARK   13  A    between atoms: C_22  and  C_23
REMARK   14  A    between atoms: C_25  and  C_27
REMARK   15  A    between atoms: C_26  and  C_28
REMARK   16  A    between atoms: C_28  and  C_31
REMARK                            x       y       z     vdW  Elec       q    Type
REMARK                         _______ _______ _______ _____ _____    ______ ____
ROOT
ATOM      9  C   UNL     1      13.576   9.018  20.681  0.00  0.00    -0.023 C 
ATOM     10  C   UNL     1      12.403   9.273  21.706  0.00  0.00    +0.007 C 
ATOM     11  C   UNL     1      12.284  10.730  22.297  0.00  0.00    +0.031 C 
ATOM     12  C   UNL     1      13.686   7.449  20.486  0.00  0.00    +0.032 C 
ATOM     13  C   UNL     1      14.895   9.549  21.303  0.00  0.00    +0.011 C 
ATOM     14  C   UNL     1      11.076   8.680  21.183  0.00  0.00    +0.007 C 
ATOM     15  C   UNL     1      13.685  11.179  22.814  0.00  0.00    +0.186 C 
ATOM     16  C   UNL     1      12.358   6.789  20.047  0.00  0.00    +0.119 C 
ATOM     17  C   UNL     1      14.806  10.988  21.800  0.00  0.00    +0.046 C 
ATOM     18  C   UNL     1      11.194   7.172  20.956  0.00  0.00    +0.032 C 
ATOM     19  C   UNL     1      13.372   9.722  19.318  0.00  0.00    +0.012 C 
ATOM     21  C   UNL     1      11.322  10.705  23.520  0.00  0.00    +0.017 C 
ENDROOT
BRANCH  16   2
ATOM      2  O   UNL     1      12.046   7.120  18.699  0.00  0.00    -0.391 OA
ATOM     36  H   UNL     1      12.382   8.017  18.529  0.00  0.00    +0.210 HD
ENDBRANCH  16   2
BRANCH  15   1
ATOM      1  O   UNL     1      13.693  12.555  23.194  0.00  0.00    -0.446 OA
BRANCH   1  24
ATOM      5  O   UNL     1      14.274  12.229  25.392  0.00  0.00    -0.226 OA
ATOM      8  N   UNL     1      12.682  13.798  24.772  0.00  0.00    -0.281 N 
ATOM     24  C   UNL     1      13.611  12.807  24.537  0.00  0.00    +0.401 C 
ATOM     39  H   UNL     1      12.201  14.200  23.973  0.00  0.00    +0.152 HD
BRANCH   8  26
ATOM     26  C   UNL     1      12.358  14.298  26.088  0.00  0.00    +0.107 C 
BRANCH  26  28
ATOM     28  C   UNL     1      11.007  15.002  26.125  0.00  0.00    +0.015 C 
ATOM     31  C   UNL     1      10.228  14.850  24.826  0.00  0.00    +0.005 C 
ENDBRANCH  26  28
ENDBRANCH   8  26
ENDBRANCH   1  24
ENDBRANCH  15   1
BRANCH  11  20
ATOM     20  C   UNL     1      11.689  11.761  21.317  0.00  0.00    +0.166 C 
BRANCH  20   3
ATOM      3  O   UNL     1      11.024  12.747  22.077  0.00  0.00    -0.394 OA
ATOM     37  H   UNL     1      11.336  13.613  21.761  0.00  0.00    +0.209 HD
ENDBRANCH  20   3
ENDBRANCH  11  20
BRANCH  12  22
ATOM     22  C   UNL     1      14.826   6.991  19.562  0.00  0.00    +0.102 C 
BRANCH  22  23
ATOM      4  O   UNL     1      15.914   5.974  21.469  0.00  0.00    -0.276 OA
ATOM      7  N   UNL     1      17.176   6.574  19.612  0.00  0.00    -0.311 N 
ATOM     23  C   UNL     1      16.002   6.453  20.341  0.00  0.00    +0.214 C 
ATOM     38  H   UNL     1      17.154   7.014  18.697  0.00  0.00    +0.149 HD
BRANCH   7  25
ATOM     25  C   UNL     1      18.462   6.142  20.111  0.00  0.00    +0.139 C 
BRANCH  25  27
ATOM     27  C   UNL     1      18.983   7.052  21.185  0.00  0.00    -0.030 A 
ATOM     29  C   UNL     1      19.775   6.539  22.212  0.00  0.00    +0.009 A 
ATOM     30  C   UNL     1      18.678   8.413  21.155  0.00  0.00    +0.009 A 
ATOM     32  C   UNL     1      20.261   7.385  23.208  0.00  0.00    +0.046 A 
ATOM     33  C   UNL     1      19.164   9.260  22.151  0.00  0.00    +0.046 A 
ATOM     34  C   UNL     1      19.956   8.745  23.178  0.00  0.00    +0.120 A 
BRANCH  34   6
ATOM      6  O   UNL     1      20.431   9.572  24.149  0.00  0.00    -0.495 OA
ATOM     35  C   UNL     1      20.785  10.898  23.757  0.00  0.00    +0.277 C 
ENDBRANCH  34   6
ENDBRANCH  25  27
ENDBRANCH   7  25
ENDBRANCH  22  23
ENDBRANCH  12  22
TORSDOF 12
ENDMDL
MODEL 5
REMARK VINA RESULT:      -5.5      2.752      4.713
REMARK  Name = 44716917
REMARK  16 active torsions:
REMARK  status: ('A' for Active; 'I' for Inactive)
REMARK    1  A    between atoms: O_1  and  C_15
REMARK    2  A    between atoms: O_1  and  C_24
REMARK    3  A    between atoms: O_2  and  C_16
REMARK    4  A    between atoms: O_3  and  C_20
REMARK    5  A    between atoms: O_6  and  C_34
REMARK    6  A    between atoms: O_6  and  C_35
REMARK    7  A    between atoms: N_7  and  C_25
REMARK    8  A    between atoms: N_8  and  C_26
REMARK    9  A    between atoms: C_9  and  C_19
REMARK   10  A    between atoms: C_11  and  C_20
REMARK   11  A    between atoms: C_11  and  C_21
REMARK   12  A    between atoms: C_12  and  C_22
REMARK   13  A    between atoms: C_22  and  C_23
REMARK   14  A    between atoms: C_25  and  C_27
REMARK   15  A    between atoms: C_26  and  C_28
REMARK   16  A    between atoms: C_28  and  C_31
REMARK                            x       y       z     vdW  Elec       q    Type
REMARK                         _______ _______ _______ _____ _____    ______ ____
ROOT
ATOM      9  C   UNL     1      -7.170 -10.561  17.440  0.00  0.00    -0.023 C 
ATOM     10  C   UNL     1      -6.838 -12.024  16.951  0.00  0.00    +0.007 C 
ATOM     11  C   UNL     1      -5.320 -12.449  16.971  0.00  0.00    +0.031 C 
ATOM     12  C   UNL     1      -8.673 -10.267  17.029  0.00  0.00    +0.032 C 
ATOM     13  C   UNL     1      -6.235  -9.571  16.695  0.00  0.00    +0.011 C 
ATOM     14  C   UNL     1      -7.802 -13.050  17.587  0.00  0.00    +0.007 C 
ATOM     15  C   UNL     1      -4.478 -11.341  16.268  0.00  0.00    +0.186 C 
ATOM     16  C   UNL     1      -9.674 -11.316  17.567  0.00  0.00    +0.119 C 
ATOM     17  C   UNL     1      -4.756  -9.935  16.785  0.00  0.00    +0.046 C 
ATOM     18  C   UNL     1      -9.256 -12.743  17.225  0.00  0.00    +0.032 C 
ATOM     19  C   UNL     1      -6.972 -10.356  18.961  0.00  0.00    +0.012 C 
ATOM     21  C   UNL     1      -5.148 -13.758  16.147  0.00  0.00    +0.017 C 
ENDROOT
BRANCH  16   2
ATOM      2  O   UNL     1      -9.839 -11.187  18.975  0.00  0.00    -0.391 OA
ATOM     36  H   UNL     1      -9.024 -10.796  19.335  0.00  0.00    +0.210 HD
ENDBRANCH  16   2
BRANCH  15   1
ATOM      1  O   UNL     1      -3.076 -11.571  16.412  0.00  0.00    -0.446 OA
BRANCH   1  24
ATOM      5  O   UNL     1      -1.289 -10.208  15.937  0.00  0.00    -0.226 OA
ATOM      8  N   UNL     1      -2.702 -10.990  14.272  0.00  0.00    -0.281 N 
ATOM     24  C   UNL     1      -2.262 -10.859  15.572  0.00  0.00    +0.401 C 
ATOM     39  H   UNL     1      -3.523 -11.564  14.102  0.00  0.00    +0.152 HD
BRANCH   8  26
ATOM     26  C   UNL     1      -2.061 -10.361  13.141  0.00  0.00    +0.107 C 
BRANCH  26  28
ATOM     28  C   UNL     1      -2.557 -10.915  11.811  0.00  0.00    +0.015 C 
ATOM     31  C   UNL     1      -2.791  -9.828  10.771  0.00  0.00    +0.005 C 
ENDBRANCH  26  28
ENDBRANCH   8  26
ENDBRANCH   1  24
ENDBRANCH  15   1
BRANCH  11  20
ATOM     20  C   UNL     1      -4.772 -12.766  18.378  0.00  0.00    +0.166 C 
BRANCH  20   3
ATOM      3  O   UNL     1      -4.107 -14.009  18.315  0.00  0.00    -0.394 OA
ATOM     37  H   UNL     1      -3.921 -14.283  19.229  0.00  0.00    +0.209 HD
ENDBRANCH  20   3
ENDBRANCH  11  20
BRANCH  12  22
ATOM     22  C   UNL     1      -9.169  -8.852  17.367  0.00  0.00    +0.102 C 
BRANCH  22  23
ATOM      4  O   UNL     1      -9.520  -8.534  14.993  0.00  0.00    -0.276 OA
ATOM      7  N   UNL     1     -10.292  -6.935  16.492  0.00  0.00    -0.311 N 
ATOM     23  C   UNL     1      -9.663  -8.121  16.141  0.00  0.00    +0.214 C 
ATOM     38  H   UNL     1     -10.334  -6.661  17.469  0.00  0.00    +0.149 HD
BRANCH   7  25
ATOM     25  C   UNL     1     -10.862  -6.027  15.523  0.00  0.00    +0.139 C 
BRANCH  25  27
ATOM     27  C   UNL     1     -12.202  -6.497  15.035  0.00  0.00    -0.030 A 
ATOM     29  C   UNL     1     -13.288  -6.539  15.909  0.00  0.00    +0.009 A 
ATOM     30  C   UNL     1     -12.363  -6.887  13.705  0.00  0.00    +0.009 A 
ATOM     32  C   UNL     1     -14.533  -6.973  15.455  0.00  0.00    +0.046 A 
ATOM     33  C   UNL     1     -13.608  -7.321  13.251  0.00  0.00    +0.046 A 
ATOM     34  C   UNL     1     -14.693  -7.364  14.126  0.00  0.00    +0.120 A 
BRANCH  34   6
ATOM      6  O   UNL     1     -15.909  -7.786  13.682  0.00  0.00    -0.495 OA
ATOM     35  C   UNL     1     -16.773  -6.799  13.121  0.00  0.00    +0.277 C 
ENDBRANCH  34   6
ENDBRANCH  25  27
ENDBRANCH   7  25
ENDBRANCH  22  23
ENDBRANCH  12  22
TORSDOF 12
ENDMDL
MODEL 6
REMARK VINA RESULT:      -5.5     25.722     29.216
REMARK  Name = 44716917
REMARK  16 active torsions:
REMARK  status: ('A' for Active; 'I' for Inactive)
REMARK    1  A    between atoms: O_1  and  C_15
REMARK    2  A    between atoms: O_1  and  C_24
REMARK    3  A    between atoms: O_2  and  C_16
REMARK    4  A    between atoms: O_3  and  C_20
REMARK    5  A    between atoms: O_6  and  C_34
REMARK    6  A    between atoms: O_6  and  C_35
REMARK    7  A    between atoms: N_7  and  C_25
REMARK    8  A    between atoms: N_8  and  C_26
REMARK    9  A    between atoms: C_9  and  C_19
REMARK   10  A    between atoms: C_11  and  C_20
REMARK   11  A    between atoms: C_11  and  C_21
REMARK   12  A    between atoms: C_12  and  C_22
REMARK   13  A    between atoms: C_22  and  C_23
REMARK   14  A    between atoms: C_25  and  C_27
REMARK   15  A    between atoms: C_26  and  C_28
REMARK   16  A    between atoms: C_28  and  C_31
REMARK                            x       y       z     vdW  Elec       q    Type
REMARK                         _______ _______ _______ _____ _____    ______ ____
ROOT
ATOM      9  C   UNL     1      12.207   7.377   4.139  0.00  0.00    -0.023 C 
ATOM     10  C   UNL     1      13.163   7.310   5.392  0.00  0.00    +0.007 C 
ATOM     11  C   UNL     1      14.443   8.229   5.356  0.00  0.00    +0.031 C 
ATOM     12  C   UNL     1      11.198   6.160   4.261  0.00  0.00    +0.032 C 
ATOM     13  C   UNL     1      13.066   7.200   2.858  0.00  0.00    +0.011 C 
ATOM     14  C   UNL     1      12.354   7.386   6.706  0.00  0.00    +0.007 C 
ATOM     15  C   UNL     1      15.172   8.022   3.993  0.00  0.00    +0.186 C 
ATOM     16  C   UNL     1      10.423   6.137   5.600  0.00  0.00    +0.119 C 
ATOM     17  C   UNL     1      14.259   8.147   2.780  0.00  0.00    +0.046 C 
ATOM     18  C   UNL     1      11.351   6.235   6.807  0.00  0.00    +0.032 C 
ATOM     19  C   UNL     1      11.436   8.713   4.017  0.00  0.00    +0.012 C 
ATOM     21  C   UNL     1      15.422   7.783   6.480  0.00  0.00    +0.017 C 
ENDROOT
BRANCH  16   2
ATOM      2  O   UNL     1       9.458   7.182   5.647  0.00  0.00    -0.391 OA
ATOM     36  H   UNL     1       8.881   7.088   4.871  0.00  0.00    +0.210 HD
ENDBRANCH  16   2
BRANCH  15   1
ATOM      1  O   UNL     1      16.237   8.957   3.815  0.00  0.00    -0.446 OA
BRANCH   1  24
ATOM      5  O   UNL     1      17.682   8.192   2.202  0.00  0.00    -0.226 OA
ATOM      8  N   UNL     1      18.272   8.238   4.445  0.00  0.00    -0.281 N 
ATOM     24  C   UNL     1      17.424   8.438   3.376  0.00  0.00    +0.401 C 
ATOM     39  H   UNL     1      17.938   8.487   5.372  0.00  0.00    +0.152 HD
BRANCH   8  26
ATOM     26  C   UNL     1      19.606   7.700   4.321  0.00  0.00    +0.107 C 
BRANCH  26  28
ATOM     28  C   UNL     1      20.446   7.935   5.571  0.00  0.00    +0.015 C 
ATOM     31  C   UNL     1      19.617   8.408   6.757  0.00  0.00    +0.005 C 
ENDBRANCH  26  28
ENDBRANCH   8  26
ENDBRANCH   1  24
ENDBRANCH  15   1
BRANCH  11  20
ATOM     20  C   UNL     1      14.156   9.721   5.619  0.00  0.00    +0.166 C 
BRANCH  20   3
ATOM      3  O   UNL     1      14.707  10.054   6.875  0.00  0.00    -0.394 OA
ATOM     37  H   UNL     1      15.282  10.827   6.743  0.00  0.00    +0.209 HD
ENDBRANCH  20   3
ENDBRANCH  11  20
BRANCH  12  22
ATOM     22  C   UNL     1      10.216   6.014   3.088  0.00  0.00    +0.102 C 
BRANCH  22  23
ATOM      4  O   UNL     1      10.001   4.601   1.135  0.00  0.00    -0.276 OA
ATOM      7  N   UNL     1      11.662   4.155   2.698  0.00  0.00    -0.311 N 
ATOM     23  C   UNL     1      10.586   4.863   2.183  0.00  0.00    +0.214 C 
ATOM     38  H   UNL     1      12.061   4.430   3.591  0.00  0.00    +0.149 HD
BRANCH   7  25
ATOM     25  C   UNL     1      12.232   2.999   2.044  0.00  0.00    +0.139 C 
BRANCH  25  27
ATOM     27  C   UNL     1      13.321   3.377   1.084  0.00  0.00    -0.030 A 
ATOM     29  C   UNL     1      13.042   3.498  -0.278  0.00  0.00    +0.009 A 
ATOM     30  C   UNL     1      14.615   3.611   1.552  0.00  0.00    +0.009 A 
ATOM     32  C   UNL     1      14.054   3.852  -1.169  0.00  0.00    +0.046 A 
ATOM     33  C   UNL     1      15.627   3.964   0.661  0.00  0.00    +0.046 A 
ATOM     34  C   UNL     1      15.346   4.085  -0.700  0.00  0.00    +0.120 A 
BRANCH  34   6
ATOM      6  O   UNL     1      16.334   4.432  -1.570  0.00  0.00    -0.495 OA
ATOM     35  C   UNL     1      15.932   4.985  -2.823  0.00  0.00    +0.277 C 
ENDBRANCH  34   6
ENDBRANCH  25  27
ENDBRANCH   7  25
ENDBRANCH  22  23
ENDBRANCH  12  22
TORSDOF 12
ENDMDL
MODEL 7
REMARK VINA RESULT:      -5.5     27.602     30.892
REMARK  Name = 44716917
REMARK  16 active torsions:
REMARK  status: ('A' for Active; 'I' for Inactive)
REMARK    1  A    between atoms: O_1  and  C_15
REMARK    2  A    between atoms: O_1  and  C_24
REMARK    3  A    between atoms: O_2  and  C_16
REMARK    4  A    between atoms: O_3  and  C_20
REMARK    5  A    between atoms: O_6  and  C_34
REMARK    6  A    between atoms: O_6  and  C_35
REMARK    7  A    between atoms: N_7  and  C_25
REMARK    8  A    between atoms: N_8  and  C_26
REMARK    9  A    between atoms: C_9  and  C_19
REMARK   10  A    between atoms: C_11  and  C_20
REMARK   11  A    between atoms: C_11  and  C_21
REMARK   12  A    between atoms: C_12  and  C_22
REMARK   13  A    between atoms: C_22  and  C_23
REMARK   14  A    between atoms: C_25  and  C_27
REMARK   15  A    between atoms: C_26  and  C_28
REMARK   16  A    between atoms: C_28  and  C_31
REMARK                            x       y       z     vdW  Elec       q    Type
REMARK                         _______ _______ _______ _____ _____    ______ ____
ROOT
ATOM      9  C   UNL     1      14.972   9.219  20.912  0.00  0.00    -0.023 C 
ATOM     10  C   UNL     1      13.757   8.333  21.389  0.00  0.00    +0.007 C 
ATOM     11  C   UNL     1      12.344   9.031  21.427  0.00  0.00    +0.031 C 
ATOM     12  C   UNL     1      16.294   8.417  21.261  0.00  0.00    +0.032 C 
ATOM     13  C   UNL     1      14.955  10.548  21.715  0.00  0.00    +0.011 C 
ATOM     14  C   UNL     1      13.775   6.954  20.692  0.00  0.00    +0.007 C 
ATOM     15  C   UNL     1      12.473  10.387  22.187  0.00  0.00    +0.186 C 
ATOM     16  C   UNL     1      16.326   6.993  20.661  0.00  0.00    +0.119 C 
ATOM     17  C   UNL     1      13.611  11.268  21.684  0.00  0.00    +0.046 C 
ATOM     18  C   UNL     1      15.068   6.196  20.996  0.00  0.00    +0.032 C 
ATOM     19  C   UNL     1      14.931   9.570  19.406  0.00  0.00    +0.012 C 
ATOM     21  C   UNL     1      11.358   8.138  22.235  0.00  0.00    +0.017 C 
ENDROOT
BRANCH  16   2
ATOM      2  O   UNL     1      16.506   7.039  19.250  0.00  0.00    -0.391 OA
ATOM     36  H   UNL     1      17.104   6.312  19.003  0.00  0.00    +0.210 HD
ENDBRANCH  16   2
BRANCH  15   1
ATOM      1  O   UNL     1      11.275  11.159  22.100  0.00  0.00    -0.446 OA
BRANCH   1  24
ATOM      5  O   UNL     1      10.830  11.167  24.354  0.00  0.00    -0.226 OA
ATOM      8  N   UNL     1      10.447  13.032  23.028  0.00  0.00    -0.281 N 
ATOM     24  C   UNL     1      10.847  11.734  23.266  0.00  0.00    +0.401 C 
ATOM     39  H   UNL     1      10.514  13.386  22.078  0.00  0.00    +0.152 HD
BRANCH   8  26
ATOM     26  C   UNL     1       9.940  13.915  24.053  0.00  0.00    +0.107 C 
BRANCH  26  28
ATOM     28  C   UNL     1       9.361  15.201  23.476  0.00  0.00    +0.015 C 
ATOM     31  C   UNL     1       8.216  14.948  22.506  0.00  0.00    +0.005 C 
ENDBRANCH  26  28
ENDBRANCH   8  26
ENDBRANCH   1  24
ENDBRANCH  15   1
BRANCH  11  20
ATOM     20  C   UNL     1      11.697   9.222  20.041  0.00  0.00    +0.166 C 
BRANCH  20   3
ATOM      3  O   UNL     1      10.568   8.378  19.969  0.00  0.00    -0.394 OA
ATOM     37  H   UNL     1       9.797   8.942  19.790  0.00  0.00    +0.209 HD
ENDBRANCH  20   3
ENDBRANCH  11  20
BRANCH  12  22
ATOM     22  C   UNL     1      17.603   9.152  20.929  0.00  0.00    +0.102 C 
BRANCH  22  23
ATOM      4  O   UNL     1      19.127   9.888  22.658  0.00  0.00    -0.276 OA
ATOM      7  N   UNL     1      18.971   7.625  22.152  0.00  0.00    -0.311 N 
ATOM     23  C   UNL     1      18.644   8.966  22.007  0.00  0.00    +0.214 C 
ATOM     38  H   UNL     1      18.539   6.936  21.544  0.00  0.00    +0.149 HD
BRANCH   7  25
ATOM     25  C   UNL     1      19.943   7.150  23.110  0.00  0.00    +0.139 C 
BRANCH  25  27
ATOM     27  C   UNL     1      20.944   6.224  22.483  0.00  0.00    -0.030 A 
ATOM     29  C   UNL     1      22.129   5.920  23.153  0.00  0.00    +0.009 A 
ATOM     30  C   UNL     1      20.687   5.663  21.232  0.00  0.00    +0.009 A 
ATOM     32  C   UNL     1      23.058   5.058  22.571  0.00  0.00    +0.046 A 
ATOM     33  C   UNL     1      21.616   4.801  20.650  0.00  0.00    +0.046 A 
ATOM     34  C   UNL     1      22.801   4.498  21.320  0.00  0.00    +0.120 A 
BRANCH  34   6
ATOM      6  O   UNL     1      23.707   3.655  20.752  0.00  0.00    -0.495 OA
ATOM     35  C   UNL     1      23.454   2.255  20.870  0.00  0.00    +0.277 C 
ENDBRANCH  34   6
ENDBRANCH  25  27
ENDBRANCH   7  25
ENDBRANCH  22  23
ENDBRANCH  12  22
TORSDOF 12
ENDMDL
MODEL 8
REMARK VINA RESULT:      -5.5     27.776     30.725
REMARK  Name = 44716917
REMARK  16 active torsions:
REMARK  status: ('A' for Active; 'I' for Inactive)
REMARK    1  A    between atoms: O_1  and  C_15
REMARK    2  A    between atoms: O_1  and  C_24
REMARK    3  A    between atoms: O_2  and  C_16
REMARK    4  A    between atoms: O_3  and  C_20
REMARK    5  A    between atoms: O_6  and  C_34
REMARK    6  A    between atoms: O_6  and  C_35
REMARK    7  A    between atoms: N_7  and  C_25
REMARK    8  A    between atoms: N_8  and  C_26
REMARK    9  A    between atoms: C_9  and  C_19
REMARK   10  A    between atoms: C_11  and  C_20
REMARK   11  A    between atoms: C_11  and  C_21
REMARK   12  A    between atoms: C_12  and  C_22
REMARK   13  A    between atoms: C_22  and  C_23
REMARK   14  A    between atoms: C_25  and  C_27
REMARK   15  A    between atoms: C_26  and  C_28
REMARK   16  A    between atoms: C_28  and  C_31
REMARK                            x       y       z     vdW  Elec       q    Type
REMARK                         _______ _______ _______ _____ _____    ______ ____
ROOT
ATOM      9  C   UNL     1      13.423   9.418  20.445  0.00  0.00    -0.023 C 
ATOM     10  C   UNL     1      12.356   9.374  21.607  0.00  0.00    +0.007 C 
ATOM     11  C   UNL     1      12.120  10.714  22.401  0.00  0.00    +0.031 C 
ATOM     12  C   UNL     1      13.713   7.917  20.026  0.00  0.00    +0.032 C 
ATOM     13  C   UNL     1      14.726  10.054  20.999  0.00  0.00    +0.011 C 
ATOM     14  C   UNL     1      11.066   8.664  21.143  0.00  0.00    +0.007 C 
ATOM     15  C   UNL     1      13.501  11.295  22.833  0.00  0.00    +0.186 C 
ATOM     16  C   UNL     1      12.440   7.131  19.636  0.00  0.00    +0.119 C 
ATOM     17  C   UNL     1      14.510  11.393  21.696  0.00  0.00    +0.046 C 
ATOM     18  C   UNL     1      11.351   7.228  20.700  0.00  0.00    +0.032 C 
ATOM     19  C   UNL     1      12.970  10.247  19.219  0.00  0.00    +0.012 C 
ATOM     21  C   UNL     1      11.320  10.402  23.700  0.00  0.00    +0.017 C 
ENDROOT
BRANCH  16   2
ATOM      2  O   UNL     1      11.930   7.576  18.383  0.00  0.00    -0.391 OA
ATOM     36  H   UNL     1      10.976   7.390  18.368  0.00  0.00    +0.210 HD
ENDBRANCH  16   2
BRANCH  15   1
ATOM      1  O   UNL     1      13.374  12.601  23.396  0.00  0.00    -0.446 OA
BRANCH   1  24
ATOM      5  O   UNL     1      13.025  13.479  25.489  0.00  0.00    -0.226 OA
ATOM      8  N   UNL     1      14.577  11.796  25.117  0.00  0.00    -0.281 N 
ATOM     24  C   UNL     1      13.605  12.699  24.741  0.00  0.00    +0.401 C 
ATOM     39  H   UNL     1      14.979  11.201  24.398  0.00  0.00    +0.152 HD
BRANCH   8  26
ATOM     26  C   UNL     1      15.052  11.646  26.473  0.00  0.00    +0.107 C 
BRANCH  26  28
ATOM     28  C   UNL     1      16.312  12.461  26.739  0.00  0.00    +0.015 C 
ATOM     31  C   UNL     1      17.183  12.621  25.502  0.00  0.00    +0.005 C 
ENDBRANCH  26  28
ENDBRANCH   8  26
ENDBRANCH   1  24
ENDBRANCH  15   1
BRANCH  11  20
ATOM     20  C   UNL     1      11.284  11.761  21.637  0.00  0.00    +0.166 C 
BRANCH  20   3
ATOM      3  O   UNL     1      10.522  12.482  22.582  0.00  0.00    -0.394 OA
ATOM     37  H   UNL     1      11.056  13.247  22.859  0.00  0.00    +0.209 HD
ENDBRANCH  20   3
ENDBRANCH  11  20
BRANCH  12  22
ATOM     22  C   UNL     1      14.785   7.745  18.938  0.00  0.00    +0.102 C 
BRANCH  22  23
ATOM      4  O   UNL     1      16.269   5.850  18.693  0.00  0.00    -0.276 OA
ATOM      7  N   UNL     1      16.371   7.145  20.620  0.00  0.00    -0.311 N 
ATOM     23  C   UNL     1      15.879   6.797  19.370  0.00  0.00    +0.214 C 
ATOM     38  H   UNL     1      15.961   7.930  21.118  0.00  0.00    +0.149 HD
BRANCH   7  25
ATOM     25  C   UNL     1      17.424   6.412  21.285  0.00  0.00    +0.139 C 
BRANCH  25  27
ATOM     27  C   UNL     1      18.748   7.111  21.178  0.00  0.00    -0.030 A 
ATOM     29  C   UNL     1      18.850   8.466  21.491  0.00  0.00    +0.009 A 
ATOM     30  C   UNL     1      19.879   6.404  20.768  0.00  0.00    +0.009 A 
ATOM     32  C   UNL     1      20.080   9.115  21.394  0.00  0.00    +0.046 A 
ATOM     33  C   UNL     1      21.110   7.053  20.671  0.00  0.00    +0.046 A 
ATOM     34  C   UNL     1      21.210   8.408  20.984  0.00  0.00    +0.120 A 
BRANCH  34   6
ATOM      6  O   UNL     1      22.413   9.040  20.891  0.00  0.00    -0.495 OA
ATOM     35  C   UNL     1      22.562  10.262  21.614  0.00  0.00    +0.277 C 
ENDBRANCH  34   6
ENDBRANCH  25  27
ENDBRANCH   7  25
ENDBRANCH  22  23
ENDBRANCH  12  22
TORSDOF 12
ENDMDL
MODEL 9
REMARK VINA RESULT:      -5.4      1.910      6.384
REMARK  Name = 44716917
REMARK  16 active torsions:
REMARK  status: ('A' for Active; 'I' for Inactive)
REMARK    1  A    between atoms: O_1  and  C_15
REMARK    2  A    between atoms: O_1  and  C_24
REMARK    3  A    between atoms: O_2  and  C_16
REMARK    4  A    between atoms: O_3  and  C_20
REMARK    5  A    between atoms: O_6  and  C_34
REMARK    6  A    between atoms: O_6  and  C_35
REMARK    7  A    between atoms: N_7  and  C_25
REMARK    8  A    between atoms: N_8  and  C_26
REMARK    9  A    between atoms: C_9  and  C_19
REMARK   10  A    between atoms: C_11  and  C_20
REMARK   11  A    between atoms: C_11  and  C_21
REMARK   12  A    between atoms: C_12  and  C_22
REMARK   13  A    between atoms: C_22  and  C_23
REMARK   14  A    between atoms: C_25  and  C_27
REMARK   15  A    between atoms: C_26  and  C_28
REMARK   16  A    between atoms: C_28  and  C_31
REMARK                            x       y       z     vdW  Elec       q    Type
REMARK                         _______ _______ _______ _____ _____    ______ ____
ROOT
ATOM      9  C   UNL     1      -6.543 -11.747  16.302  0.00  0.00    -0.023 C 
ATOM     10  C   UNL     1      -7.286 -10.659  17.171  0.00  0.00    +0.007 C 
ATOM     11  C   UNL     1      -8.823 -10.454  16.885  0.00  0.00    +0.031 C 
ATOM     12  C   UNL     1      -4.989 -11.544  16.538  0.00  0.00    +0.032 C 
ATOM     13  C   UNL     1      -6.871 -11.489  14.807  0.00  0.00    +0.011 C 
ATOM     14  C   UNL     1      -6.923 -10.806  18.665  0.00  0.00    +0.007 C 
ATOM     15  C   UNL     1      -9.031 -10.287  15.349  0.00  0.00    +0.186 C 
ATOM     16  C   UNL     1      -4.581 -11.593  18.028  0.00  0.00    +0.119 C 
ATOM     17  C   UNL     1      -8.363 -11.374  14.515  0.00  0.00    +0.046 C 
ATOM     18  C   UNL     1      -5.418 -10.649  18.888  0.00  0.00    +0.032 C 
ATOM     19  C   UNL     1      -6.958 -13.199  16.640  0.00  0.00    +0.012 C 
ATOM     21  C   UNL     1      -9.295  -9.136  17.565  0.00  0.00    +0.017 C 
ENDROOT
BRANCH  16   2
ATOM      2  O   UNL     1      -4.672 -12.918  18.538  0.00  0.00    -0.391 OA
ATOM     36  H   UNL     1      -4.074 -13.479  18.015  0.00  0.00    +0.210 HD
ENDBRANCH  16   2
BRANCH  15   1
ATOM      1  O   UNL     1     -10.416 -10.282  15.000  0.00  0.00    -0.446 OA
BRANCH   1  24
ATOM      5  O   UNL     1     -10.497  -9.197  12.977  0.00  0.00    -0.226 OA
ATOM      8  N   UNL     1     -11.629  -8.396  14.837  0.00  0.00    -0.281 N 
ATOM     24  C   UNL     1     -10.818  -9.280  14.158  0.00  0.00    +0.401 C 
ATOM     39  H   UNL     1     -11.822  -8.581  15.817  0.00  0.00    +0.152 HD
BRANCH   8  26
ATOM     26  C   UNL     1     -12.221  -7.225  14.234  0.00  0.00    +0.107 C 
BRANCH  26  28
ATOM     28  C   UNL     1     -11.743  -5.932  14.884  0.00  0.00    +0.015 C 
ATOM     31  C   UNL     1     -11.211  -6.144  16.294  0.00  0.00    +0.005 C 
ENDBRANCH  26  28
ENDBRANCH   8  26
ENDBRANCH   1  24
ENDBRANCH  15   1
BRANCH  11  20
ATOM     20  C   UNL     1      -9.724 -11.567  17.458  0.00  0.00    +0.166 C 
BRANCH  20   3
ATOM      3  O   UNL     1     -10.983 -10.998  17.749  0.00  0.00    -0.394 OA
ATOM     37  H   UNL     1     -11.429 -10.836  16.900  0.00  0.00    +0.209 HD
ENDBRANCH  20   3
ENDBRANCH  11  20
BRANCH  12  22
ATOM     22  C   UNL     1      -4.084 -12.479  15.719  0.00  0.00    +0.102 C 
BRANCH  22  23
ATOM      4  O   UNL     1      -2.682 -10.597  15.127  0.00  0.00    -0.276 OA
ATOM      7  N   UNL     1      -2.810 -12.427  13.701  0.00  0.00    -0.311 N 
ATOM     23  C   UNL     1      -3.121 -11.709  14.846  0.00  0.00    +0.214 C 
ATOM     38  H   UNL     1      -3.248 -13.329  13.541  0.00  0.00    +0.149 HD
BRANCH   7  25
ATOM     25  C   UNL     1      -1.911 -11.935  12.681  0.00  0.00    +0.139 C 
BRANCH  25  27
ATOM     27  C   UNL     1      -2.649 -11.264  11.559  0.00  0.00    -0.030 A 
ATOM     29  C   UNL     1      -3.596 -11.976  10.822  0.00  0.00    +0.009 A 
ATOM     30  C   UNL     1      -2.391  -9.928  11.254  0.00  0.00    +0.009 A 
ATOM     32  C   UNL     1      -4.283 -11.352   9.781  0.00  0.00    +0.046 A 
ATOM     33  C   UNL     1      -3.077  -9.304  10.213  0.00  0.00    +0.046 A 
ATOM     34  C   UNL     1      -4.024 -10.016   9.477  0.00  0.00    +0.120 A 
BRANCH  34   6
ATOM      6  O   UNL     1      -4.695  -9.406   8.462  0.00  0.00    -0.495 OA
ATOM     35  C   UNL     1      -5.225 -10.246   7.437  0.00  0.00    +0.277 C 
ENDBRANCH  34   6
ENDBRANCH  25  27
ENDBRANCH   7  25
ENDBRANCH  22  23
ENDBRANCH  12  22
TORSDOF 12
ENDMDL
MODEL 10
REMARK VINA RESULT:      -5.4     28.385     31.170
REMARK  Name = 44716917
REMARK  16 active torsions:
REMARK  status: ('A' for Active; 'I' for Inactive)
REMARK    1  A    between atoms: O_1  and  C_15
REMARK    2  A    between atoms: O_1  and  C_24
REMARK    3  A    between atoms: O_2  and  C_16
REMARK    4  A    between atoms: O_3  and  C_20
REMARK    5  A    between atoms: O_6  and  C_34
REMARK    6  A    between atoms: O_6  and  C_35
REMARK    7  A    between atoms: N_7  and  C_25
REMARK    8  A    between atoms: N_8  and  C_26
REMARK    9  A    between atoms: C_9  and  C_19
REMARK   10  A    between atoms: C_11  and  C_20
REMARK   11  A    between atoms: C_11  and  C_21
REMARK   12  A    between atoms: C_12  and  C_22
REMARK   13  A    between atoms: C_22  and  C_23
REMARK   14  A    between atoms: C_25  and  C_27
REMARK   15  A    between atoms: C_26  and  C_28
REMARK   16  A    between atoms: C_28  and  C_31
REMARK                            x       y       z     vdW  Elec       q    Type
REMARK                         _______ _______ _______ _____ _____    ______ ____
ROOT
ATOM      9  C   UNL     1      14.656   9.961  18.758  0.00  0.00    -0.023 C 
ATOM     10  C   UNL     1      15.052   8.438  18.879  0.00  0.00    +0.007 C 
ATOM     11  C   UNL     1      15.695   7.981  20.244  0.00  0.00    +0.031 C 
ATOM     12  C   UNL     1      14.345  10.236  17.228  0.00  0.00    +0.032 C 
ATOM     13  C   UNL     1      15.873  10.820  19.193  0.00  0.00    +0.011 C 
ATOM     14  C   UNL     1      13.912   7.530  18.369  0.00  0.00    +0.007 C 
ATOM     15  C   UNL     1      16.847   8.965  20.613  0.00  0.00    +0.186 C 
ATOM     16  C   UNL     1      13.269   9.293  16.640  0.00  0.00    +0.119 C 
ATOM     17  C   UNL     1      16.445  10.434  20.553  0.00  0.00    +0.046 C 
ATOM     18  C   UNL     1      13.583   7.823  16.904  0.00  0.00    +0.032 C 
ATOM     19  C   UNL     1      13.448  10.359  19.639  0.00  0.00    +0.012 C 
ATOM     21  C   UNL     1      16.328   6.571  20.061  0.00  0.00    +0.017 C 
ENDROOT
BRANCH  16   2
ATOM      2  O   UNL     1      11.979   9.611  17.151  0.00  0.00    -0.391 OA
ATOM     36  H   UNL     1      11.355   8.945  16.813  0.00  0.00    +0.210 HD
ENDBRANCH  16   2
BRANCH  15   1
ATOM      1  O   UNL     1      17.352   8.721  21.926  0.00  0.00    -0.446 OA
BRANCH   1  24
ATOM      5  O   UNL     1      19.559   9.348  21.829  0.00  0.00    -0.226 OA
ATOM      8  N   UNL     1      18.930   7.177  22.353  0.00  0.00    -0.281 N 
ATOM     24  C   UNL     1      18.699   8.495  22.018  0.00  0.00    +0.401 C 
ATOM     39  H   UNL     1      18.126   6.570  22.486  0.00  0.00    +0.152 HD
BRANCH   8  26
ATOM     26  C   UNL     1      20.249   6.614  22.528  0.00  0.00    +0.107 C 
BRANCH  26  28
ATOM     28  C   UNL     1      20.774   5.960  21.255  0.00  0.00    +0.015 C 
ATOM     31  C   UNL     1      21.789   6.827  20.524  0.00  0.00    +0.005 C 
ENDBRANCH  26  28
ENDBRANCH   8  26
ENDBRANCH   1  24
ENDBRANCH  15   1
BRANCH  11  20
ATOM     20  C   UNL     1      14.685   7.839  21.401  0.00  0.00    +0.166 C 
BRANCH  20   3
ATOM      3  O   UNL     1      15.187   6.875  22.300  0.00  0.00    -0.394 OA
ATOM     37  H   UNL     1      15.716   6.244  21.781  0.00  0.00    +0.209 HD
ENDBRANCH  20   3
ENDBRANCH  11  20
BRANCH  12  22
ATOM     22  C   UNL     1      13.998  11.696  16.892  0.00  0.00    +0.102 C 
BRANCH  22  23
ATOM      4  O   UNL     1      14.196  12.221  14.539  0.00  0.00    -0.276 OA
ATOM      7  N   UNL     1      16.018  12.546  15.945  0.00  0.00    -0.311 N 
ATOM     23  C   UNL     1      14.714  12.174  15.652  0.00  0.00    +0.214 C 
ATOM     38  H   UNL     1      16.367  12.441  16.893  0.00  0.00    +0.149 HD
BRANCH   7  25
ATOM     25  C   UNL     1      16.939  13.042  14.949  0.00  0.00    +0.139 C 
BRANCH  25  27
ATOM     27  C   UNL     1      18.330  12.519  15.160  0.00  0.00    -0.030 A 
ATOM     29  C   UNL     1      18.994  12.767  16.362  0.00  0.00    +0.009 A 
ATOM     30  C   UNL     1      18.959  11.782  14.156  0.00  0.00    +0.009 A 
ATOM     32  C   UNL     1      20.286  12.280  16.559  0.00  0.00    +0.046 A 
ATOM     33  C   UNL     1      20.250  11.294  14.354  0.00  0.00    +0.046 A 
ATOM     34  C   UNL     1      20.914  11.543  15.555  0.00  0.00    +0.120 A 
BRANCH  34   6
ATOM      6  O   UNL     1      22.174  11.065  15.748  0.00  0.00    -0.495 OA
ATOM     35  C   UNL     1      22.739  11.230  17.048  0.00  0.00    +0.277 C 
ENDBRANCH  34   6
ENDBRANCH  25  27
ENDBRANCH   7  25
ENDBRANCH  22  23
ENDBRANCH  12  22
TORSDOF 12
ENDMDL
