MODEL 1
REMARK VINA RESULT:      -7.6      0.000      0.000
REMARK  Name = 51137466
REMARK  6 active torsions:
REMARK  status: ('A' for Active; 'I' for Inactive)
REMARK    1  A    between atoms: O_4  and  C_23
REMARK    2  A    between atoms: O_4  and  C_28
REMARK    3  A    between atoms: N_5  and  C_12
REMARK    4  A    between atoms: C_8  and  C_13
REMARK    5  A    between atoms: C_12  and  C_14
REMARK    6  A    between atoms: C_17  and  C_21
REMARK                            x       y       z     vdW  Elec       q    Type
REMARK                         _______ _______ _______ _____ _____    ______ ____
ROOT
ATOM      5  N   UNL     1      18.614   6.332  20.586  0.00  0.00    -0.297 NA
ATOM      8  C   UNL     1      16.380   6.996  20.320  0.00  0.00    +0.092 C 
ATOM      9  C   UNL     1      17.742   7.482  20.835  0.00  0.00    +0.097 C 
ATOM     10  C   UNL     1      16.722   5.908  19.286  0.00  0.00    +0.029 C 
ATOM     11  C   UNL     1      18.244   5.860  19.253  0.00  0.00    +0.085 C 
ENDROOT
BRANCH   8  13
ATOM      1  O   UNL     1      14.576   7.790  18.866  0.00  0.00    -0.420 OA
ATOM      6  N   UNL     1      15.518   9.393  20.110  0.00  0.00    -0.112 NA
ATOM      7  N   UNL     1      14.525   9.974  19.345  0.00  0.00    -0.107 NA
ATOM     13  C   UNL     1      15.513   8.118  19.799  0.00  0.00    +0.222 A 
ATOM     17  C   UNL     1      14.002   9.002  18.635  0.00  0.00    +0.252 A 
BRANCH  17  21
ATOM     21  C   UNL     1      12.940   9.019  17.672  0.00  0.00    +0.080 A 
ATOM     23  C   UNL     1      11.716   8.411  17.946  0.00  0.00    +0.132 A 
ATOM     24  C   UNL     1      13.144   9.655  16.448  0.00  0.00    +0.017 A 
ATOM     25  C   UNL     1      10.695   8.437  16.997  0.00  0.00    +0.046 A 
ATOM     26  C   UNL     1      12.123   9.682  15.497  0.00  0.00    +0.001 A 
ATOM     27  C   UNL     1      10.899   9.073  15.771  0.00  0.00    +0.004 A 
BRANCH  23   4
ATOM      4  O   UNL     1      11.488   7.782  19.135  0.00  0.00    -0.494 OA
ATOM     28  C   UNL     1      10.902   8.559  20.177  0.00  0.00    +0.277 C 
ENDBRANCH  23   4
ENDBRANCH  17  21
ENDBRANCH   8  13
BRANCH   5  12
ATOM     12  C   UNL     1      20.025   6.676  20.681  0.00  0.00    +0.119 C 
BRANCH  12  14
ATOM      2  O   UNL     1      22.716   4.876  24.425  0.00  0.00    -0.453 OA
ATOM      3  O   UNL     1      22.998   2.737  23.350  0.00  0.00    -0.453 OA
ATOM     14  C   UNL     1      20.820   5.596  21.368  0.00  0.00    -0.030 A 
ATOM     15  C   UNL     1      21.382   5.841  22.623  0.00  0.00    +0.054 A 
ATOM     16  C   UNL     1      20.984   4.349  20.741  0.00  0.00    +0.009 A 
ATOM     18  C   UNL     1      22.098   4.820  23.213  0.00  0.00    +0.167 A 
ATOM     19  C   UNL     1      21.714   3.332  21.361  0.00  0.00    +0.050 A 
ATOM     20  C   UNL     1      22.260   3.600  22.600  0.00  0.00    +0.166 A 
ATOM     22  C   UNL     1      23.284   3.552  24.505  0.00  0.00    +0.466 C 
ENDBRANCH  12  14
ENDBRANCH   5  12
TORSDOF 5
ENDMDL
MODEL 2
REMARK VINA RESULT:      -7.5      2.003     10.428
REMARK  Name = 51137466
REMARK  6 active torsions:
REMARK  status: ('A' for Active; 'I' for Inactive)
REMARK    1  A    between atoms: O_4  and  C_23
REMARK    2  A    between atoms: O_4  and  C_28
REMARK    3  A    between atoms: N_5  and  C_12
REMARK    4  A    between atoms: C_8  and  C_13
REMARK    5  A    between atoms: C_12  and  C_14
REMARK    6  A    between atoms: C_17  and  C_21
REMARK                            x       y       z     vdW  Elec       q    Type
REMARK                         _______ _______ _______ _____ _____    ______ ____
ROOT
ATOM      5  N   UNL     1      17.270   7.483  20.599  0.00  0.00    -0.297 NA
ATOM      8  C   UNL     1      19.472   6.706  20.827  0.00  0.00    +0.092 C 
ATOM      9  C   UNL     1      18.389   7.523  21.544  0.00  0.00    +0.097 C 
ATOM     10  C   UNL     1      18.694   5.779  19.876  0.00  0.00    +0.029 C 
ATOM     11  C   UNL     1      17.226   6.100  20.127  0.00  0.00    +0.085 C 
ENDROOT
BRANCH   8  13
ATOM      1  O   UNL     1      21.128   4.960  21.279  0.00  0.00    -0.420 OA
ATOM      6  N   UNL     1      20.635   6.230  23.053  0.00  0.00    -0.112 NA
ATOM      7  N   UNL     1      21.573   5.295  23.446  0.00  0.00    -0.107 NA
ATOM     13  C   UNL     1      20.404   5.998  21.782  0.00  0.00    +0.222 A 
ATOM     17  C   UNL     1      21.832   4.575  22.379  0.00  0.00    +0.252 A 
BRANCH  17  21
ATOM     21  C   UNL     1      22.725   3.468  22.197  0.00  0.00    +0.080 A 
ATOM     23  C   UNL     1      22.888   2.509  23.196  0.00  0.00    +0.132 A 
ATOM     24  C   UNL     1      23.435   3.358  21.002  0.00  0.00    +0.017 A 
ATOM     25  C   UNL     1      23.762   1.440  23.001  0.00  0.00    +0.046 A 
ATOM     26  C   UNL     1      24.309   2.288  20.806  0.00  0.00    +0.001 A 
ATOM     27  C   UNL     1      24.473   1.330  21.806  0.00  0.00    +0.004 A 
BRANCH  23   4
ATOM      4  O   UNL     1      22.207   2.592  24.375  0.00  0.00    -0.494 OA
ATOM     28  C   UNL     1      22.628   1.726  25.427  0.00  0.00    +0.277 C 
ENDBRANCH  23   4
ENDBRANCH  17  21
ENDBRANCH   8  13
BRANCH   5  12
ATOM     12  C   UNL     1      16.016   7.903  21.206  0.00  0.00    +0.119 C 
BRANCH  12  14
ATOM      2  O   UNL     1      13.631   9.352  17.118  0.00  0.00    -0.453 OA
ATOM      3  O   UNL     1      11.827   7.794  17.476  0.00  0.00    -0.453 OA
ATOM     14  C   UNL     1      14.874   7.849  20.226  0.00  0.00    -0.030 A 
ATOM     15  C   UNL     1      14.872   8.697  19.116  0.00  0.00    +0.054 A 
ATOM     16  C   UNL     1      13.821   6.940  20.435  0.00  0.00    +0.009 A 
ATOM     18  C   UNL     1      13.805   8.608  18.245  0.00  0.00    +0.167 A 
ATOM     19  C   UNL     1      12.753   6.870  19.537  0.00  0.00    +0.050 A 
ATOM     20  C   UNL     1      12.775   7.720  18.450  0.00  0.00    +0.166 A 
ATOM     22  C   UNL     1      12.375   8.829  16.636  0.00  0.00    +0.466 C 
ENDBRANCH  12  14
ENDBRANCH   5  12
TORSDOF 5
ENDMDL
MODEL 3
REMARK VINA RESULT:      -7.2      2.665      9.212
REMARK  Name = 51137466
REMARK  6 active torsions:
REMARK  status: ('A' for Active; 'I' for Inactive)
REMARK    1  A    between atoms: O_4  and  C_23
REMARK    2  A    between atoms: O_4  and  C_28
REMARK    3  A    between atoms: N_5  and  C_12
REMARK    4  A    between atoms: C_8  and  C_13
REMARK    5  A    between atoms: C_12  and  C_14
REMARK    6  A    between atoms: C_17  and  C_21
REMARK                            x       y       z     vdW  Elec       q    Type
REMARK                         _______ _______ _______ _____ _____    ______ ____
ROOT
ATOM      5  N   UNL     1      12.668   8.079  20.790  0.00  0.00    -0.297 NA
ATOM      8  C   UNL     1      14.583   6.727  20.892  0.00  0.00    +0.092 C 
ATOM      9  C   UNL     1      13.458   7.176  19.949  0.00  0.00    +0.097 C 
ATOM     10  C   UNL     1      14.693   7.856  21.932  0.00  0.00    +0.029 C 
ATOM     11  C   UNL     1      13.655   8.886  21.506  0.00  0.00    +0.085 C 
ENDROOT
BRANCH   8  13
ATOM      1  O   UNL     1      17.008   6.387  20.909  0.00  0.00    -0.420 OA
ATOM      6  N   UNL     1      16.065   6.130  18.897  0.00  0.00    -0.112 NA
ATOM      7  N   UNL     1      17.423   5.912  18.762  0.00  0.00    -0.107 NA
ATOM     13  C   UNL     1      15.868   6.404  20.165  0.00  0.00    +0.222 A 
ATOM     17  C   UNL     1      17.933   6.072  19.961  0.00  0.00    +0.252 A 
BRANCH  17  21
ATOM     21  C   UNL     1      19.288   5.968  20.418  0.00  0.00    +0.080 A 
ATOM     23  C   UNL     1      19.955   7.076  20.938  0.00  0.00    +0.132 A 
ATOM     24  C   UNL     1      19.939   4.737  20.337  0.00  0.00    +0.017 A 
ATOM     25  C   UNL     1      21.274   6.956  21.375  0.00  0.00    +0.046 A 
ATOM     26  C   UNL     1      21.259   4.616  20.775  0.00  0.00    +0.001 A 
ATOM     27  C   UNL     1      21.926   5.726  21.294  0.00  0.00    +0.004 A 
BRANCH  23   4
ATOM      4  O   UNL     1      19.343   8.292  21.028  0.00  0.00    -0.494 OA
ATOM     28  C   UNL     1      19.191   8.844  22.334  0.00  0.00    +0.277 C 
ENDBRANCH  23   4
ENDBRANCH  17  21
ENDBRANCH   8  13
BRANCH   5  12
ATOM     12  C   UNL     1      11.743   8.891  20.015  0.00  0.00    +0.119 C 
BRANCH  12  14
ATOM      2  O   UNL     1      14.949  11.174  17.014  0.00  0.00    -0.453 OA
ATOM      3  O   UNL     1      13.928  10.258  15.032  0.00  0.00    -0.453 OA
ATOM     14  C   UNL     1      12.302   9.239  18.660  0.00  0.00    -0.030 A 
ATOM     15  C   UNL     1      13.410  10.085  18.564  0.00  0.00    +0.054 A 
ATOM     16  C   UNL     1      11.706   8.706  17.504  0.00  0.00    +0.009 A 
ATOM     18  C   UNL     1      13.888  10.372  17.302  0.00  0.00    +0.167 A 
ATOM     19  C   UNL     1      12.210   9.013  16.238  0.00  0.00    +0.050 A 
ATOM     20  C   UNL     1      13.304   9.851  16.170  0.00  0.00    +0.166 A 
ATOM     22  C   UNL     1      14.969  11.096  15.573  0.00  0.00    +0.466 C 
ENDBRANCH  12  14
ENDBRANCH   5  12
TORSDOF 5
ENDMDL
MODEL 4
REMARK VINA RESULT:      -7.2     30.072     33.896
REMARK  Name = 51137466
REMARK  6 active torsions:
REMARK  status: ('A' for Active; 'I' for Inactive)
REMARK    1  A    between atoms: O_4  and  C_23
REMARK    2  A    between atoms: O_4  and  C_28
REMARK    3  A    between atoms: N_5  and  C_12
REMARK    4  A    between atoms: C_8  and  C_13
REMARK    5  A    between atoms: C_12  and  C_14
REMARK    6  A    between atoms: C_17  and  C_21
REMARK                            x       y       z     vdW  Elec       q    Type
REMARK                         _______ _______ _______ _____ _____    ______ ____
ROOT
ATOM      5  N   UNL     1     -16.308   4.210  23.730  0.00  0.00    -0.297 NA
ATOM      8  C   UNL     1     -16.561   2.183  24.882  0.00  0.00    +0.092 C 
ATOM      9  C   UNL     1     -15.856   3.544  24.953  0.00  0.00    +0.097 C 
ATOM     10  C   UNL     1     -17.796   2.431  23.997  0.00  0.00    +0.029 C 
ATOM     11  C   UNL     1     -17.737   3.912  23.645  0.00  0.00    +0.085 C 
ENDROOT
BRANCH   8  13
ATOM      1  O   UNL     1     -16.126   2.073  27.289  0.00  0.00    -0.420 OA
ATOM      6  N   UNL     1     -17.743   0.695  26.591  0.00  0.00    -0.112 NA
ATOM      7  N   UNL     1     -17.603   0.531  27.956  0.00  0.00    -0.107 NA
ATOM     13  C   UNL     1     -16.862   1.603  26.245  0.00  0.00    +0.222 A 
ATOM     17  C   UNL     1     -16.649   1.355  28.321  0.00  0.00    +0.252 A 
BRANCH  17  21
ATOM     21  C   UNL     1     -16.083   1.611  29.614  0.00  0.00    +0.080 A 
ATOM     23  C   UNL     1     -15.233   0.686  30.218  0.00  0.00    +0.132 A 
ATOM     24  C   UNL     1     -16.393   2.803  30.266  0.00  0.00    +0.017 A 
ATOM     25  C   UNL     1     -14.694   0.951  31.476  0.00  0.00    +0.046 A 
ATOM     26  C   UNL     1     -15.853   3.070  31.525  0.00  0.00    +0.001 A 
ATOM     27  C   UNL     1     -15.004   2.144  32.130  0.00  0.00    +0.004 A 
BRANCH  23   4
ATOM      4  O   UNL     1     -14.913  -0.489  29.603  0.00  0.00    -0.494 OA
ATOM     28  C   UNL     1     -13.527  -0.811  29.505  0.00  0.00    +0.277 C 
ENDBRANCH  23   4
ENDBRANCH  17  21
ENDBRANCH   8  13
BRANCH   5  12
ATOM     12  C   UNL     1     -16.040   5.641  23.746  0.00  0.00    +0.119 C 
BRANCH  12  14
ATOM      2  O   UNL     1     -13.472   8.708  20.833  0.00  0.00    -0.453 OA
ATOM      3  O   UNL     1     -11.703   7.105  20.503  0.00  0.00    -0.453 OA
ATOM     14  C   UNL     1     -14.862   6.000  22.880  0.00  0.00    -0.030 A 
ATOM     15  C   UNL     1     -14.802   7.259  22.279  0.00  0.00    +0.054 A 
ATOM     16  C   UNL     1     -13.830   5.064  22.688  0.00  0.00    +0.009 A 
ATOM     18  C   UNL     1     -13.701   7.542  21.496  0.00  0.00    +0.167 A 
ATOM     19  C   UNL     1     -12.726   5.377  21.890  0.00  0.00    +0.050 A 
ATOM     20  C   UNL     1     -12.691   6.627  21.307  0.00  0.00    +0.166 A 
ATOM     22  C   UNL     1     -12.204   8.424  20.207  0.00  0.00    +0.466 C 
ENDBRANCH  12  14
ENDBRANCH   5  12
TORSDOF 5
ENDMDL
MODEL 5
REMARK VINA RESULT:      -7.0     27.033     29.685
REMARK  Name = 51137466
REMARK  6 active torsions:
REMARK  status: ('A' for Active; 'I' for Inactive)
REMARK    1  A    between atoms: O_4  and  C_23
REMARK    2  A    between atoms: O_4  and  C_28
REMARK    3  A    between atoms: N_5  and  C_12
REMARK    4  A    between atoms: C_8  and  C_13
REMARK    5  A    between atoms: C_12  and  C_14
REMARK    6  A    between atoms: C_17  and  C_21
REMARK                            x       y       z     vdW  Elec       q    Type
REMARK                         _______ _______ _______ _____ _____    ______ ____
ROOT
ATOM      5  N   UNL     1      -2.273 -11.058  13.828  0.00  0.00    -0.297 NA
ATOM      8  C   UNL     1      -3.261 -10.271  15.804  0.00  0.00    +0.092 C 
ATOM      9  C   UNL     1      -3.594 -10.873  14.432  0.00  0.00    +0.097 C 
ATOM     10  C   UNL     1      -1.826 -10.742  16.098  0.00  0.00    +0.029 C 
ATOM     11  C   UNL     1      -1.440 -11.601  14.901  0.00  0.00    +0.085 C 
ENDROOT
BRANCH   8  13
ATOM      1  O   UNL     1      -5.527 -10.106  16.720  0.00  0.00    -0.420 OA
ATOM      6  N   UNL     1      -4.142 -11.376  17.934  0.00  0.00    -0.112 NA
ATOM      7  N   UNL     1      -5.375 -11.371  18.559  0.00  0.00    -0.107 NA
ATOM     13  C   UNL     1      -4.277 -10.626  16.865  0.00  0.00    +0.222 A 
ATOM     17  C   UNL     1      -6.151 -10.617  17.816  0.00  0.00    +0.252 A 
BRANCH  17  21
ATOM     21  C   UNL     1      -7.530 -10.257  17.977  0.00  0.00    +0.080 A 
ATOM     23  C   UNL     1      -8.343 -10.929  18.888  0.00  0.00    +0.132 A 
ATOM     24  C   UNL     1      -8.055  -9.219  17.207  0.00  0.00    +0.017 A 
ATOM     25  C   UNL     1      -9.682 -10.566  19.030  0.00  0.00    +0.046 A 
ATOM     26  C   UNL     1      -9.394  -8.855  17.349  0.00  0.00    +0.001 A 
ATOM     27  C   UNL     1     -10.207  -9.528  18.260  0.00  0.00    +0.004 A 
BRANCH  23   4
ATOM      4  O   UNL     1      -7.857 -11.949  19.653  0.00  0.00    -0.494 OA
ATOM     28  C   UNL     1      -8.435 -13.237  19.458  0.00  0.00    +0.277 C 
ENDBRANCH  23   4
ENDBRANCH  17  21
ENDBRANCH   8  13
BRANCH   5  12
ATOM     12  C   UNL     1      -2.313 -11.928  12.662  0.00  0.00    +0.119 C 
BRANCH  12  14
ATOM      2  O   UNL     1      -5.345 -11.797   8.753  0.00  0.00    -0.453 OA
ATOM      3  O   UNL     1      -4.771  -9.515   8.234  0.00  0.00    -0.453 OA
ATOM     14  C   UNL     1      -2.952 -11.250  11.479  0.00  0.00    -0.030 A 
ATOM     15  C   UNL     1      -3.874 -11.947  10.696  0.00  0.00    +0.054 A 
ATOM     16  C   UNL     1      -2.616  -9.919  11.176  0.00  0.00    +0.009 A 
ATOM     18  C   UNL     1      -4.435 -11.282   9.624  0.00  0.00    +0.167 A 
ATOM     19  C   UNL     1      -3.199  -9.269  10.085  0.00  0.00    +0.050 A 
ATOM     20  C   UNL     1      -4.107  -9.980   9.327  0.00  0.00    +0.166 A 
ATOM     22  C   UNL     1      -5.554 -10.671   7.875  0.00  0.00    +0.466 C 
ENDBRANCH  12  14
ENDBRANCH   5  12
TORSDOF 5
ENDMDL
MODEL 6
REMARK VINA RESULT:      -7.0     16.019     20.243
REMARK  Name = 51137466
REMARK  6 active torsions:
REMARK  status: ('A' for Active; 'I' for Inactive)
REMARK    1  A    between atoms: O_4  and  C_23
REMARK    2  A    between atoms: O_4  and  C_28
REMARK    3  A    between atoms: N_5  and  C_12
REMARK    4  A    between atoms: C_8  and  C_13
REMARK    5  A    between atoms: C_12  and  C_14
REMARK    6  A    between atoms: C_17  and  C_21
REMARK                            x       y       z     vdW  Elec       q    Type
REMARK                         _______ _______ _______ _____ _____    ______ ____
ROOT
ATOM      5  N   UNL     1      11.083   5.412   3.592  0.00  0.00    -0.297 NA
ATOM      8  C   UNL     1      12.454   4.243   2.090  0.00  0.00    +0.092 C 
ATOM      9  C   UNL     1      10.992   4.415   2.523  0.00  0.00    +0.097 C 
ATOM     10  C   UNL     1      13.136   5.563   2.489  0.00  0.00    +0.029 C 
ATOM     11  C   UNL     1      12.026   6.413   3.094  0.00  0.00    +0.085 C 
ENDROOT
BRANCH   8  13
ATOM      1  O   UNL     1      11.460   3.867  -0.117  0.00  0.00    -0.420 OA
ATOM      6  N   UNL     1      13.671   3.537  -0.044  0.00  0.00    -0.112 NA
ATOM      7  N   UNL     1      13.246   3.293  -1.336  0.00  0.00    -0.107 NA
ATOM     13  C   UNL     1      12.597   3.869   0.633  0.00  0.00    +0.222 A 
ATOM     17  C   UNL     1      11.949   3.498  -1.332  0.00  0.00    +0.252 A 
BRANCH  17  21
ATOM     21  C   UNL     1      10.987   3.395  -2.390  0.00  0.00    +0.080 A 
ATOM     23  C   UNL     1      10.496   4.536  -3.024  0.00  0.00    +0.132 A 
ATOM     24  C   UNL     1      10.542   2.133  -2.783  0.00  0.00    +0.017 A 
ATOM     25  C   UNL     1       9.559   4.416  -4.050  0.00  0.00    +0.046 A 
ATOM     26  C   UNL     1       9.605   2.012  -3.810  0.00  0.00    +0.001 A 
ATOM     27  C   UNL     1       9.114   3.153  -4.443  0.00  0.00    +0.004 A 
BRANCH  23   4
ATOM      4  O   UNL     1      10.913   5.783  -2.661  0.00  0.00    -0.494 OA
ATOM     28  C   UNL     1      11.552   6.569  -3.664  0.00  0.00    +0.277 C 
ENDBRANCH  23   4
ENDBRANCH  17  21
ENDBRANCH   8  13
BRANCH   5  12
ATOM     12  C   UNL     1       9.789   5.987   3.927  0.00  0.00    +0.119 C 
BRANCH  12  14
ATOM      2  O   UNL     1      10.071   4.007   8.454  0.00  0.00    -0.453 OA
ATOM      3  O   UNL     1       8.952   5.883   9.473  0.00  0.00    -0.453 OA
ATOM     14  C   UNL     1       9.546   5.991   5.413  0.00  0.00    -0.030 A 
ATOM     15  C   UNL     1       9.974   4.911   6.188  0.00  0.00    +0.054 A 
ATOM     16  C   UNL     1       8.892   7.086   6.007  0.00  0.00    +0.009 A 
ATOM     18  C   UNL     1       9.731   4.963   7.546  0.00  0.00    +0.167 A 
ATOM     19  C   UNL     1       8.659   7.112   7.384  0.00  0.00    +0.050 A 
ATOM     20  C   UNL     1       9.091   6.033   8.127  0.00  0.00    +0.166 A 
ATOM     22  C   UNL     1       9.575   4.599   9.673  0.00  0.00    +0.466 C 
ENDBRANCH  12  14
ENDBRANCH   5  12
TORSDOF 5
ENDMDL
MODEL 7
REMARK VINA RESULT:      -6.9     27.802     29.366
REMARK  Name = 51137466
REMARK  6 active torsions:
REMARK  status: ('A' for Active; 'I' for Inactive)
REMARK    1  A    between atoms: O_4  and  C_23
REMARK    2  A    between atoms: O_4  and  C_28
REMARK    3  A    between atoms: N_5  and  C_12
REMARK    4  A    between atoms: C_8  and  C_13
REMARK    5  A    between atoms: C_12  and  C_14
REMARK    6  A    between atoms: C_17  and  C_21
REMARK                            x       y       z     vdW  Elec       q    Type
REMARK                         _______ _______ _______ _____ _____    ______ ____
ROOT
ATOM      5  N   UNL     1      -3.139 -11.501  15.084  0.00  0.00    -0.297 NA
ATOM      8  C   UNL     1      -3.590 -11.597  12.784  0.00  0.00    +0.092 C 
ATOM      9  C   UNL     1      -3.822 -10.740  14.035  0.00  0.00    +0.097 C 
ATOM     10  C   UNL     1      -2.313 -12.399  13.093  0.00  0.00    +0.029 C 
ATOM     11  C   UNL     1      -1.881 -11.932  14.477  0.00  0.00    +0.085 C 
ENDROOT
BRANCH   8  13
ATOM      1  O   UNL     1      -4.421 -11.114  10.531  0.00  0.00    -0.420 OA
ATOM      6  N   UNL     1      -2.754  -9.778  11.195  0.00  0.00    -0.112 NA
ATOM      7  N   UNL     1      -3.123  -9.398   9.919  0.00  0.00    -0.107 NA
ATOM     13  C   UNL     1      -3.537 -10.782  11.512  0.00  0.00    +0.222 A 
ATOM     17  C   UNL     1      -4.099 -10.205   9.571  0.00  0.00    +0.252 A 
BRANCH  17  21
ATOM     21  C   UNL     1      -4.863 -10.274   8.360  0.00  0.00    +0.080 A 
ATOM     23  C   UNL     1      -5.963  -9.441   8.160  0.00  0.00    +0.132 A 
ATOM     24  C   UNL     1      -4.494 -11.190   7.376  0.00  0.00    +0.017 A 
ATOM     25  C   UNL     1      -6.696  -9.524   6.976  0.00  0.00    +0.046 A 
ATOM     26  C   UNL     1      -5.226 -11.273   6.191  0.00  0.00    +0.001 A 
ATOM     27  C   UNL     1      -6.326 -10.441   5.991  0.00  0.00    +0.004 A 
BRANCH  23   4
ATOM      4  O   UNL     1      -6.348  -8.536   9.106  0.00  0.00    -0.494 OA
ATOM     28  C   UNL     1      -7.729  -8.182   9.138  0.00  0.00    +0.277 C 
ENDBRANCH  23   4
ENDBRANCH  17  21
ENDBRANCH   8  13
BRANCH   5  12
ATOM     12  C   UNL     1      -2.933 -10.718  16.293  0.00  0.00    +0.119 C 
BRANCH  12  14
ATOM      2  O   UNL     1      -7.534 -10.279  18.063  0.00  0.00    -0.453 OA
ATOM      3  O   UNL     1      -7.034 -11.596  20.019  0.00  0.00    -0.453 OA
ATOM     14  C   UNL     1      -4.009 -10.972  17.315  0.00  0.00    -0.030 A 
ATOM     15  C   UNL     1      -5.289 -10.446  17.119  0.00  0.00    +0.054 A 
ATOM     16  C   UNL     1      -3.717 -11.739  18.456  0.00  0.00    +0.009 A 
ATOM     18  C   UNL     1      -6.242 -10.708  18.082  0.00  0.00    +0.167 A 
ATOM     19  C   UNL     1      -4.702 -11.990  19.415  0.00  0.00    +0.050 A 
ATOM     20  C   UNL     1      -5.956 -11.459  19.199  0.00  0.00    +0.166 A 
ATOM     22  C   UNL     1      -8.029 -10.847  19.294  0.00  0.00    +0.466 C 
ENDBRANCH  12  14
ENDBRANCH   5  12
TORSDOF 5
ENDMDL
MODEL 8
REMARK VINA RESULT:      -6.7     30.000     33.214
REMARK  Name = 51137466
REMARK  6 active torsions:
REMARK  status: ('A' for Active; 'I' for Inactive)
REMARK    1  A    between atoms: O_4  and  C_23
REMARK    2  A    between atoms: O_4  and  C_28
REMARK    3  A    between atoms: N_5  and  C_12
REMARK    4  A    between atoms: C_8  and  C_13
REMARK    5  A    between atoms: C_12  and  C_14
REMARK    6  A    between atoms: C_17  and  C_21
REMARK                            x       y       z     vdW  Elec       q    Type
REMARK                         _______ _______ _______ _____ _____    ______ ____
ROOT
ATOM      5  N   UNL     1     -13.097   8.466  34.184  0.00  0.00    -0.297 NA
ATOM      8  C   UNL     1     -13.839   6.866  32.637  0.00  0.00    +0.092 C 
ATOM      9  C   UNL     1     -13.287   7.019  34.061  0.00  0.00    +0.097 C 
ATOM     10  C   UNL     1     -14.487   8.227  32.324  0.00  0.00    +0.029 C 
ATOM     11  C   UNL     1     -14.294   9.055  33.587  0.00  0.00    +0.085 C 
ENDROOT
BRANCH   8  13
ATOM      1  O   UNL     1     -14.234   4.570  31.883  0.00  0.00    -0.420 OA
ATOM      6  N   UNL     1     -16.007   5.531  32.850  0.00  0.00    -0.112 NA
ATOM      7  N   UNL     1     -16.367   4.250  32.477  0.00  0.00    -0.107 NA
ATOM     13  C   UNL     1     -14.756   5.675  32.485  0.00  0.00    +0.222 A 
ATOM     17  C   UNL     1     -15.302   3.727  31.916  0.00  0.00    +0.252 A 
BRANCH  17  21
ATOM     21  C   UNL     1     -15.093   2.428  31.345  0.00  0.00    +0.080 A 
ATOM     23  C   UNL     1     -14.960   2.266  29.967  0.00  0.00    +0.132 A 
ATOM     24  C   UNL     1     -15.025   1.319  32.187  0.00  0.00    +0.017 A 
ATOM     25  C   UNL     1     -14.759   0.995  29.429  0.00  0.00    +0.046 A 
ATOM     26  C   UNL     1     -14.824   0.047  31.650  0.00  0.00    +0.001 A 
ATOM     27  C   UNL     1     -14.691  -0.115  30.271  0.00  0.00    +0.004 A 
BRANCH  23   4
ATOM      4  O   UNL     1     -15.023   3.333  29.119  0.00  0.00    -0.494 OA
ATOM     28  C   UNL     1     -16.072   3.330  28.153  0.00  0.00    +0.277 C 
ENDBRANCH  23   4
ENDBRANCH  17  21
ENDBRANCH   8  13
BRANCH   5  12
ATOM     12  C   UNL     1     -12.901   8.884  35.565  0.00  0.00    +0.119 C 
BRANCH  12  14
ATOM      2  O   UNL     1      -8.127  10.161  35.300  0.00  0.00    -0.453 OA
ATOM      3  O   UNL     1      -7.493   8.608  37.031  0.00  0.00    -0.453 OA
ATOM     14  C   UNL     1     -11.457   8.782  35.981  0.00  0.00    -0.030 A 
ATOM     15  C   UNL     1     -10.500   9.590  35.365  0.00  0.00    +0.054 A 
ATOM     16  C   UNL     1     -11.088   7.876  36.991  0.00  0.00    +0.009 A 
ATOM     18  C   UNL     1      -9.190   9.463  35.784  0.00  0.00    +0.167 A 
ATOM     19  C   UNL     1      -9.755   7.767  37.396  0.00  0.00    +0.050 A 
ATOM     20  C   UNL     1      -8.829   8.576  36.771  0.00  0.00    +0.166 A 
ATOM     22  C   UNL     1      -7.055   9.614  36.096  0.00  0.00    +0.466 C 
ENDBRANCH  12  14
ENDBRANCH   5  12
TORSDOF 5
ENDMDL
MODEL 9
REMARK VINA RESULT:      -6.6     28.646     31.124
REMARK  Name = 51137466
REMARK  6 active torsions:
REMARK  status: ('A' for Active; 'I' for Inactive)
REMARK    1  A    between atoms: O_4  and  C_23
REMARK    2  A    between atoms: O_4  and  C_28
REMARK    3  A    between atoms: N_5  and  C_12
REMARK    4  A    between atoms: C_8  and  C_13
REMARK    5  A    between atoms: C_12  and  C_14
REMARK    6  A    between atoms: C_17  and  C_21
REMARK                            x       y       z     vdW  Elec       q    Type
REMARK                         _______ _______ _______ _____ _____    ______ ____
ROOT
ATOM      5  N   UNL     1      -9.324  -9.098  16.891  0.00  0.00    -0.297 NA
ATOM      8  C   UNL     1     -11.410  -8.031  16.779  0.00  0.00    +0.092 C 
ATOM      9  C   UNL     1      -9.916  -7.814  16.507  0.00  0.00    +0.097 C 
ATOM     10  C   UNL     1     -11.605  -9.555  16.689  0.00  0.00    +0.029 C 
ATOM     11  C   UNL     1     -10.228 -10.108  16.344  0.00  0.00    +0.085 C 
ENDROOT
BRANCH   8  13
ATOM      1  O   UNL     1     -11.728  -6.722  14.734  0.00  0.00    -0.420 OA
ATOM      6  N   UNL     1     -13.569  -6.914  15.989  0.00  0.00    -0.112 NA
ATOM      7  N   UNL     1     -13.888  -6.159  14.877  0.00  0.00    -0.107 NA
ATOM     13  C   UNL     1     -12.300  -7.221  15.865  0.00  0.00    +0.222 A 
ATOM     17  C   UNL     1     -12.784  -6.072  14.172  0.00  0.00    +0.252 A 
BRANCH  17  21
ATOM     21  C   UNL     1     -12.523  -5.412  12.926  0.00  0.00    +0.080 A 
ATOM     23  C   UNL     1     -12.418  -6.138  11.741  0.00  0.00    +0.132 A 
ATOM     24  C   UNL     1     -12.374  -4.026  12.911  0.00  0.00    +0.017 A 
ATOM     25  C   UNL     1     -12.163  -5.479  10.539  0.00  0.00    +0.046 A 
ATOM     26  C   UNL     1     -12.119  -3.365  11.708  0.00  0.00    +0.001 A 
ATOM     27  C   UNL     1     -12.013  -4.092  10.523  0.00  0.00    +0.004 A 
BRANCH  23   4
ATOM      4  O   UNL     1     -12.559  -7.495  11.726  0.00  0.00    -0.494 OA
ATOM     28  C   UNL     1     -13.405  -8.047  10.720  0.00  0.00    +0.277 C 
ENDBRANCH  23   4
ENDBRANCH  17  21
ENDBRANCH   8  13
BRANCH   5  12
ATOM     12  C   UNL     1      -7.962  -9.249  16.403  0.00  0.00    +0.119 C 
BRANCH  12  14
ATOM      2  O   UNL     1      -3.764 -11.464  17.806  0.00  0.00    -0.453 OA
ATOM      3  O   UNL     1      -4.594 -11.893  20.028  0.00  0.00    -0.453 OA
ATOM     14  C   UNL     1      -7.085  -9.959  17.401  0.00  0.00    -0.030 A 
ATOM     15  C   UNL     1      -5.798 -10.358  17.033  0.00  0.00    +0.054 A 
ATOM     16  C   UNL     1      -7.570 -10.210  18.697  0.00  0.00    +0.009 A 
ATOM     18  C   UNL     1      -5.032 -11.003  17.983  0.00  0.00    +0.167 A 
ATOM     19  C   UNL     1      -6.773 -10.864  19.640  0.00  0.00    +0.050 A 
ATOM     20  C   UNL     1      -5.506 -11.249  19.251  0.00  0.00    +0.166 A 
ATOM     22  C   UNL     1      -3.493 -12.026  19.107  0.00  0.00    +0.466 C 
ENDBRANCH  12  14
ENDBRANCH   5  12
TORSDOF 5
ENDMDL
MODEL 10
REMARK VINA RESULT:      -6.6     27.115     29.567
REMARK  Name = 51137466
REMARK  6 active torsions:
REMARK  status: ('A' for Active; 'I' for Inactive)
REMARK    1  A    between atoms: O_4  and  C_23
REMARK    2  A    between atoms: O_4  and  C_28
REMARK    3  A    between atoms: N_5  and  C_12
REMARK    4  A    between atoms: C_8  and  C_13
REMARK    5  A    between atoms: C_12  and  C_14
REMARK    6  A    between atoms: C_17  and  C_21
REMARK                            x       y       z     vdW  Elec       q    Type
REMARK                         _______ _______ _______ _____ _____    ______ ____
ROOT
ATOM      5  N   UNL     1      -3.535 -11.113  16.353  0.00  0.00    -0.297 NA
ATOM      8  C   UNL     1      -2.884 -11.434  14.123  0.00  0.00    +0.092 C 
ATOM      9  C   UNL     1      -4.043 -10.929  14.992  0.00  0.00    +0.097 C 
ATOM     10  C   UNL     1      -1.634 -11.266  15.006  0.00  0.00    +0.029 C 
ATOM     11  C   UNL     1      -2.148 -10.653  16.303  0.00  0.00    +0.085 C 
ENDROOT
BRANCH   8  13
ATOM      1  O   UNL     1      -3.976 -10.619  12.088  0.00  0.00    -0.420 OA
ATOM      6  N   UNL     1      -1.774 -10.234  12.158  0.00  0.00    -0.112 NA
ATOM      7  N   UNL     1      -2.258  -9.727  10.967  0.00  0.00    -0.107 NA
ATOM     13  C   UNL     1      -2.810 -10.745  12.780  0.00  0.00    +0.222 A 
ATOM     17  C   UNL     1      -3.548  -9.974  10.969  0.00  0.00    +0.252 A 
BRANCH  17  21
ATOM     21  C   UNL     1      -4.554  -9.675   9.993  0.00  0.00    +0.080 A 
ATOM     23  C   UNL     1      -4.798 -10.541   8.928  0.00  0.00    +0.132 A 
ATOM     24  C   UNL     1      -5.294  -8.500  10.119  0.00  0.00    +0.017 A 
ATOM     25  C   UNL     1      -5.780 -10.232   7.987  0.00  0.00    +0.046 A 
ATOM     26  C   UNL     1      -6.278  -8.190   9.179  0.00  0.00    +0.001 A 
ATOM     27  C   UNL     1      -6.520  -9.056   8.113  0.00  0.00    +0.004 A 
BRANCH  23   4
ATOM      4  O   UNL     1      -4.089 -11.697   8.779  0.00  0.00    -0.494 OA
ATOM     28  C   UNL     1      -4.428 -12.525   7.668  0.00  0.00    +0.277 C 
ENDBRANCH  23   4
ENDBRANCH  17  21
ENDBRANCH   8  13
BRANCH   5  12
ATOM     12  C   UNL     1      -4.323 -10.392  17.342  0.00  0.00    +0.119 C 
BRANCH  12  14
ATOM      2  O   UNL     1      -8.509 -11.007  19.909  0.00  0.00    -0.453 OA
ATOM      3  O   UNL     1      -8.772 -13.283  19.163  0.00  0.00    -0.453 OA
ATOM     14  C   UNL     1      -5.505 -11.198  17.813  0.00  0.00    -0.030 A 
ATOM     15  C   UNL     1      -6.440 -10.619  18.674  0.00  0.00    +0.054 A 
ATOM     16  C   UNL     1      -5.657 -12.526  17.378  0.00  0.00    +0.009 A 
ATOM     18  C   UNL     1      -7.507 -11.397  19.076  0.00  0.00    +0.167 A 
ATOM     19  C   UNL     1      -6.747 -13.292  17.800  0.00  0.00    +0.050 A 
ATOM     20  C   UNL     1      -7.656 -12.697  18.651  0.00  0.00    +0.166 A 
ATOM     22  C   UNL     1      -9.308 -12.207  19.959  0.00  0.00    +0.466 C 
ENDBRANCH  12  14
ENDBRANCH   5  12
TORSDOF 5
ENDMDL
