MODEL 1
REMARK VINA RESULT:      -7.7      0.000      0.000
REMARK  Name = 11882034
REMARK  10 active torsions:
REMARK  status: ('A' for Active; 'I' for Inactive)
REMARK    1  A    between atoms: O_5  and  C_36
REMARK    2  A    between atoms: O_5  and  C_37
REMARK    3  A    between atoms: N_7  and  C_12
REMARK    4  A    between atoms: N_8  and  C_18
REMARK    5  A    between atoms: N_9  and  C_28
REMARK    6  A    between atoms: C_13  and  C_16
REMARK    7  A    between atoms: C_17  and  C_21
REMARK    8  A    between atoms: C_18  and  C_20
REMARK    9  A    between atoms: C_18  and  C_23
REMARK   10  A    between atoms: C_20  and  C_22
REMARK                            x       y       z     vdW  Elec       q    Type
REMARK                         _______ _______ _______ _____ _____    ______ ____
ROOT
ATOM      2  O   UNL     1      -3.573 -11.823  18.852  0.00  0.00    -0.276 OA
ATOM      6  N   UNL     1      -5.716 -12.124  18.030  0.00  0.00    -0.288 N 
ATOM     12  C   UNL     1      -7.720 -12.481  16.805  0.00  0.00    +0.094 C 
ATOM     13  C   UNL     1      -5.323 -12.787  16.795  0.00  0.00    +0.164 C 
ATOM     14  C   UNL     1      -6.616 -13.372  16.229  0.00  0.00    +0.055 C 
ATOM     15  C   UNL     1      -7.172 -12.071  18.167  0.00  0.00    +0.131 C 
ATOM     17  C   UNL     1      -4.795 -11.766  19.003  0.00  0.00    +0.213 C 
ATOM     21  C   UNL     1      -5.380 -11.270  20.302  0.00  0.00    +0.109 C 
ENDROOT
BRANCH  12   7
ATOM      3  O   UNL     1      -9.955 -10.697  16.980  0.00  0.00    -0.253 OA
ATOM      7  N   UNL     1      -7.978 -11.337  15.966  0.00  0.00    -0.295 N 
ATOM      9  N   UNL     1      -9.084  -9.487  15.168  0.00  0.00    -0.269 N 
ATOM     19  C   UNL     1      -9.100 -10.511  16.119  0.00  0.00    +0.304 C 
ATOM     38  H   UNL     1      -7.351 -11.157  15.187  0.00  0.00    +0.151 HD
ATOM     40  H   UNL     1      -8.300  -9.477  14.521  0.00  0.00    +0.156 HD
BRANCH   9  28
ATOM     28  C   UNL     1     -10.033  -8.454  14.989  0.00  0.00    +0.035 A 
ATOM     32  C   UNL     1     -11.021  -8.575  14.013  0.00  0.00    +0.027 A 
ATOM     33  C   UNL     1      -9.980  -7.313  15.790  0.00  0.00    +0.027 A 
ATOM     34  C   UNL     1     -11.958  -7.556  13.838  0.00  0.00    +0.047 A 
ATOM     35  C   UNL     1     -10.916  -6.294  15.615  0.00  0.00    +0.047 A 
ATOM     36  C   UNL     1     -11.905  -6.415  14.639  0.00  0.00    +0.120 A 
BRANCH  36   5
ATOM      5  O   UNL     1     -12.820  -5.422  14.470  0.00  0.00    -0.495 OA
ATOM     37  C   UNL     1     -12.652  -4.571  13.337  0.00  0.00    +0.277 C 
ENDBRANCH  36   5
ENDBRANCH   9  28
ENDBRANCH  12   7
BRANCH  13  16
ATOM      1  O   UNL     1      -5.366 -10.791  15.487  0.00  0.00    -0.274 OA
ATOM      8  N   UNL     1      -3.430 -12.084  15.508  0.00  0.00    -0.302 N 
ATOM     16  C   UNL     1      -4.729 -11.769  15.869  0.00  0.00    +0.234 C 
ATOM     39  H   UNL     1      -2.975 -12.874  15.954  0.00  0.00    +0.150 HD
BRANCH   8  18
ATOM     18  C   UNL     1      -2.643 -11.274  14.606  0.00  0.00    +0.163 C 
BRANCH  18  23
ATOM      4  O   UNL     1      -1.055  -9.495  15.075  0.00  0.00    -0.274 OA
ATOM     11  N   UNL     1      -1.483 -11.046  16.714  0.00  0.00    -0.328 N 
ATOM     23  C   UNL     1      -1.637 -10.510  15.453  0.00  0.00    +0.231 C 
ATOM     42  H   UNL     1      -1.989 -11.870  17.021  0.00  0.00    +0.145 HD
ATOM     43  H   UNL     1      -0.851 -10.624  17.386  0.00  0.00    +0.145 HD
ENDBRANCH  18  23
BRANCH  18  20
ATOM     20  C   UNL     1      -1.921 -12.119  13.548  0.00  0.00    +0.069 C 
BRANCH  20  22
ATOM     10  N   UNL     1      -3.902 -13.230  10.658  0.00  0.00    -0.360 N 
ATOM     22  C   UNL     1      -2.721 -12.297  12.289  0.00  0.00    -0.020 A 
ATOM     24  C   UNL     1      -3.076 -11.280  11.359  0.00  0.00    +0.003 A 
ATOM     25  C   UNL     1      -3.244 -13.484  11.830  0.00  0.00    +0.087 A 
ATOM     26  C   UNL     1      -3.816 -11.892  10.345  0.00  0.00    +0.047 A 
ATOM     27  C   UNL     1      -2.837  -9.893  11.282  0.00  0.00    +0.010 A 
ATOM     29  C   UNL     1      -4.332 -11.184   9.254  0.00  0.00    +0.026 A 
ATOM     30  C   UNL     1      -3.347  -9.172  10.197  0.00  0.00    +0.001 A 
ATOM     31  C   UNL     1      -4.082  -9.809   9.198  0.00  0.00    +0.002 A 
ATOM     41  H   UNL     1      -4.382 -13.924  10.102  0.00  0.00    +0.165 HD
ENDBRANCH  20  22
ENDBRANCH  18  20
ENDBRANCH   8  18
ENDBRANCH  13  16
TORSDOF 8
ENDMDL
MODEL 2
REMARK VINA RESULT:      -7.4      2.567      2.967
REMARK  Name = 11882034
REMARK  10 active torsions:
REMARK  status: ('A' for Active; 'I' for Inactive)
REMARK    1  A    between atoms: O_5  and  C_36
REMARK    2  A    between atoms: O_5  and  C_37
REMARK    3  A    between atoms: N_7  and  C_12
REMARK    4  A    between atoms: N_8  and  C_18
REMARK    5  A    between atoms: N_9  and  C_28
REMARK    6  A    between atoms: C_13  and  C_16
REMARK    7  A    between atoms: C_17  and  C_21
REMARK    8  A    between atoms: C_18  and  C_20
REMARK    9  A    between atoms: C_18  and  C_23
REMARK   10  A    between atoms: C_20  and  C_22
REMARK                            x       y       z     vdW  Elec       q    Type
REMARK                         _______ _______ _______ _____ _____    ______ ____
ROOT
ATOM      2  O   UNL     1      -3.905 -11.732  18.975  0.00  0.00    -0.276 OA
ATOM      6  N   UNL     1      -5.864 -12.078  17.792  0.00  0.00    -0.288 N 
ATOM     12  C   UNL     1      -7.616 -12.459  16.233  0.00  0.00    +0.094 C 
ATOM     13  C   UNL     1      -5.240 -12.673  16.619  0.00  0.00    +0.164 C 
ATOM     14  C   UNL     1      -6.392 -13.282  15.822  0.00  0.00    +0.055 C 
ATOM     15  C   UNL     1      -7.323 -12.087  17.683  0.00  0.00    +0.131 C 
ATOM     17  C   UNL     1      -5.136 -11.728  18.919  0.00  0.00    +0.213 C 
ATOM     21  C   UNL     1      -5.952 -11.311  20.117  0.00  0.00    +0.109 C 
ENDROOT
BRANCH  12   7
ATOM      3  O   UNL     1      -8.147 -12.418  13.418  0.00  0.00    -0.253 OA
ATOM      7  N   UNL     1      -7.780 -11.291  15.404  0.00  0.00    -0.295 N 
ATOM      9  N   UNL     1      -8.149 -10.072  13.491  0.00  0.00    -0.269 N 
ATOM     19  C   UNL     1      -8.039 -11.357  14.029  0.00  0.00    +0.304 C 
ATOM     38  H   UNL     1      -7.640 -10.376  15.822  0.00  0.00    +0.151 HD
ATOM     40  H   UNL     1      -8.031  -9.295  14.136  0.00  0.00    +0.156 HD
BRANCH   9  28
ATOM     28  C   UNL     1      -8.405  -9.712  12.147  0.00  0.00    +0.035 A 
ATOM     32  C   UNL     1      -9.709  -9.738  11.654  0.00  0.00    +0.027 A 
ATOM     33  C   UNL     1      -7.352  -9.330  11.315  0.00  0.00    +0.027 A 
ATOM     34  C   UNL     1      -9.961  -9.381  10.329  0.00  0.00    +0.047 A 
ATOM     35  C   UNL     1      -7.604  -8.974   9.990  0.00  0.00    +0.047 A 
ATOM     36  C   UNL     1      -8.908  -8.999   9.497  0.00  0.00    +0.120 A 
BRANCH  36   5
ATOM      5  O   UNL     1      -9.154  -8.650   8.205  0.00  0.00    -0.495 OA
ATOM     37  C   UNL     1      -8.085  -8.043   7.481  0.00  0.00    +0.277 C 
ENDBRANCH  36   5
ENDBRANCH   9  28
ENDBRANCH  12   7
BRANCH  13  16
ATOM      1  O   UNL     1      -5.053 -10.488  15.675  0.00  0.00    -0.274 OA
ATOM      8  N   UNL     1      -3.319 -12.008  15.353  0.00  0.00    -0.302 N 
ATOM     16  C   UNL     1      -4.545 -11.594  15.844  0.00  0.00    +0.234 C 
ATOM     39  H   UNL     1      -2.962 -12.919  15.629  0.00  0.00    +0.150 HD
BRANCH   8  18
ATOM     18  C   UNL     1      -2.461 -11.163  14.554  0.00  0.00    +0.163 C 
BRANCH  18  23
ATOM      4  O   UNL     1      -0.788  -9.526  15.206  0.00  0.00    -0.274 OA
ATOM     11  N   UNL     1      -1.471 -11.076  16.757  0.00  0.00    -0.328 N 
ATOM     23  C   UNL     1      -1.476 -10.500  15.505  0.00  0.00    +0.231 C 
ATOM     42  H   UNL     1      -2.063 -11.865  16.997  0.00  0.00    +0.145 HD
ATOM     43  H   UNL     1      -0.869 -10.721  17.492  0.00  0.00    +0.145 HD
ENDBRANCH  18  23
BRANCH  18  20
ATOM     20  C   UNL     1      -1.714 -11.953  13.471  0.00  0.00    +0.069 C 
BRANCH  20  22
ATOM     10  N   UNL     1      -3.756 -13.282  10.720  0.00  0.00    -0.360 N 
ATOM     22  C   UNL     1      -2.553 -12.224  12.255  0.00  0.00    -0.020 A 
ATOM     24  C   UNL     1      -2.981 -11.270  11.291  0.00  0.00    +0.003 A 
ATOM     25  C   UNL     1      -3.045 -13.452  11.876  0.00  0.00    +0.087 A 
ATOM     26  C   UNL     1      -3.734 -11.960  10.338  0.00  0.00    +0.047 A 
ATOM     27  C   UNL     1      -2.800  -9.881  11.136  0.00  0.00    +0.010 A 
ATOM     29  C   UNL     1      -4.318 -11.328   9.234  0.00  0.00    +0.026 A 
ATOM     30  C   UNL     1      -3.378  -9.235  10.037  0.00  0.00    +0.001 A 
ATOM     31  C   UNL     1      -4.124  -9.950   9.101  0.00  0.00    +0.002 A 
ATOM     41  H   UNL     1      -4.229 -14.021  10.217  0.00  0.00    +0.165 HD
ENDBRANCH  20  22
ENDBRANCH  18  20
ENDBRANCH   8  18
ENDBRANCH  13  16
TORSDOF 8
ENDMDL
MODEL 3
REMARK VINA RESULT:      -7.1     23.967     28.038
REMARK  Name = 11882034
REMARK  10 active torsions:
REMARK  status: ('A' for Active; 'I' for Inactive)
REMARK    1  A    between atoms: O_5  and  C_36
REMARK    2  A    between atoms: O_5  and  C_37
REMARK    3  A    between atoms: N_7  and  C_12
REMARK    4  A    between atoms: N_8  and  C_18
REMARK    5  A    between atoms: N_9  and  C_28
REMARK    6  A    between atoms: C_13  and  C_16
REMARK    7  A    between atoms: C_17  and  C_21
REMARK    8  A    between atoms: C_18  and  C_20
REMARK    9  A    between atoms: C_18  and  C_23
REMARK   10  A    between atoms: C_20  and  C_22
REMARK                            x       y       z     vdW  Elec       q    Type
REMARK                         _______ _______ _______ _____ _____    ______ ____
ROOT
ATOM      2  O   UNL     1       7.308   6.371  -3.826  0.00  0.00    -0.276 OA
ATOM      6  N   UNL     1       8.530   7.368  -2.131  0.00  0.00    -0.288 N 
ATOM     12  C   UNL     1      10.071   8.079  -0.468  0.00  0.00    +0.094 C 
ATOM     13  C   UNL     1       9.811   6.776  -2.487  0.00  0.00    +0.164 C 
ATOM     14  C   UNL     1      10.847   7.556  -1.680  0.00  0.00    +0.055 C 
ATOM     15  C   UNL     1       8.667   8.307  -1.018  0.00  0.00    +0.131 C 
ATOM     17  C   UNL     1       7.388   7.173  -2.893  0.00  0.00    +0.213 C 
ATOM     21  C   UNL     1       6.195   8.010  -2.504  0.00  0.00    +0.109 C 
ENDROOT
BRANCH  12   7
ATOM      3  O   UNL     1       9.942   8.681   2.330  0.00  0.00    -0.253 OA
ATOM      7  N   UNL     1      10.072   7.131   0.618  0.00  0.00    -0.295 N 
ATOM      9  N   UNL     1      10.025   6.381   2.791  0.00  0.00    -0.269 N 
ATOM     19  C   UNL     1      10.006   7.509   1.966  0.00  0.00    +0.304 C 
ATOM     38  H   UNL     1      10.190   6.146   0.402  0.00  0.00    +0.151 HD
ATOM     40  H   UNL     1      10.083   5.478   2.328  0.00  0.00    +0.156 HD
BRANCH   9  28
ATOM     28  C   UNL     1       9.975   6.337   4.203  0.00  0.00    +0.035 A 
ATOM     32  C   UNL     1      11.150   6.187   4.939  0.00  0.00    +0.027 A 
ATOM     33  C   UNL     1       8.750   6.445   4.861  0.00  0.00    +0.027 A 
ATOM     34  C   UNL     1      11.101   6.145   6.332  0.00  0.00    +0.047 A 
ATOM     35  C   UNL     1       8.700   6.402   6.255  0.00  0.00    +0.047 A 
ATOM     36  C   UNL     1       9.875   6.252   6.990  0.00  0.00    +0.120 A 
BRANCH  36   5
ATOM      5  O   UNL     1       9.827   6.213   8.350  0.00  0.00    -0.495 OA
ATOM     37  C   UNL     1       9.489   4.965   8.952  0.00  0.00    +0.277 C 
ENDBRANCH  36   5
ENDBRANCH   9  28
ENDBRANCH  12   7
BRANCH  13  16
ATOM      1  O   UNL     1       9.181   4.923  -1.121  0.00  0.00    -0.274 OA
ATOM      8  N   UNL     1      10.551   4.550  -2.966  0.00  0.00    -0.302 N 
ATOM     16  C   UNL     1       9.795   5.327  -2.105  0.00  0.00    +0.234 C 
ATOM     39  H   UNL     1      10.945   4.980  -3.798  0.00  0.00    +0.150 HD
BRANCH   8  18
ATOM     18  C   UNL     1      10.716   3.123  -2.805  0.00  0.00    +0.163 C 
BRANCH  18  23
ATOM      4  O   UNL     1       9.528   2.851  -4.907  0.00  0.00    -0.274 OA
ATOM     11  N   UNL     1       9.183   1.306  -3.242  0.00  0.00    -0.328 N 
ATOM     23  C   UNL     1       9.749   2.449  -3.767  0.00  0.00    +0.231 C 
ATOM     42  H   UNL     1       9.394   0.973  -2.307  0.00  0.00    +0.145 HD
ATOM     43  H   UNL     1       8.529   0.752  -3.785  0.00  0.00    +0.145 HD
ENDBRANCH  18  23
BRANCH  18  20
ATOM     20  C   UNL     1      12.154   2.670  -3.084  0.00  0.00    +0.069 C 
BRANCH  20  22
ATOM     10  N   UNL     1      14.839   4.962  -2.061  0.00  0.00    -0.360 N 
ATOM     22  C   UNL     1      13.184   3.522  -2.400  0.00  0.00    -0.020 A 
ATOM     24  C   UNL     1      13.424   3.603  -1.000  0.00  0.00    +0.003 A 
ATOM     25  C   UNL     1      14.071   4.369  -3.026  0.00  0.00    +0.087 A 
ATOM     26  C   UNL     1      14.467   4.513  -0.814  0.00  0.00    +0.047 A 
ATOM     27  C   UNL     1      12.851   2.988   0.131  0.00  0.00    +0.010 A 
ATOM     29  C   UNL     1      14.967   4.840   0.451  0.00  0.00    +0.026 A 
ATOM     30  C   UNL     1      13.342   3.305   1.403  0.00  0.00    +0.001 A 
ATOM     31  C   UNL     1      14.385   4.217   1.558  0.00  0.00    +0.002 A 
ATOM     41  H   UNL     1      15.575   5.632  -2.238  0.00  0.00    +0.165 HD
ENDBRANCH  20  22
ENDBRANCH  18  20
ENDBRANCH   8  18
ENDBRANCH  13  16
TORSDOF 8
ENDMDL
MODEL 4
REMARK VINA RESULT:      -7.0      3.126      6.933
REMARK  Name = 11882034
REMARK  10 active torsions:
REMARK  status: ('A' for Active; 'I' for Inactive)
REMARK    1  A    between atoms: O_5  and  C_36
REMARK    2  A    between atoms: O_5  and  C_37
REMARK    3  A    between atoms: N_7  and  C_12
REMARK    4  A    between atoms: N_8  and  C_18
REMARK    5  A    between atoms: N_9  and  C_28
REMARK    6  A    between atoms: C_13  and  C_16
REMARK    7  A    between atoms: C_17  and  C_21
REMARK    8  A    between atoms: C_18  and  C_20
REMARK    9  A    between atoms: C_18  and  C_23
REMARK   10  A    between atoms: C_20  and  C_22
REMARK                            x       y       z     vdW  Elec       q    Type
REMARK                         _______ _______ _______ _____ _____    ______ ____
ROOT
ATOM      2  O   UNL     1      -2.411 -14.916  14.628  0.00  0.00    -0.276 OA
ATOM      6  N   UNL     1      -2.338 -12.919  13.460  0.00  0.00    -0.288 N 
ATOM     12  C   UNL     1      -2.386 -10.692  12.634  0.00  0.00    +0.094 C 
ATOM     13  C   UNL     1      -2.264 -12.053  14.627  0.00  0.00    +0.164 C 
ATOM     14  C   UNL     1      -1.881 -10.679  14.080  0.00  0.00    +0.055 C 
ATOM     15  C   UNL     1      -2.237 -12.151  12.218  0.00  0.00    +0.131 C 
ATOM     17  C   UNL     1      -2.324 -14.302  13.563  0.00  0.00    +0.213 C 
ATOM     21  C   UNL     1      -2.206 -15.051  12.259  0.00  0.00    +0.109 C 
ENDROOT
BRANCH  12   7
ATOM      3  O   UNL     1      -3.735  -9.782  10.276  0.00  0.00    -0.253 OA
ATOM      7  N   UNL     1      -3.755 -10.246  12.541  0.00  0.00    -0.295 N 
ATOM      9  N   UNL     1      -5.672  -9.445  11.558  0.00  0.00    -0.269 N 
ATOM     19  C   UNL     1      -4.341  -9.816  11.344  0.00  0.00    +0.304 C 
ATOM     38  H   UNL     1      -4.302 -10.182  13.394  0.00  0.00    +0.151 HD
ATOM     40  H   UNL     1      -6.022  -9.532  12.508  0.00  0.00    +0.156 HD
BRANCH   9  28
ATOM     28  C   UNL     1      -6.601  -8.959  10.609  0.00  0.00    +0.035 A 
ATOM     32  C   UNL     1      -7.952  -9.282  10.728  0.00  0.00    +0.027 A 
ATOM     33  C   UNL     1      -6.166  -8.155   9.556  0.00  0.00    +0.027 A 
ATOM     34  C   UNL     1      -8.869  -8.800   9.793  0.00  0.00    +0.047 A 
ATOM     35  C   UNL     1      -7.082  -7.674   8.620  0.00  0.00    +0.047 A 
ATOM     36  C   UNL     1      -8.434  -7.997   8.739  0.00  0.00    +0.120 A 
BRANCH  36   5
ATOM      5  O   UNL     1      -9.328  -7.526   7.828  0.00  0.00    -0.495 OA
ATOM     37  C   UNL     1     -10.249  -6.532   8.275  0.00  0.00    +0.277 C 
ENDBRANCH  36   5
ENDBRANCH   9  28
ENDBRANCH  12   7
BRANCH  13  16
ATOM      1  O   UNL     1      -4.650 -12.120  14.650  0.00  0.00    -0.274 OA
ATOM      8  N   UNL     1      -3.510 -11.863  16.663  0.00  0.00    -0.302 N 
ATOM     16  C   UNL     1      -3.607 -12.025  15.292  0.00  0.00    +0.234 C 
ATOM     39  H   UNL     1      -2.591 -11.881  17.096  0.00  0.00    +0.150 HD
BRANCH   8  18
ATOM     18  C   UNL     1      -4.661 -11.781  17.533  0.00  0.00    +0.163 C 
BRANCH  18  23
ATOM      4  O   UNL     1      -4.285 -12.019  19.922  0.00  0.00    -0.274 OA
ATOM     11  N   UNL     1      -4.082 -13.877  18.588  0.00  0.00    -0.328 N 
ATOM     23  C   UNL     1      -4.313 -12.536  18.808  0.00  0.00    +0.231 C 
ATOM     42  H   UNL     1      -4.133 -14.295  17.665  0.00  0.00    +0.145 HD
ATOM     43  H   UNL     1      -3.853 -14.499  19.356  0.00  0.00    +0.145 HD
ENDBRANCH  18  23
BRANCH  18  20
ATOM     20  C   UNL     1      -5.043 -10.331  17.856  0.00  0.00    +0.069 C 
BRANCH  20  22
ATOM     10  N   UNL     1      -8.129  -9.178  16.225  0.00  0.00    -0.360 N 
ATOM     22  C   UNL     1      -6.436  -9.977  17.416  0.00  0.00    -0.020 A 
ATOM     24  C   UNL     1      -7.643 -10.271  18.108  0.00  0.00    +0.003 A 
ATOM     25  C   UNL     1      -6.767  -9.304  16.263  0.00  0.00    +0.087 A 
ATOM     26  C   UNL     1      -8.691  -9.758  17.340  0.00  0.00    +0.047 A 
ATOM     27  C   UNL     1      -7.948 -10.926  19.318  0.00  0.00    +0.010 A 
ATOM     29  C   UNL     1     -10.032  -9.869  17.722  0.00  0.00    +0.026 A 
ATOM     30  C   UNL     1      -9.285 -11.044  19.714  0.00  0.00    +0.001 A 
ATOM     31  C   UNL     1     -10.310 -10.523  18.927  0.00  0.00    +0.002 A 
ATOM     41  H   UNL     1      -8.648  -8.723  15.487  0.00  0.00    +0.165 HD
ENDBRANCH  20  22
ENDBRANCH  18  20
ENDBRANCH   8  18
ENDBRANCH  13  16
TORSDOF 8
ENDMDL
MODEL 5
REMARK VINA RESULT:      -6.9     24.449     28.399
REMARK  Name = 11882034
REMARK  10 active torsions:
REMARK  status: ('A' for Active; 'I' for Inactive)
REMARK    1  A    between atoms: O_5  and  C_36
REMARK    2  A    between atoms: O_5  and  C_37
REMARK    3  A    between atoms: N_7  and  C_12
REMARK    4  A    between atoms: N_8  and  C_18
REMARK    5  A    between atoms: N_9  and  C_28
REMARK    6  A    between atoms: C_13  and  C_16
REMARK    7  A    between atoms: C_17  and  C_21
REMARK    8  A    between atoms: C_18  and  C_20
REMARK    9  A    between atoms: C_18  and  C_23
REMARK   10  A    between atoms: C_20  and  C_22
REMARK                            x       y       z     vdW  Elec       q    Type
REMARK                         _______ _______ _______ _____ _____    ______ ____
ROOT
ATOM      2  O   UNL     1       8.576   8.431   7.588  0.00  0.00    -0.276 OA
ATOM      6  N   UNL     1       9.078   6.997   5.842  0.00  0.00    -0.288 N 
ATOM     12  C   UNL     1       9.842   5.324   4.338  0.00  0.00    +0.094 C 
ATOM     13  C   UNL     1       9.561   5.900   6.668  0.00  0.00    +0.164 C 
ATOM     14  C   UNL     1       9.652   4.702   5.724  0.00  0.00    +0.055 C 
ATOM     15  C   UNL     1       9.062   6.631   4.425  0.00  0.00    +0.131 C 
ATOM     17  C   UNL     1       8.544   8.154   6.387  0.00  0.00    +0.213 C 
ATOM     21  C   UNL     1       7.910   9.106   5.403  0.00  0.00    +0.109 C 
ENDROOT
BRANCH  12   7
ATOM      3  O   UNL     1      11.235   4.522   1.966  0.00  0.00    -0.253 OA
ATOM      7  N   UNL     1      11.234   5.550   4.038  0.00  0.00    -0.295 N 
ATOM      9  N   UNL     1      13.192   5.482   2.836  0.00  0.00    -0.269 N 
ATOM     19  C   UNL     1      11.841   5.124   2.849  0.00  0.00    +0.304 C 
ATOM     38  H   UNL     1      11.818   5.983   4.747  0.00  0.00    +0.151 HD
ATOM     40  H   UNL     1      13.540   5.979   3.652  0.00  0.00    +0.156 HD
BRANCH   9  28
ATOM     28  C   UNL     1      14.146   5.236   1.822  0.00  0.00    +0.035 A 
ATOM     32  C   UNL     1      14.516   6.258   0.949  0.00  0.00    +0.027 A 
ATOM     33  C   UNL     1      14.717   3.970   1.695  0.00  0.00    +0.027 A 
ATOM     34  C   UNL     1      15.458   6.015  -0.051  0.00  0.00    +0.047 A 
ATOM     35  C   UNL     1      15.659   3.726   0.694  0.00  0.00    +0.047 A 
ATOM     36  C   UNL     1      16.029   4.749  -0.178  0.00  0.00    +0.120 A 
BRANCH  36   5
ATOM      5  O   UNL     1      16.950   4.513  -1.153  0.00  0.00    -0.495 OA
ATOM     37  C   UNL     1      17.460   5.646  -1.853  0.00  0.00    +0.277 C 
ENDBRANCH  36   5
ENDBRANCH   9  28
ENDBRANCH  12   7
BRANCH  13  16
ATOM      1  O   UNL     1      11.460   5.590   8.080  0.00  0.00    -0.274 OA
ATOM      8  N   UNL     1      11.397   7.437   6.665  0.00  0.00    -0.302 N 
ATOM     16  C   UNL     1      10.904   6.268   7.220  0.00  0.00    +0.234 C 
ATOM     39  H   UNL     1      10.888   7.868   5.898  0.00  0.00    +0.150 HD
BRANCH   8  18
ATOM     18  C   UNL     1      12.664   8.020   7.044  0.00  0.00    +0.163 C 
BRANCH  18  23
ATOM      4  O   UNL     1      14.110   7.390   5.195  0.00  0.00    -0.274 OA
ATOM     11  N   UNL     1      14.334   6.279   7.193  0.00  0.00    -0.328 N 
ATOM     23  C   UNL     1      13.752   7.208   6.357  0.00  0.00    +0.231 C 
ATOM     42  H   UNL     1      14.044   6.157   8.158  0.00  0.00    +0.145 HD
ATOM     43  H   UNL     1      15.084   5.680   6.865  0.00  0.00    +0.145 HD
ENDBRANCH  18  23
BRANCH  18  20
ATOM     20  C   UNL     1      12.765   9.498   6.646  0.00  0.00    +0.069 C 
BRANCH  20  22
ATOM     10  N   UNL     1      10.091  11.246   8.464  0.00  0.00    -0.360 N 
ATOM     22  C   UNL     1      11.605  10.319   7.132  0.00  0.00    -0.020 A 
ATOM     24  C   UNL     1      10.763  11.149   6.340  0.00  0.00    +0.003 A 
ATOM     25  C   UNL     1      11.166  10.400   8.434  0.00  0.00    +0.087 A 
ATOM     26  C   UNL     1       9.822  11.719   7.199  0.00  0.00    +0.047 A 
ATOM     27  C   UNL     1      10.712  11.472   4.969  0.00  0.00    +0.010 A 
ATOM     29  C   UNL     1       8.829  12.599   6.756  0.00  0.00    +0.026 A 
ATOM     30  C   UNL     1       9.724  12.350   4.510  0.00  0.00    +0.001 A 
ATOM     31  C   UNL     1       8.796  12.904   5.392  0.00  0.00    +0.002 A 
ATOM     41  H   UNL     1       9.569  11.489   9.295  0.00  0.00    +0.165 HD
ENDBRANCH  20  22
ENDBRANCH  18  20
ENDBRANCH   8  18
ENDBRANCH  13  16
TORSDOF 8
ENDMDL
MODEL 6
REMARK VINA RESULT:      -6.9      3.051      6.771
REMARK  Name = 11882034
REMARK  10 active torsions:
REMARK  status: ('A' for Active; 'I' for Inactive)
REMARK    1  A    between atoms: O_5  and  C_36
REMARK    2  A    between atoms: O_5  and  C_37
REMARK    3  A    between atoms: N_7  and  C_12
REMARK    4  A    between atoms: N_8  and  C_18
REMARK    5  A    between atoms: N_9  and  C_28
REMARK    6  A    between atoms: C_13  and  C_16
REMARK    7  A    between atoms: C_17  and  C_21
REMARK    8  A    between atoms: C_18  and  C_20
REMARK    9  A    between atoms: C_18  and  C_23
REMARK   10  A    between atoms: C_20  and  C_22
REMARK                            x       y       z     vdW  Elec       q    Type
REMARK                         _______ _______ _______ _____ _____    ______ ____
ROOT
ATOM      2  O   UNL     1      -2.402 -14.983  14.712  0.00  0.00    -0.276 OA
ATOM      6  N   UNL     1      -2.344 -12.925  13.654  0.00  0.00    -0.288 N 
ATOM     12  C   UNL     1      -2.432 -10.660  12.942  0.00  0.00    +0.094 C 
ATOM     13  C   UNL     1      -2.354 -12.120  14.866  0.00  0.00    +0.164 C 
ATOM     14  C   UNL     1      -1.994 -10.708  14.409  0.00  0.00    +0.055 C 
ATOM     15  C   UNL     1      -2.213 -12.090  12.459  0.00  0.00    +0.131 C 
ATOM     17  C   UNL     1      -2.287 -14.310  13.686  0.00  0.00    +0.213 C 
ATOM     21  C   UNL     1      -2.084 -14.985  12.352  0.00  0.00    +0.109 C 
ENDROOT
BRANCH  12   7
ATOM      3  O   UNL     1      -3.745  -9.834  10.533  0.00  0.00    -0.253 OA
ATOM      7  N   UNL     1      -3.809 -10.255  12.806  0.00  0.00    -0.295 N 
ATOM      9  N   UNL     1      -5.722  -9.526  11.760  0.00  0.00    -0.269 N 
ATOM     19  C   UNL     1      -4.377  -9.864  11.586  0.00  0.00    +0.304 C 
ATOM     38  H   UNL     1      -4.379 -10.189  13.644  0.00  0.00    +0.151 HD
ATOM     40  H   UNL     1      -6.094  -9.604  12.703  0.00  0.00    +0.156 HD
BRANCH   9  28
ATOM     28  C   UNL     1      -6.640  -9.084  10.780  0.00  0.00    +0.035 A 
ATOM     32  C   UNL     1      -6.192  -8.340   9.689  0.00  0.00    +0.027 A 
ATOM     33  C   UNL     1      -7.995  -9.394  10.903  0.00  0.00    +0.027 A 
ATOM     34  C   UNL     1      -7.098  -7.905   8.722  0.00  0.00    +0.047 A 
ATOM     35  C   UNL     1      -8.901  -8.959   9.936  0.00  0.00    +0.047 A 
ATOM     36  C   UNL     1      -8.452  -8.215   8.845  0.00  0.00    +0.120 A 
BRANCH  36   5
ATOM      5  O   UNL     1      -9.336  -7.792   7.900  0.00  0.00    -0.495 OA
ATOM     37  C   UNL     1      -8.854  -6.866   6.928  0.00  0.00    +0.277 C 
ENDBRANCH  36   5
ENDBRANCH   9  28
ENDBRANCH  12   7
BRANCH  13  16
ATOM      1  O   UNL     1      -4.723 -12.408  14.787  0.00  0.00    -0.274 OA
ATOM      8  N   UNL     1      -3.715 -11.903  16.824  0.00  0.00    -0.302 N 
ATOM     16  C   UNL     1      -3.727 -12.170  15.466  0.00  0.00    +0.234 C 
ATOM     39  H   UNL     1      -2.822 -11.805  17.297  0.00  0.00    +0.150 HD
BRANCH   8  18
ATOM     18  C   UNL     1      -4.912 -11.868  17.633  0.00  0.00    +0.163 C 
BRANCH  18  23
ATOM      4  O   UNL     1      -5.224 -11.564  20.024  0.00  0.00    -0.274 OA
ATOM     11  N   UNL     1      -3.135 -12.124  19.251  0.00  0.00    -0.328 N 
ATOM     23  C   UNL     1      -4.468 -11.813  19.088  0.00  0.00    +0.231 C 
ATOM     42  H   UNL     1      -2.528 -12.352  18.470  0.00  0.00    +0.145 HD
ATOM     43  H   UNL     1      -2.712 -12.138  20.173  0.00  0.00    +0.145 HD
ENDBRANCH  18  23
BRANCH  18  20
ATOM     20  C   UNL     1      -5.804 -10.665  17.299  0.00  0.00    +0.069 C 
BRANCH  20  22
ATOM     10  N   UNL     1      -9.143 -12.188  17.094  0.00  0.00    -0.360 N 
ATOM     22  C   UNL     1      -7.262 -11.016  17.222  0.00  0.00    -0.020 A 
ATOM     24  C   UNL     1      -8.354 -10.105  17.209  0.00  0.00    +0.003 A 
ATOM     25  C   UNL     1      -7.779 -12.290  17.149  0.00  0.00    +0.087 A 
ATOM     26  C   UNL     1      -9.523 -10.865  17.127  0.00  0.00    +0.047 A 
ATOM     27  C   UNL     1      -8.462  -8.700  17.258  0.00  0.00    +0.010 A 
ATOM     29  C   UNL     1     -10.798 -10.290  17.094  0.00  0.00    +0.026 A 
ATOM     30  C   UNL     1      -9.730  -8.111  17.226  0.00  0.00    +0.001 A 
ATOM     31  C   UNL     1     -10.880  -8.895  17.144  0.00  0.00    +0.002 A 
ATOM     41  H   UNL     1      -9.779 -12.971  17.035  0.00  0.00    +0.165 HD
ENDBRANCH  20  22
ENDBRANCH  18  20
ENDBRANCH   8  18
ENDBRANCH  13  16
TORSDOF 8
ENDMDL
MODEL 7
REMARK VINA RESULT:      -6.8      4.312      7.509
REMARK  Name = 11882034
REMARK  10 active torsions:
REMARK  status: ('A' for Active; 'I' for Inactive)
REMARK    1  A    between atoms: O_5  and  C_36
REMARK    2  A    between atoms: O_5  and  C_37
REMARK    3  A    between atoms: N_7  and  C_12
REMARK    4  A    between atoms: N_8  and  C_18
REMARK    5  A    between atoms: N_9  and  C_28
REMARK    6  A    between atoms: C_13  and  C_16
REMARK    7  A    between atoms: C_17  and  C_21
REMARK    8  A    between atoms: C_18  and  C_20
REMARK    9  A    between atoms: C_18  and  C_23
REMARK   10  A    between atoms: C_20  and  C_22
REMARK                            x       y       z     vdW  Elec       q    Type
REMARK                         _______ _______ _______ _____ _____    ______ ____
ROOT
ATOM      2  O   UNL     1      -4.605 -12.845   8.592  0.00  0.00    -0.276 OA
ATOM      6  N   UNL     1      -6.262 -11.536   7.644  0.00  0.00    -0.288 N 
ATOM     12  C   UNL     1      -7.691  -9.867   6.741  0.00  0.00    +0.094 C 
ATOM     13  C   UNL     1      -5.407 -10.404   7.319  0.00  0.00    +0.164 C 
ATOM     14  C   UNL     1      -6.241  -9.532   6.382  0.00  0.00    +0.055 C 
ATOM     15  C   UNL     1      -7.626 -11.333   7.153  0.00  0.00    +0.131 C 
ATOM     17  C   UNL     1      -5.762 -12.709   8.188  0.00  0.00    +0.213 C 
ATOM     21  C   UNL     1      -6.740 -13.853   8.281  0.00  0.00    +0.109 C 
ENDROOT
BRANCH  12   7
ATOM      3  O   UNL     1      -9.668  -7.803   6.527  0.00  0.00    -0.253 OA
ATOM      7  N   UNL     1      -8.185  -9.032   7.808  0.00  0.00    -0.295 N 
ATOM      9  N   UNL     1      -9.438  -7.397   8.827  0.00  0.00    -0.269 N 
ATOM     19  C   UNL     1      -9.158  -8.041   7.619  0.00  0.00    +0.304 C 
ATOM     38  H   UNL     1      -7.765  -9.123   8.728  0.00  0.00    +0.151 HD
ATOM     40  H   UNL     1      -8.924  -7.715   9.644  0.00  0.00    +0.156 HD
BRANCH   9  28
ATOM     28  C   UNL     1     -10.355  -6.345   9.058  0.00  0.00    +0.035 A 
ATOM     32  C   UNL     1      -9.983  -5.026   8.804  0.00  0.00    +0.027 A 
ATOM     33  C   UNL     1     -11.634  -6.628   9.539  0.00  0.00    +0.027 A 
ATOM     34  C   UNL     1     -10.888  -3.989   9.030  0.00  0.00    +0.047 A 
ATOM     35  C   UNL     1     -12.539  -5.592   9.767  0.00  0.00    +0.047 A 
ATOM     36  C   UNL     1     -12.166  -4.272   9.511  0.00  0.00    +0.120 A 
BRANCH  36   5
ATOM      5  O   UNL     1     -13.051  -3.260   9.731  0.00  0.00    -0.495 OA
ATOM     37  C   UNL     1     -14.201  -3.210   8.889  0.00  0.00    +0.277 C 
ENDBRANCH  36   5
ENDBRANCH   9  28
ENDBRANCH  12   7
BRANCH  13  16
ATOM      1  O   UNL     1      -4.323  -8.702   8.593  0.00  0.00    -0.274 OA
ATOM      8  N   UNL     1      -5.664 -10.253   9.695  0.00  0.00    -0.302 N 
ATOM     16  C   UNL     1      -5.067  -9.679   8.586  0.00  0.00    +0.234 C 
ATOM     39  H   UNL     1      -6.330 -11.008   9.558  0.00  0.00    +0.150 HD
BRANCH   8  18
ATOM     18  C   UNL     1      -5.477  -9.757  11.039  0.00  0.00    +0.163 C 
BRANCH  18  23
ATOM      4  O   UNL     1      -7.777  -9.030  10.745  0.00  0.00    -0.274 OA
ATOM     11  N   UNL     1      -6.815  -8.818  12.820  0.00  0.00    -0.328 N 
ATOM     23  C   UNL     1      -6.803  -9.157  11.484  0.00  0.00    +0.231 C 
ATOM     42  H   UNL     1      -6.010  -8.952  13.424  0.00  0.00    +0.145 HD
ATOM     43  H   UNL     1      -7.643  -8.419  13.249  0.00  0.00    +0.145 HD
ENDBRANCH  18  23
BRANCH  18  20
ATOM     20  C   UNL     1      -5.035 -10.860  12.009  0.00  0.00    +0.069 C 
BRANCH  20  22
ATOM     10  N   UNL     1      -1.505 -10.166  12.762  0.00  0.00    -0.360 N 
ATOM     22  C   UNL     1      -3.670 -10.623  12.589  0.00  0.00    -0.020 A 
ATOM     24  C   UNL     1      -3.309 -10.692  13.964  0.00  0.00    +0.003 A 
ATOM     25  C   UNL     1      -2.539 -10.298  11.876  0.00  0.00    +0.087 A 
ATOM     26  C   UNL     1      -1.946 -10.402  14.045  0.00  0.00    +0.047 A 
ATOM     27  C   UNL     1      -4.014 -10.974  15.151  0.00  0.00    +0.010 A 
ATOM     29  C   UNL     1      -1.249 -10.379  15.258  0.00  0.00    +0.026 A 
ATOM     30  C   UNL     1      -3.331 -10.955  16.372  0.00  0.00    +0.001 A 
ATOM     31  C   UNL     1      -1.968 -10.663  16.423  0.00  0.00    +0.002 A 
ATOM     41  H   UNL     1      -0.554  -9.932  12.511  0.00  0.00    +0.165 HD
ENDBRANCH  20  22
ENDBRANCH  18  20
ENDBRANCH   8  18
ENDBRANCH  13  16
TORSDOF 8
ENDMDL
MODEL 8
REMARK VINA RESULT:      -6.8     27.756     31.174
REMARK  Name = 11882034
REMARK  10 active torsions:
REMARK  status: ('A' for Active; 'I' for Inactive)
REMARK    1  A    between atoms: O_5  and  C_36
REMARK    2  A    between atoms: O_5  and  C_37
REMARK    3  A    between atoms: N_7  and  C_12
REMARK    4  A    between atoms: N_8  and  C_18
REMARK    5  A    between atoms: N_9  and  C_28
REMARK    6  A    between atoms: C_13  and  C_16
REMARK    7  A    between atoms: C_17  and  C_21
REMARK    8  A    between atoms: C_18  and  C_20
REMARK    9  A    between atoms: C_18  and  C_23
REMARK   10  A    between atoms: C_20  and  C_22
REMARK                            x       y       z     vdW  Elec       q    Type
REMARK                         _______ _______ _______ _____ _____    ______ ____
ROOT
ATOM      2  O   UNL     1      16.197  -3.590  -5.572  0.00  0.00    -0.276 OA
ATOM      6  N   UNL     1      18.275  -3.923  -4.609  0.00  0.00    -0.288 N 
ATOM     12  C   UNL     1      20.257  -4.657  -3.524  0.00  0.00    +0.094 C 
ATOM     13  C   UNL     1      18.217  -5.378  -4.601  0.00  0.00    +0.164 C 
ATOM     14  C   UNL     1      19.644  -5.830  -4.294  0.00  0.00    +0.055 C 
ATOM     15  C   UNL     1      19.569  -3.438  -4.127  0.00  0.00    +0.131 C 
ATOM     17  C   UNL     1      17.277  -3.147  -5.177  0.00  0.00    +0.213 C 
ATOM     21  C   UNL     1      17.578  -1.672  -5.280  0.00  0.00    +0.109 C 
ENDROOT
BRANCH  12   7
ATOM      3  O   UNL     1      21.949  -5.919  -1.587  0.00  0.00    -0.253 OA
ATOM      7  N   UNL     1      20.016  -4.761  -2.106  0.00  0.00    -0.295 N 
ATOM      9  N   UNL     1      20.404  -5.343   0.083  0.00  0.00    -0.269 N 
ATOM     19  C   UNL     1      20.898  -5.398  -1.223  0.00  0.00    +0.304 C 
ATOM     38  H   UNL     1      19.136  -4.413  -1.738  0.00  0.00    +0.151 HD
ATOM     40  H   UNL     1      19.512  -4.873   0.214  0.00  0.00    +0.156 HD
BRANCH   9  28
ATOM     28  C   UNL     1      20.993  -5.867   1.257  0.00  0.00    +0.035 A 
ATOM     32  C   UNL     1      21.728  -5.033   2.100  0.00  0.00    +0.027 A 
ATOM     33  C   UNL     1      20.839  -7.217   1.572  0.00  0.00    +0.027 A 
ATOM     34  C   UNL     1      22.308  -5.550   3.259  0.00  0.00    +0.047 A 
ATOM     35  C   UNL     1      21.420  -7.734   2.731  0.00  0.00    +0.047 A 
ATOM     36  C   UNL     1      22.154  -6.900   3.574  0.00  0.00    +0.120 A 
BRANCH  36   5
ATOM      5  O   UNL     1      22.719  -7.403   4.706  0.00  0.00    -0.495 OA
ATOM     37  C   UNL     1      21.859  -7.608   5.825  0.00  0.00    +0.277 C 
ENDBRANCH  36   5
ENDBRANCH   9  28
ENDBRANCH  12   7
BRANCH  13  16
ATOM      1  O   UNL     1      17.614  -5.973  -2.370  0.00  0.00    -0.274 OA
ATOM      8  N   UNL     1      15.985  -6.029  -4.032  0.00  0.00    -0.302 N 
ATOM     16  C   UNL     1      17.260  -5.816  -3.535  0.00  0.00    +0.234 C 
ATOM     39  H   UNL     1      15.787  -5.785  -4.997  0.00  0.00    +0.150 HD
BRANCH   8  18
ATOM     18  C   UNL     1      14.883  -6.479  -3.212  0.00  0.00    +0.163 C 
BRANCH  18  23
ATOM      4  O   UNL     1      13.529  -5.285  -4.839  0.00  0.00    -0.274 OA
ATOM     11  N   UNL     1      12.608  -5.777  -2.794  0.00  0.00    -0.328 N 
ATOM     23  C   UNL     1      13.633  -5.771  -3.715  0.00  0.00    +0.231 C 
ATOM     42  H   UNL     1      12.700  -6.204  -1.878  0.00  0.00    +0.145 HD
ATOM     43  H   UNL     1      11.713  -5.350  -3.007  0.00  0.00    +0.145 HD
ENDBRANCH  18  23
BRANCH  18  20
ATOM     20  C   UNL     1      14.698  -8.000  -3.271  0.00  0.00    +0.069 C 
BRANCH  20  22
ATOM     10  N   UNL     1      14.934  -9.220  -6.730  0.00  0.00    -0.360 N 
ATOM     22  C   UNL     1      15.056  -8.586  -4.607  0.00  0.00    -0.020 A 
ATOM     24  C   UNL     1      16.279  -9.226  -4.951  0.00  0.00    +0.003 A 
ATOM     25  C   UNL     1      14.249  -8.599  -5.721  0.00  0.00    +0.087 A 
ATOM     26  C   UNL     1      16.177  -9.615  -6.288  0.00  0.00    +0.047 A 
ATOM     27  C   UNL     1      17.468  -9.514  -4.251  0.00  0.00    +0.010 A 
ATOM     29  C   UNL     1      17.207 -10.278  -6.964  0.00  0.00    +0.026 A 
ATOM     30  C   UNL     1      18.508 -10.176  -4.913  0.00  0.00    +0.001 A 
ATOM     31  C   UNL     1      18.377 -10.553  -6.249  0.00  0.00    +0.002 A 
ATOM     41  H   UNL     1      14.579  -9.369  -7.664  0.00  0.00    +0.165 HD
ENDBRANCH  20  22
ENDBRANCH  18  20
ENDBRANCH   8  18
ENDBRANCH  13  16
TORSDOF 8
ENDMDL
MODEL 9
REMARK VINA RESULT:      -6.8     21.153     25.016
REMARK  Name = 11882034
REMARK  10 active torsions:
REMARK  status: ('A' for Active; 'I' for Inactive)
REMARK    1  A    between atoms: O_5  and  C_36
REMARK    2  A    between atoms: O_5  and  C_37
REMARK    3  A    between atoms: N_7  and  C_12
REMARK    4  A    between atoms: N_8  and  C_18
REMARK    5  A    between atoms: N_9  and  C_28
REMARK    6  A    between atoms: C_13  and  C_16
REMARK    7  A    between atoms: C_17  and  C_21
REMARK    8  A    between atoms: C_18  and  C_20
REMARK    9  A    between atoms: C_18  and  C_23
REMARK   10  A    between atoms: C_20  and  C_22
REMARK                            x       y       z     vdW  Elec       q    Type
REMARK                         _______ _______ _______ _____ _____    ______ ____
ROOT
ATOM      2  O   UNL     1       7.631  -2.110  38.364  0.00  0.00    -0.276 OA
ATOM      6  N   UNL     1       6.998  -4.253  38.967  0.00  0.00    -0.288 N 
ATOM     12  C   UNL     1       6.581  -6.575  39.244  0.00  0.00    +0.094 C 
ATOM     13  C   UNL     1       8.051  -4.943  38.236  0.00  0.00    +0.164 C 
ATOM     14  C   UNL     1       8.019  -6.379  38.756  0.00  0.00    +0.055 C 
ATOM     15  C   UNL     1       6.182  -5.189  39.741  0.00  0.00    +0.131 C 
ATOM     17  C   UNL     1       6.928  -2.869  39.033  0.00  0.00    +0.213 C 
ATOM     21  C   UNL     1       5.900  -2.314  39.987  0.00  0.00    +0.109 C 
ENDROOT
BRANCH  12   7
ATOM      3  O   UNL     1       6.664  -9.130  37.950  0.00  0.00    -0.253 OA
ATOM      7  N   UNL     1       5.714  -7.035  38.188  0.00  0.00    -0.295 N 
ATOM      9  N   UNL     1       4.851  -8.470  36.613  0.00  0.00    -0.269 N 
ATOM     19  C   UNL     1       5.821  -8.305  37.607  0.00  0.00    +0.304 C 
ATOM     38  H   UNL     1       5.034  -6.386  37.803  0.00  0.00    +0.151 HD
ATOM     40  H   UNL     1       4.227  -7.684  36.450  0.00  0.00    +0.156 HD
BRANCH   9  28
ATOM     28  C   UNL     1       4.629  -9.603  35.797  0.00  0.00    +0.035 A 
ATOM     32  C   UNL     1       5.590  -9.990  34.864  0.00  0.00    +0.027 A 
ATOM     33  C   UNL     1       3.447 -10.333  35.925  0.00  0.00    +0.027 A 
ATOM     34  C   UNL     1       5.371 -11.109  34.060  0.00  0.00    +0.047 A 
ATOM     35  C   UNL     1       3.227 -11.451  35.120  0.00  0.00    +0.047 A 
ATOM     36  C   UNL     1       4.189 -11.839  34.188  0.00  0.00    +0.120 A 
BRANCH  36   5
ATOM      5  O   UNL     1       3.976 -12.932  33.404  0.00  0.00    -0.495 OA
ATOM     37  C   UNL     1       2.632 -13.398  33.293  0.00  0.00    +0.277 C 
ENDBRANCH  36   5
ENDBRANCH   9  28
ENDBRANCH  12   7
BRANCH  13  16
ATOM      1  O   UNL     1       6.737  -4.316  36.344  0.00  0.00    -0.274 OA
ATOM      8  N   UNL     1       8.689  -5.539  36.007  0.00  0.00    -0.302 N 
ATOM     16  C   UNL     1       7.740  -4.882  36.771  0.00  0.00    +0.234 C 
ATOM     39  H   UNL     1       9.523  -5.898  36.462  0.00  0.00    +0.150 HD
BRANCH   8  18
ATOM     18  C   UNL     1       8.609  -5.645  34.568  0.00  0.00    +0.163 C 
BRANCH  18  23
ATOM      4  O   UNL     1      10.851  -4.857  34.060  0.00  0.00    -0.274 OA
ATOM     11  N   UNL     1       9.060  -3.616  33.335  0.00  0.00    -0.328 N 
ATOM     23  C   UNL     1       9.636  -4.683  33.991  0.00  0.00    +0.231 C 
ATOM     42  H   UNL     1       8.054  -3.497  33.265  0.00  0.00    +0.145 HD
ATOM     43  H   UNL     1       9.633  -2.905  32.892  0.00  0.00    +0.145 HD
ENDBRANCH  18  23
BRANCH  18  20
ATOM     20  C   UNL     1       8.875  -7.073  34.075  0.00  0.00    +0.069 C 
BRANCH  20  22
ATOM     10  N   UNL     1       6.047  -7.658  31.802  0.00  0.00    -0.360 N 
ATOM     22  C   UNL     1       7.864  -7.548  33.071  0.00  0.00    -0.020 A 
ATOM     24  C   UNL     1       7.945  -8.727  32.279  0.00  0.00    +0.003 A 
ATOM     25  C   UNL     1       6.685  -6.913  32.755  0.00  0.00    +0.087 A 
ATOM     26  C   UNL     1       6.793  -8.773  31.492  0.00  0.00    +0.047 A 
ATOM     27  C   UNL     1       8.892  -9.764  32.155  0.00  0.00    +0.010 A 
ATOM     29  C   UNL     1       6.538  -9.806  30.583  0.00  0.00    +0.026 A 
ATOM     30  C   UNL     1       8.651 -10.804  31.251  0.00  0.00    +0.001 A 
ATOM     31  C   UNL     1       7.491 -10.824  30.478  0.00  0.00    +0.002 A 
ATOM     41  H   UNL     1       5.155  -7.425  31.386  0.00  0.00    +0.165 HD
ENDBRANCH  20  22
ENDBRANCH  18  20
ENDBRANCH   8  18
ENDBRANCH  13  16
TORSDOF 8
ENDMDL
MODEL 10
REMARK VINA RESULT:      -6.8     25.190     29.441
REMARK  Name = 11882034
REMARK  10 active torsions:
REMARK  status: ('A' for Active; 'I' for Inactive)
REMARK    1  A    between atoms: O_5  and  C_36
REMARK    2  A    between atoms: O_5  and  C_37
REMARK    3  A    between atoms: N_7  and  C_12
REMARK    4  A    between atoms: N_8  and  C_18
REMARK    5  A    between atoms: N_9  and  C_28
REMARK    6  A    between atoms: C_13  and  C_16
REMARK    7  A    between atoms: C_17  and  C_21
REMARK    8  A    between atoms: C_18  and  C_20
REMARK    9  A    between atoms: C_18  and  C_23
REMARK   10  A    between atoms: C_20  and  C_22
REMARK                            x       y       z     vdW  Elec       q    Type
REMARK                         _______ _______ _______ _____ _____    ______ ____
ROOT
ATOM      2  O   UNL     1       9.703   9.453   8.462  0.00  0.00    -0.276 OA
ATOM      6  N   UNL     1      11.566  10.244   7.339  0.00  0.00    -0.288 N 
ATOM     12  C   UNL     1      13.417  10.717   5.926  0.00  0.00    +0.094 C 
ATOM     13  C   UNL     1      11.318   9.531   6.094  0.00  0.00    +0.164 C 
ATOM     14  C   UNL     1      12.269  10.162   5.079  0.00  0.00    +0.055 C 
ATOM     15  C   UNL     1      12.734  11.118   7.230  0.00  0.00    +0.131 C 
ATOM     17  C   UNL     1      10.678  10.204   8.403  0.00  0.00    +0.213 C 
ATOM     21  C   UNL     1      10.981  11.150   9.539  0.00  0.00    +0.109 C 
ENDROOT
BRANCH  12   7
ATOM      3  O   UNL     1      16.108  10.811   4.949  0.00  0.00    -0.253 OA
ATOM      7  N   UNL     1      14.447   9.732   6.144  0.00  0.00    -0.295 N 
ATOM      9  N   UNL     1      16.522   8.754   6.000  0.00  0.00    -0.269 N 
ATOM     19  C   UNL     1      15.745   9.855   5.629  0.00  0.00    +0.304 C 
ATOM     38  H   UNL     1      14.206   8.880   6.640  0.00  0.00    +0.151 HD
ATOM     40  H   UNL     1      16.067   8.043   6.566  0.00  0.00    +0.156 HD
BRANCH   9  28
ATOM     28  C   UNL     1      17.877   8.501   5.682  0.00  0.00    +0.035 A 
ATOM     32  C   UNL     1      18.234   8.148   4.381  0.00  0.00    +0.027 A 
ATOM     33  C   UNL     1      18.856   8.604   6.671  0.00  0.00    +0.027 A 
ATOM     34  C   UNL     1      19.571   7.900   4.068  0.00  0.00    +0.047 A 
ATOM     35  C   UNL     1      20.192   8.356   6.358  0.00  0.00    +0.047 A 
ATOM     36  C   UNL     1      20.550   8.004   5.056  0.00  0.00    +0.120 A 
BRANCH  36   5
ATOM      5  O   UNL     1      21.854   7.763   4.750  0.00  0.00    -0.495 OA
ATOM     37  C   UNL     1      22.825   8.648   5.306  0.00  0.00    +0.277 C 
ENDBRANCH  36   5
ENDBRANCH   9  28
ENDBRANCH  12   7
BRANCH  13  16
ATOM      1  O   UNL     1      12.771   7.669   6.440  0.00  0.00    -0.274 OA
ATOM      8  N   UNL     1      10.477   7.298   6.299  0.00  0.00    -0.302 N 
ATOM     16  C   UNL     1      11.621   8.078   6.303  0.00  0.00    +0.234 C 
ATOM     39  H   UNL     1       9.571   7.756   6.264  0.00  0.00    +0.150 HD
BRANCH   8  18
ATOM     18  C   UNL     1      10.500   5.862   6.458  0.00  0.00    +0.163 C 
BRANCH  18  23
ATOM      4  O   UNL     1       9.245   6.259   8.501  0.00  0.00    -0.274 OA
ATOM     11  N   UNL     1      10.579   4.394   8.377  0.00  0.00    -0.328 N 
ATOM     23  C   UNL     1      10.043   5.562   7.878  0.00  0.00    +0.231 C 
ATOM     42  H   UNL     1      11.218   3.815   7.841  0.00  0.00    +0.145 HD
ATOM     43  H   UNL     1      10.346   4.069   9.309  0.00  0.00    +0.145 HD
ENDBRANCH  18  23
BRANCH  18  20
ATOM     20  C   UNL     1       9.596   5.151   5.442  0.00  0.00    +0.069 C 
BRANCH  20  22
ATOM     10  N   UNL     1      11.090   4.952   2.090  0.00  0.00    -0.360 N 
ATOM     22  C   UNL     1      10.063   5.313   4.024  0.00  0.00    -0.020 A 
ATOM     24  C   UNL     1       9.719   6.368   3.134  0.00  0.00    +0.003 A 
ATOM     25  C   UNL     1      10.908   4.459   3.353  0.00  0.00    +0.087 A 
ATOM     26  C   UNL     1      10.377   6.119   1.928  0.00  0.00    +0.047 A 
ATOM     27  C   UNL     1       8.908   7.516   3.238  0.00  0.00    +0.010 A 
ATOM     29  C   UNL     1      10.263   6.961   0.816  0.00  0.00    +0.026 A 
ATOM     30  C   UNL     1       8.784   8.368   2.135  0.00  0.00    +0.001 A 
ATOM     31  C   UNL     1       9.453   8.094   0.943  0.00  0.00    +0.002 A 
ATOM     41  H   UNL     1      11.667   4.524   1.379  0.00  0.00    +0.165 HD
ENDBRANCH  20  22
ENDBRANCH  18  20
ENDBRANCH   8  18
ENDBRANCH  13  16
TORSDOF 8
ENDMDL
