MODEL 1
REMARK VINA RESULT:      -6.1      0.000      0.000
REMARK  Name = 75536531
REMARK  11 active torsions:
REMARK  status: ('A' for Active; 'I' for Inactive)
REMARK    1  A    between atoms: O_3  and  C_8
REMARK    2  A    between atoms: N_5  and  C_7
REMARK    3  A    between atoms: N_5  and  C_13
REMARK    4  A    between atoms: N_6  and  C_11
REMARK    5  A    between atoms: C_9  and  C_11
REMARK    6  A    between atoms: C_12  and  C_14
REMARK    7  A    between atoms: C_12  and  C_16
REMARK    8  A    between atoms: C_12  and  C_17
REMARK    9  A    between atoms: C_12  and  C_18
REMARK   10  A    between atoms: C_13  and  C_19
REMARK   11  A    between atoms: C_14  and  C_15
REMARK                            x       y       z     vdW  Elec       q    Type
REMARK                         _______ _______ _______ _____ _____    ______ ____
ROOT
ATOM      2  O   UNL     1      -1.496 -15.631  -1.963  0.00  0.00    -0.371 OA
ATOM      7  C   UNL     1      -0.746 -14.278  -0.160  0.00  0.00    +0.111 C 
ATOM      8  C   UNL     1      -1.498 -13.410  -1.152  0.00  0.00    +0.164 C 
ATOM      9  C   UNL     1      -2.319 -14.455  -1.894  0.00  0.00    +0.165 C 
ATOM     10  C   UNL     1      -0.426 -15.497  -1.010  0.00  0.00    +0.181 C 
ENDROOT
BRANCH   8   3
ATOM      3  O   UNL     1      -2.318 -12.446  -0.521  0.00  0.00    -0.388 OA
ATOM     27  H   UNL     1      -2.128 -11.577  -0.914  0.00  0.00    +0.210 HD
ENDBRANCH   8   3
BRANCH   7   5
ATOM      5  N   UNL     1       0.441 -13.643   0.389  0.00  0.00    -0.305 NA
ATOM     25  H   UNL     1       0.159 -12.838   0.949  0.00  0.00    +0.123 HD
BRANCH   5  13
ATOM     13  C   UNL     1       1.187 -14.568   1.235  0.00  0.00    +0.119 C 
BRANCH  13  19
ATOM      1  F   UNL     1       3.061 -16.240   2.543  0.00  0.00    -0.205 F 
ATOM     19  C   UNL     1       2.633 -14.661   0.824  0.00  0.00    +0.002 A 
ATOM     20  C   UNL     1       3.502 -15.506   1.513  0.00  0.00    +0.128 A 
ATOM     21  C   UNL     1       3.101 -13.900  -0.247  0.00  0.00    +0.008 A 
ATOM     22  C   UNL     1       4.841 -15.591   1.130  0.00  0.00    +0.038 A 
ATOM     23  C   UNL     1       4.439 -13.985  -0.630  0.00  0.00    +0.000 A 
ATOM     24  C   UNL     1       5.310 -14.830   0.058  0.00  0.00    +0.003 A 
ENDBRANCH  13  19
ENDBRANCH   5  13
ENDBRANCH   7   5
BRANCH   9  11
ATOM     11  C   UNL     1      -2.715 -14.023  -3.295  0.00  0.00    +0.138 C 
BRANCH  11   6
ATOM      4  O   UNL     1      -0.723 -14.216  -5.390  0.00  0.00    -0.276 OA
ATOM      6  N   UNL     1      -1.855 -12.971  -3.787  0.00  0.00    -0.313 N 
ATOM     15  C   UNL     1      -0.927 -13.159  -4.797  0.00  0.00    +0.214 C 
ATOM     26  H   UNL     1      -1.953 -12.052  -3.367  0.00  0.00    +0.149 HD
BRANCH  15  14
ATOM     14  C   UNL     1      -0.142 -11.899  -5.124  0.00  0.00    +0.102 C 
BRANCH  14  12
ATOM     12  C   UNL     1       1.320 -11.898  -4.620  0.00  0.00    -0.029 C 
ATOM     16  C   UNL     1       1.458 -12.660  -3.291  0.00  0.00    +0.011 C 
ATOM     17  C   UNL     1       2.267 -12.517  -5.661  0.00  0.00    +0.011 C 
ATOM     18  C   UNL     1       1.743 -10.434  -4.386  0.00  0.00    +0.011 C 
ENDBRANCH  14  12
ENDBRANCH  15  14
ENDBRANCH  11   6
ENDBRANCH   9  11
TORSDOF 8
ENDMDL
MODEL 2
REMARK VINA RESULT:      -5.9     31.635     33.178
REMARK  Name = 75536531
REMARK  11 active torsions:
REMARK  status: ('A' for Active; 'I' for Inactive)
REMARK    1  A    between atoms: O_3  and  C_8
REMARK    2  A    between atoms: N_5  and  C_7
REMARK    3  A    between atoms: N_5  and  C_13
REMARK    4  A    between atoms: N_6  and  C_11
REMARK    5  A    between atoms: C_9  and  C_11
REMARK    6  A    between atoms: C_12  and  C_14
REMARK    7  A    between atoms: C_12  and  C_16
REMARK    8  A    between atoms: C_12  and  C_17
REMARK    9  A    between atoms: C_12  and  C_18
REMARK   10  A    between atoms: C_13  and  C_19
REMARK   11  A    between atoms: C_14  and  C_15
REMARK                            x       y       z     vdW  Elec       q    Type
REMARK                         _______ _______ _______ _____ _____    ______ ____
ROOT
ATOM      2  O   UNL     1      12.057   7.077  17.899  0.00  0.00    -0.371 OA
ATOM      7  C   UNL     1      12.916   7.861  19.970  0.00  0.00    +0.111 C 
ATOM      8  C   UNL     1      12.686   9.045  19.049  0.00  0.00    +0.164 C 
ATOM      9  C   UNL     1      11.690   8.457  18.058  0.00  0.00    +0.165 C 
ATOM     10  C   UNL     1      12.933   6.708  18.979  0.00  0.00    +0.181 C 
ENDROOT
BRANCH   8   3
ATOM      3  O   UNL     1      12.155  10.168  19.726  0.00  0.00    -0.388 OA
ATOM     27  H   UNL     1      12.389  10.097  20.667  0.00  0.00    +0.210 HD
ENDBRANCH   8   3
BRANCH   7   5
ATOM      5  N   UNL     1      14.140   7.956  20.748  0.00  0.00    -0.305 NA
ATOM     25  H   UNL     1      14.384   7.029  21.098  0.00  0.00    +0.123 HD
BRANCH   5  13
ATOM     13  C   UNL     1      15.242   8.459  19.936  0.00  0.00    +0.119 C 
BRANCH  13  19
ATOM      1  F   UNL     1      16.090   6.178  18.486  0.00  0.00    -0.205 F 
ATOM     19  C   UNL     1      16.529   7.732  20.226  0.00  0.00    +0.002 A 
ATOM     20  C   UNL     1      16.885   6.614  19.472  0.00  0.00    +0.128 A 
ATOM     21  C   UNL     1      17.364   8.178  21.250  0.00  0.00    +0.008 A 
ATOM     22  C   UNL     1      18.078   5.943  19.742  0.00  0.00    +0.038 A 
ATOM     23  C   UNL     1      18.556   7.508  21.520  0.00  0.00    +0.000 A 
ATOM     24  C   UNL     1      18.914   6.389  20.767  0.00  0.00    +0.003 A 
ENDBRANCH  13  19
ENDBRANCH   5  13
ENDBRANCH   7   5
BRANCH   9  11
ATOM     11  C   UNL     1      11.706   9.152  16.708  0.00  0.00    +0.138 C 
BRANCH  11   6
ATOM      4  O   UNL     1      14.124   8.906  15.132  0.00  0.00    -0.276 OA
ATOM      6  N   UNL     1      12.792  10.101  16.615  0.00  0.00    -0.313 N 
ATOM     15  C   UNL     1      13.915   9.895  15.831  0.00  0.00    +0.214 C 
ATOM     26  H   UNL     1      12.710  10.960  17.150  0.00  0.00    +0.149 HD
BRANCH  15  14
ATOM     14  C   UNL     1      14.914  11.037  15.913  0.00  0.00    +0.102 C 
BRANCH  14  12
ATOM     12  C   UNL     1      14.919  11.982  14.688  0.00  0.00    -0.029 C 
ATOM     16  C   UNL     1      13.516  12.113  14.073  0.00  0.00    +0.011 C 
ATOM     17  C   UNL     1      15.440  13.378  15.067  0.00  0.00    +0.011 C 
ATOM     18  C   UNL     1      15.862  11.383  13.626  0.00  0.00    +0.011 C 
ENDBRANCH  14  12
ENDBRANCH  15  14
ENDBRANCH  11   6
ENDBRANCH   9  11
TORSDOF 8
ENDMDL
MODEL 3
REMARK VINA RESULT:      -5.8     32.879     34.346
REMARK  Name = 75536531
REMARK  11 active torsions:
REMARK  status: ('A' for Active; 'I' for Inactive)
REMARK    1  A    between atoms: O_3  and  C_8
REMARK    2  A    between atoms: N_5  and  C_7
REMARK    3  A    between atoms: N_5  and  C_13
REMARK    4  A    between atoms: N_6  and  C_11
REMARK    5  A    between atoms: C_9  and  C_11
REMARK    6  A    between atoms: C_12  and  C_14
REMARK    7  A    between atoms: C_12  and  C_16
REMARK    8  A    between atoms: C_12  and  C_17
REMARK    9  A    between atoms: C_12  and  C_18
REMARK   10  A    between atoms: C_13  and  C_19
REMARK   11  A    between atoms: C_14  and  C_15
REMARK                            x       y       z     vdW  Elec       q    Type
REMARK                         _______ _______ _______ _____ _____    ______ ____
ROOT
ATOM      2  O   UNL     1      13.316   6.819  20.312  0.00  0.00    -0.371 OA
ATOM      7  C   UNL     1      11.312   7.992  20.814  0.00  0.00    +0.111 C 
ATOM      8  C   UNL     1      11.774   8.374  19.420  0.00  0.00    +0.164 C 
ATOM      9  C   UNL     1      12.683   7.202  19.080  0.00  0.00    +0.165 C 
ATOM     10  C   UNL     1      12.586   7.408  21.403  0.00  0.00    +0.181 C 
ENDROOT
BRANCH   8   3
ATOM      3  O   UNL     1      10.703   8.494  18.504  0.00  0.00    -0.388 OA
ATOM     27  H   UNL     1      10.242   7.639  18.458  0.00  0.00    +0.210 HD
ENDBRANCH   8   3
BRANCH   7   5
ATOM      5  N   UNL     1      10.792   9.110  21.584  0.00  0.00    -0.305 NA
ATOM     25  H   UNL     1      10.338   8.752  22.425  0.00  0.00    +0.123 HD
BRANCH   5  13
ATOM     13  C   UNL     1      11.862  10.020  21.977  0.00  0.00    +0.119 C 
BRANCH  13  19
ATOM      1  F   UNL     1      10.998  10.411  24.646  0.00  0.00    -0.205 F 
ATOM     19  C   UNL     1      11.324  11.332  22.483  0.00  0.00    +0.002 A 
ATOM     20  C   UNL     1      10.915  11.455  23.811  0.00  0.00    +0.128 A 
ATOM     21  C   UNL     1      11.234  12.425  21.621  0.00  0.00    +0.008 A 
ATOM     22  C   UNL     1      10.418  12.672  24.277  0.00  0.00    +0.038 A 
ATOM     23  C   UNL     1      10.736  13.642  22.087  0.00  0.00    +0.000 A 
ATOM     24  C   UNL     1      10.327  13.766  23.414  0.00  0.00    +0.003 A 
ENDBRANCH  13  19
ENDBRANCH   5  13
ENDBRANCH   7   5
BRANCH   9  11
ATOM     11  C   UNL     1      13.740   7.543  18.044  0.00  0.00    +0.138 C 
BRANCH  11   6
ATOM      4  O   UNL     1      13.715   8.334  15.258  0.00  0.00    -0.276 OA
ATOM      6  N   UNL     1      13.549   8.872  17.512  0.00  0.00    -0.313 N 
ATOM     15  C   UNL     1      13.553   9.156  16.157  0.00  0.00    +0.214 C 
ATOM     26  H   UNL     1      13.396   9.625  18.177  0.00  0.00    +0.149 HD
BRANCH  15  14
ATOM     14  C   UNL     1      13.339  10.631  15.857  0.00  0.00    +0.102 C 
BRANCH  14  12
ATOM     12  C   UNL     1      14.636  11.467  15.759  0.00  0.00    -0.029 C 
ATOM     16  C   UNL     1      15.289  11.658  17.138  0.00  0.00    +0.011 C 
ATOM     17  C   UNL     1      15.648  10.811  14.805  0.00  0.00    +0.011 C 
ATOM     18  C   UNL     1      14.268  12.855  15.199  0.00  0.00    +0.011 C 
ENDBRANCH  14  12
ENDBRANCH  15  14
ENDBRANCH  11   6
ENDBRANCH   9  11
TORSDOF 8
ENDMDL
MODEL 4
REMARK VINA RESULT:      -5.6     33.408     35.115
REMARK  Name = 75536531
REMARK  11 active torsions:
REMARK  status: ('A' for Active; 'I' for Inactive)
REMARK    1  A    between atoms: O_3  and  C_8
REMARK    2  A    between atoms: N_5  and  C_7
REMARK    3  A    between atoms: N_5  and  C_13
REMARK    4  A    between atoms: N_6  and  C_11
REMARK    5  A    between atoms: C_9  and  C_11
REMARK    6  A    between atoms: C_12  and  C_14
REMARK    7  A    between atoms: C_12  and  C_16
REMARK    8  A    between atoms: C_12  and  C_17
REMARK    9  A    between atoms: C_12  and  C_18
REMARK   10  A    between atoms: C_13  and  C_19
REMARK   11  A    between atoms: C_14  and  C_15
REMARK                            x       y       z     vdW  Elec       q    Type
REMARK                         _______ _______ _______ _____ _____    ______ ____
ROOT
ATOM      2  O   UNL     1     -15.944   6.621  23.241  0.00  0.00    -0.371 OA
ATOM      7  C   UNL     1     -15.039   4.535  23.928  0.00  0.00    +0.111 C 
ATOM      8  C   UNL     1     -14.512   4.872  22.546  0.00  0.00    +0.164 C 
ATOM      9  C   UNL     1     -14.733   6.378  22.507  0.00  0.00    +0.165 C 
ATOM     10  C   UNL     1     -16.249   5.450  24.020  0.00  0.00    +0.181 C 
ENDROOT
BRANCH   8   3
ATOM      3  O   UNL     1     -13.148   4.535  22.385  0.00  0.00    -0.388 OA
ATOM     27  H   UNL     1     -12.652   5.348  22.188  0.00  0.00    +0.210 HD
ENDBRANCH   8   3
BRANCH   7   5
ATOM      5  N   UNL     1     -15.377   3.131  24.098  0.00  0.00    -0.305 NA
ATOM     25  H   UNL     1     -14.658   2.682  24.666  0.00  0.00    +0.123 HD
BRANCH   5  13
ATOM     13  C   UNL     1     -16.667   2.978  24.761  0.00  0.00    +0.119 C 
BRANCH  13  19
ATOM      1  F   UNL     1     -16.864   0.296  25.652  0.00  0.00    -0.205 F 
ATOM     19  C   UNL     1     -16.510   2.578  26.205  0.00  0.00    +0.002 A 
ATOM     20  C   UNL     1     -16.620   1.237  26.575  0.00  0.00    +0.128 A 
ATOM     21  C   UNL     1     -16.256   3.550  27.172  0.00  0.00    +0.008 A 
ATOM     22  C   UNL     1     -16.474   0.870  27.912  0.00  0.00    +0.038 A 
ATOM     23  C   UNL     1     -16.110   3.182  28.509  0.00  0.00    +0.000 A 
ATOM     24  C   UNL     1     -16.219   1.842  28.880  0.00  0.00    +0.003 A 
ENDBRANCH  13  19
ENDBRANCH   5  13
ENDBRANCH   7   5
BRANCH   9  11
ATOM     11  C   UNL     1     -14.867   6.928  21.097  0.00  0.00    +0.138 C 
BRANCH  11   6
ATOM      4  O   UNL     1     -12.644   8.754  21.433  0.00  0.00    -0.276 OA
ATOM      6  N   UNL     1     -13.603   6.906  20.399  0.00  0.00    -0.313 N 
ATOM     15  C   UNL     1     -12.593   7.826  20.627  0.00  0.00    +0.214 C 
ATOM     26  H   UNL     1     -13.457   6.169  19.716  0.00  0.00    +0.149 HD
BRANCH  15  14
ATOM     14  C   UNL     1     -11.368   7.592  19.759  0.00  0.00    +0.102 C 
BRANCH  14  12
ATOM     12  C   UNL     1     -11.182   8.611  18.611  0.00  0.00    -0.029 C 
ATOM     16  C   UNL     1     -12.528   9.200  18.158  0.00  0.00    +0.011 C 
ATOM     17  C   UNL     1     -10.243   9.754  19.030  0.00  0.00    +0.011 C 
ATOM     18  C   UNL     1     -10.548   7.873  17.416  0.00  0.00    +0.011 C 
ENDBRANCH  14  12
ENDBRANCH  15  14
ENDBRANCH  11   6
ENDBRANCH   9  11
TORSDOF 8
ENDMDL
MODEL 5
REMARK VINA RESULT:      -5.6     14.932     17.238
REMARK  Name = 75536531
REMARK  11 active torsions:
REMARK  status: ('A' for Active; 'I' for Inactive)
REMARK    1  A    between atoms: O_3  and  C_8
REMARK    2  A    between atoms: N_5  and  C_7
REMARK    3  A    between atoms: N_5  and  C_13
REMARK    4  A    between atoms: N_6  and  C_11
REMARK    5  A    between atoms: C_9  and  C_11
REMARK    6  A    between atoms: C_12  and  C_14
REMARK    7  A    between atoms: C_12  and  C_16
REMARK    8  A    between atoms: C_12  and  C_17
REMARK    9  A    between atoms: C_12  and  C_18
REMARK   10  A    between atoms: C_13  and  C_19
REMARK   11  A    between atoms: C_14  and  C_15
REMARK                            x       y       z     vdW  Elec       q    Type
REMARK                         _______ _______ _______ _____ _____    ______ ____
ROOT
ATOM      2  O   UNL     1      -1.854 -11.185  12.456  0.00  0.00    -0.371 OA
ATOM      7  C   UNL     1      -1.989 -11.160  14.828  0.00  0.00    +0.111 C 
ATOM      8  C   UNL     1      -2.821 -12.312  14.297  0.00  0.00    +0.164 C 
ATOM      9  C   UNL     1      -2.214 -12.499  12.913  0.00  0.00    +0.165 C 
ATOM     10  C   UNL     1      -1.846 -10.295  13.586  0.00  0.00    +0.181 C 
ENDROOT
BRANCH   8   3
ATOM      3  O   UNL     1      -2.703 -13.480  15.086  0.00  0.00    -0.388 OA
ATOM     27  H   UNL     1      -1.758 -13.686  15.189  0.00  0.00    +0.210 HD
ENDBRANCH   8   3
BRANCH   7   5
ATOM      5  N   UNL     1      -2.607 -10.457  15.940  0.00  0.00    -0.305 NA
ATOM     25  H   UNL     1      -2.301  -9.484  15.929  0.00  0.00    +0.123 HD
BRANCH   5  13
ATOM     13  C   UNL     1      -4.061 -10.495  15.843  0.00  0.00    +0.119 C 
BRANCH  13  19
ATOM      1  F   UNL     1      -6.565  -9.408  16.597  0.00  0.00    -0.205 F 
ATOM     19  C   UNL     1      -4.705 -10.763  17.178  0.00  0.00    +0.002 A 
ATOM     20  C   UNL     1      -5.941 -10.194  17.485  0.00  0.00    +0.128 A 
ATOM     21  C   UNL     1      -4.062 -11.580  18.108  0.00  0.00    +0.008 A 
ATOM     22  C   UNL     1      -6.535 -10.444  18.721  0.00  0.00    +0.038 A 
ATOM     23  C   UNL     1      -4.656 -11.829  19.345  0.00  0.00    +0.000 A 
ATOM     24  C   UNL     1      -5.892 -11.261  19.652  0.00  0.00    +0.003 A 
ENDBRANCH  13  19
ENDBRANCH   5  13
ENDBRANCH   7   5
BRANCH   9  11
ATOM     11  C   UNL     1      -3.168 -13.144  11.922  0.00  0.00    +0.138 C 
BRANCH  11   6
ATOM      4  O   UNL     1      -3.753 -12.354   9.197  0.00  0.00    -0.276 OA
ATOM      6  N   UNL     1      -4.178 -12.211  11.478  0.00  0.00    -0.313 N 
ATOM     15  C   UNL     1      -4.385 -11.893  10.146  0.00  0.00    +0.214 C 
ATOM     26  H   UNL     1      -4.763 -11.782  12.188  0.00  0.00    +0.149 HD
BRANCH  15  14
ATOM     14  C   UNL     1      -5.501 -10.881   9.943  0.00  0.00    +0.102 C 
BRANCH  14  12
ATOM     12  C   UNL     1      -5.108  -9.416  10.242  0.00  0.00    -0.029 C 
ATOM     16  C   UNL     1      -5.486  -9.013  11.677  0.00  0.00    +0.011 C 
ATOM     17  C   UNL     1      -3.601  -9.192  10.032  0.00  0.00    +0.011 C 
ATOM     18  C   UNL     1      -5.876  -8.506   9.263  0.00  0.00    +0.011 C 
ENDBRANCH  14  12
ENDBRANCH  15  14
ENDBRANCH  11   6
ENDBRANCH   9  11
TORSDOF 8
ENDMDL
MODEL 6
REMARK VINA RESULT:      -5.6     31.539     33.026
REMARK  Name = 75536531
REMARK  11 active torsions:
REMARK  status: ('A' for Active; 'I' for Inactive)
REMARK    1  A    between atoms: O_3  and  C_8
REMARK    2  A    between atoms: N_5  and  C_7
REMARK    3  A    between atoms: N_5  and  C_13
REMARK    4  A    between atoms: N_6  and  C_11
REMARK    5  A    between atoms: C_9  and  C_11
REMARK    6  A    between atoms: C_12  and  C_14
REMARK    7  A    between atoms: C_12  and  C_16
REMARK    8  A    between atoms: C_12  and  C_17
REMARK    9  A    between atoms: C_12  and  C_18
REMARK   10  A    between atoms: C_13  and  C_19
REMARK   11  A    between atoms: C_14  and  C_15
REMARK                            x       y       z     vdW  Elec       q    Type
REMARK                         _______ _______ _______ _____ _____    ______ ____
ROOT
ATOM      2  O   UNL     1      11.747   7.765  17.079  0.00  0.00    -0.371 OA
ATOM      7  C   UNL     1      12.765   8.482  19.103  0.00  0.00    +0.111 C 
ATOM      8  C   UNL     1      13.158   9.432  17.987  0.00  0.00    +0.164 C 
ATOM      9  C   UNL     1      12.056   9.165  16.971  0.00  0.00    +0.165 C 
ATOM     10  C   UNL     1      12.295   7.271  18.315  0.00  0.00    +0.181 C 
ENDROOT
BRANCH   8   3
ATOM      3  O   UNL     1      13.175  10.784  18.402  0.00  0.00    -0.388 OA
ATOM     27  H   UNL     1      13.033  11.346  17.621  0.00  0.00    +0.210 HD
ENDBRANCH   8   3
BRANCH   7   5
ATOM      5  N   UNL     1      13.851   8.176  20.019  0.00  0.00    -0.305 NA
ATOM     25  H   UNL     1      13.563   8.416  20.968  0.00  0.00    +0.123 HD
BRANCH   5  13
ATOM     13  C   UNL     1      14.192   6.759  19.974  0.00  0.00    +0.119 C 
BRANCH  13  19
ATOM      1  F   UNL     1      15.683   7.274  22.326  0.00  0.00    -0.205 F 
ATOM     19  C   UNL     1      15.678   6.537  20.070  0.00  0.00    +0.002 A 
ATOM     20  C   UNL     1      16.351   6.812  21.260  0.00  0.00    +0.128 A 
ATOM     21  C   UNL     1      16.382   6.057  18.965  0.00  0.00    +0.008 A 
ATOM     22  C   UNL     1      17.728   6.606  21.346  0.00  0.00    +0.038 A 
ATOM     23  C   UNL     1      17.759   5.850  19.051  0.00  0.00    +0.000 A 
ATOM     24  C   UNL     1      18.432   6.125  20.241  0.00  0.00    +0.003 A 
ENDBRANCH  13  19
ENDBRANCH   5  13
ENDBRANCH   7   5
BRANCH   9  11
ATOM     11  C   UNL     1      12.463   9.492  15.545  0.00  0.00    +0.138 C 
BRANCH  11   6
ATOM      4  O   UNL     1      15.152   9.863  14.535  0.00  0.00    -0.276 OA
ATOM      6  N   UNL     1      13.212  10.726  15.479  0.00  0.00    -0.313 N 
ATOM     15  C   UNL     1      14.500  10.807  14.978  0.00  0.00    +0.214 C 
ATOM     26  H   UNL     1      12.755  11.569  15.813  0.00  0.00    +0.149 HD
BRANCH  15  14
ATOM     14  C   UNL     1      15.070  12.215  15.026  0.00  0.00    +0.102 C 
BRANCH  14  12
ATOM     12  C   UNL     1      15.255  12.886  13.646  0.00  0.00    -0.029 C 
ATOM     16  C   UNL     1      16.605  12.508  13.013  0.00  0.00    +0.011 C 
ATOM     17  C   UNL     1      14.119  12.501  12.685  0.00  0.00    +0.011 C 
ATOM     18  C   UNL     1      15.225  14.414  13.849  0.00  0.00    +0.011 C 
ENDBRANCH  14  12
ENDBRANCH  15  14
ENDBRANCH  11   6
ENDBRANCH   9  11
TORSDOF 8
ENDMDL
MODEL 7
REMARK VINA RESULT:      -5.6     17.003     19.542
REMARK  Name = 75536531
REMARK  11 active torsions:
REMARK  status: ('A' for Active; 'I' for Inactive)
REMARK    1  A    between atoms: O_3  and  C_8
REMARK    2  A    between atoms: N_5  and  C_7
REMARK    3  A    between atoms: N_5  and  C_13
REMARK    4  A    between atoms: N_6  and  C_11
REMARK    5  A    between atoms: C_9  and  C_11
REMARK    6  A    between atoms: C_12  and  C_14
REMARK    7  A    between atoms: C_12  and  C_16
REMARK    8  A    between atoms: C_12  and  C_17
REMARK    9  A    between atoms: C_12  and  C_18
REMARK   10  A    between atoms: C_13  and  C_19
REMARK   11  A    between atoms: C_14  and  C_15
REMARK                            x       y       z     vdW  Elec       q    Type
REMARK                         _______ _______ _______ _____ _____    ______ ____
ROOT
ATOM      2  O   UNL     1      -4.368 -11.897  17.711  0.00  0.00    -0.371 OA
ATOM      7  C   UNL     1      -6.364 -10.631  17.473  0.00  0.00    +0.111 C 
ATOM      8  C   UNL     1      -5.247  -9.943  16.709  0.00  0.00    +0.164 C 
ATOM      9  C   UNL     1      -4.267 -11.093  16.524  0.00  0.00    +0.165 C 
ATOM     10  C   UNL     1      -5.577 -11.539  18.404  0.00  0.00    +0.181 C 
ENDROOT
BRANCH   8   3
ATOM      3  O   UNL     1      -5.678  -9.414  15.471  0.00  0.00    -0.388 OA
ATOM     27  H   UNL     1      -5.320  -9.970  14.758  0.00  0.00    +0.210 HD
ENDBRANCH   8   3
BRANCH   7   5
ATOM      5  N   UNL     1      -7.238  -9.712  18.183  0.00  0.00    -0.305 NA
ATOM     25  H   UNL     1      -7.108  -8.772  17.808  0.00  0.00    +0.123 HD
BRANCH   5  13
ATOM     13  C   UNL     1      -8.637 -10.093  18.030  0.00  0.00    +0.119 C 
BRANCH  13  19
ATOM      1  F   UNL     1      -8.831 -10.680  15.266  0.00  0.00    -0.205 F 
ATOM     19  C   UNL     1      -9.355  -9.204  17.049  0.00  0.00    +0.002 A 
ATOM     20  C   UNL     1      -9.412  -9.553  15.700  0.00  0.00    +0.128 A 
ATOM     21  C   UNL     1      -9.963  -8.029  17.492  0.00  0.00    +0.008 A 
ATOM     22  C   UNL     1     -10.078  -8.729  14.794  0.00  0.00    +0.038 A 
ATOM     23  C   UNL     1     -10.629  -7.204  16.586  0.00  0.00    +0.000 A 
ATOM     24  C   UNL     1     -10.687  -7.553  15.236  0.00  0.00    +0.003 A 
ENDBRANCH  13  19
ENDBRANCH   5  13
ENDBRANCH   7   5
BRANCH   9  11
ATOM     11  C   UNL     1      -2.832 -10.634  16.335  0.00  0.00    +0.138 C 
BRANCH  11   6
ATOM      4  O   UNL     1      -1.913 -12.242  14.108  0.00  0.00    -0.276 OA
ATOM      6  N   UNL     1      -2.591 -10.197  14.979  0.00  0.00    -0.313 N 
ATOM     15  C   UNL     1      -2.149 -11.042  13.976  0.00  0.00    +0.214 C 
ATOM     26  H   UNL     1      -2.767  -9.220  14.764  0.00  0.00    +0.149 HD
BRANCH  15  14
ATOM     14  C   UNL     1      -1.965 -10.337  12.642  0.00  0.00    +0.102 C 
BRANCH  14  12
ATOM     12  C   UNL     1      -3.136 -10.517  11.648  0.00  0.00    -0.029 C 
ATOM     16  C   UNL     1      -4.495 -10.287  12.330  0.00  0.00    +0.011 C 
ATOM     17  C   UNL     1      -3.000  -9.560  10.452  0.00  0.00    +0.011 C 
ATOM     18  C   UNL     1      -3.096 -11.965  11.120  0.00  0.00    +0.011 C 
ENDBRANCH  14  12
ENDBRANCH  15  14
ENDBRANCH  11   6
ENDBRANCH   9  11
TORSDOF 8
ENDMDL
MODEL 8
REMARK VINA RESULT:      -5.6     33.677     35.755
REMARK  Name = 75536531
REMARK  11 active torsions:
REMARK  status: ('A' for Active; 'I' for Inactive)
REMARK    1  A    between atoms: O_3  and  C_8
REMARK    2  A    between atoms: N_5  and  C_7
REMARK    3  A    between atoms: N_5  and  C_13
REMARK    4  A    between atoms: N_6  and  C_11
REMARK    5  A    between atoms: C_9  and  C_11
REMARK    6  A    between atoms: C_12  and  C_14
REMARK    7  A    between atoms: C_12  and  C_16
REMARK    8  A    between atoms: C_12  and  C_17
REMARK    9  A    between atoms: C_12  and  C_18
REMARK   10  A    between atoms: C_13  and  C_19
REMARK   11  A    between atoms: C_14  and  C_15
REMARK                            x       y       z     vdW  Elec       q    Type
REMARK                         _______ _______ _______ _____ _____    ______ ____
ROOT
ATOM      2  O   UNL     1     -16.103   4.930  21.937  0.00  0.00    -0.371 OA
ATOM      7  C   UNL     1     -13.754   5.227  21.751  0.00  0.00    +0.111 C 
ATOM      8  C   UNL     1     -14.131   5.172  23.219  0.00  0.00    +0.164 C 
ATOM      9  C   UNL     1     -15.482   4.473  23.150  0.00  0.00    +0.165 C 
ATOM     10  C   UNL     1     -15.096   5.535  21.107  0.00  0.00    +0.181 C 
ENDROOT
BRANCH   8   3
ATOM      3  O   UNL     1     -13.199   4.443  23.995  0.00  0.00    -0.388 OA
ATOM     27  H   UNL     1     -12.550   5.067  24.362  0.00  0.00    +0.210 HD
ENDBRANCH   8   3
BRANCH   7   5
ATOM      5  N   UNL     1     -12.738   6.221  21.445  0.00  0.00    -0.305 NA
ATOM     25  H   UNL     1     -11.986   5.777  20.918  0.00  0.00    +0.123 HD
BRANCH   5  13
ATOM     13  C   UNL     1     -13.292   7.310  20.649  0.00  0.00    +0.119 C 
BRANCH  13  19
ATOM      1  F   UNL     1     -12.162   9.776  21.466  0.00  0.00    -0.205 F 
ATOM     19  C   UNL     1     -12.226   8.027  19.863  0.00  0.00    +0.002 A 
ATOM     20  C   UNL     1     -11.714   9.240  20.323  0.00  0.00    +0.128 A 
ATOM     21  C   UNL     1     -11.753   7.476  18.671  0.00  0.00    +0.008 A 
ATOM     22  C   UNL     1     -10.727   9.901  19.593  0.00  0.00    +0.038 A 
ATOM     23  C   UNL     1     -10.766   8.138  17.941  0.00  0.00    +0.000 A 
ATOM     24  C   UNL     1     -10.253   9.351  18.401  0.00  0.00    +0.003 A 
ENDBRANCH  13  19
ENDBRANCH   5  13
ENDBRANCH   7   5
BRANCH   9  11
ATOM     11  C   UNL     1     -16.379   4.783  24.336  0.00  0.00    +0.138 C 
BRANCH  11   6
ATOM      4  O   UNL     1     -17.794   4.462  26.842  0.00  0.00    -0.276 OA
ATOM      6  N   UNL     1     -15.891   4.160  25.544  0.00  0.00    -0.313 N 
ATOM     15  C   UNL     1     -16.644   4.053  26.701  0.00  0.00    +0.214 C 
ATOM     26  H   UNL     1     -14.950   3.778  25.527  0.00  0.00    +0.149 HD
BRANCH  15  14
ATOM     14  C   UNL     1     -15.900   3.364  27.834  0.00  0.00    +0.102 C 
BRANCH  14  12
ATOM     12  C   UNL     1     -16.572   2.074  28.360  0.00  0.00    -0.029 C 
ATOM     16  C   UNL     1     -17.791   2.394  29.241  0.00  0.00    +0.011 C 
ATOM     17  C   UNL     1     -17.008   1.164  27.200  0.00  0.00    +0.011 C 
ATOM     18  C   UNL     1     -15.541   1.312  29.215  0.00  0.00    +0.011 C 
ENDBRANCH  14  12
ENDBRANCH  15  14
ENDBRANCH  11   6
ENDBRANCH   9  11
TORSDOF 8
ENDMDL
MODEL 9
REMARK VINA RESULT:      -5.5     17.754     20.217
REMARK  Name = 75536531
REMARK  11 active torsions:
REMARK  status: ('A' for Active; 'I' for Inactive)
REMARK    1  A    between atoms: O_3  and  C_8
REMARK    2  A    between atoms: N_5  and  C_7
REMARK    3  A    between atoms: N_5  and  C_13
REMARK    4  A    between atoms: N_6  and  C_11
REMARK    5  A    between atoms: C_9  and  C_11
REMARK    6  A    between atoms: C_12  and  C_14
REMARK    7  A    between atoms: C_12  and  C_16
REMARK    8  A    between atoms: C_12  and  C_17
REMARK    9  A    between atoms: C_12  and  C_18
REMARK   10  A    between atoms: C_13  and  C_19
REMARK   11  A    between atoms: C_14  and  C_15
REMARK                            x       y       z     vdW  Elec       q    Type
REMARK                         _______ _______ _______ _____ _____    ______ ____
ROOT
ATOM      2  O   UNL     1      -4.417 -12.049  17.394  0.00  0.00    -0.371 OA
ATOM      7  C   UNL     1      -6.351 -10.670  17.340  0.00  0.00    +0.111 C 
ATOM      8  C   UNL     1      -5.219  -9.963  16.618  0.00  0.00    +0.164 C 
ATOM      9  C   UNL     1      -4.303 -11.135  16.291  0.00  0.00    +0.165 C 
ATOM     10  C   UNL     1      -5.590 -11.704  18.153  0.00  0.00    +0.181 C 
ENDROOT
BRANCH   8   3
ATOM      3  O   UNL     1      -5.651  -9.291  15.452  0.00  0.00    -0.388 OA
ATOM     27  H   UNL     1      -5.338  -9.788  14.677  0.00  0.00    +0.210 HD
ENDBRANCH   8   3
BRANCH   7   5
ATOM      5  N   UNL     1      -7.160  -9.787  18.164  0.00  0.00    -0.305 NA
ATOM     25  H   UNL     1      -6.672  -8.898  18.277  0.00  0.00    +0.123 HD
BRANCH   5  13
ATOM     13  C   UNL     1      -8.458  -9.538  17.548  0.00  0.00    +0.119 C 
BRANCH  13  19
ATOM      1  F   UNL     1     -11.061  -8.426  17.440  0.00  0.00    -0.205 F 
ATOM     19  C   UNL     1      -9.592 -10.013  18.419  0.00  0.00    +0.002 A 
ATOM     20  C   UNL     1     -10.850  -9.420  18.314  0.00  0.00    +0.128 A 
ATOM     21  C   UNL     1      -9.381 -11.047  19.331  0.00  0.00    +0.008 A 
ATOM     22  C   UNL     1     -11.897  -9.862  19.121  0.00  0.00    +0.038 A 
ATOM     23  C   UNL     1     -10.429 -11.489  20.138  0.00  0.00    +0.000 A 
ATOM     24  C   UNL     1     -11.687 -10.896  20.034  0.00  0.00    +0.003 A 
ENDBRANCH  13  19
ENDBRANCH   5  13
ENDBRANCH   7   5
BRANCH   9  11
ATOM     11  C   UNL     1      -2.851 -10.728  16.109  0.00  0.00    +0.138 C 
BRANCH  11   6
ATOM      4  O   UNL     1      -2.232 -12.347  13.788  0.00  0.00    -0.276 OA
ATOM      6  N   UNL     1      -2.596 -10.269  14.763  0.00  0.00    -0.313 N 
ATOM     15  C   UNL     1      -2.306 -11.122  13.712  0.00  0.00    +0.214 C 
ATOM     26  H   UNL     1      -2.643  -9.269  14.592  0.00  0.00    +0.149 HD
BRANCH  15  14
ATOM     14  C   UNL     1      -2.070 -10.391  12.400  0.00  0.00    +0.102 C 
BRANCH  14  12
ATOM     12  C   UNL     1      -3.257 -10.438  11.410  0.00  0.00    -0.029 C 
ATOM     16  C   UNL     1      -3.340 -11.797  10.695  0.00  0.00    +0.011 C 
ATOM     17  C   UNL     1      -4.588 -10.159  12.127  0.00  0.00    +0.011 C 
ATOM     18  C   UNL     1      -3.037  -9.343  10.348  0.00  0.00    +0.011 C 
ENDBRANCH  14  12
ENDBRANCH  15  14
ENDBRANCH  11   6
ENDBRANCH   9  11
TORSDOF 8
ENDMDL
MODEL 10
REMARK VINA RESULT:      -5.5     20.120     21.425
REMARK  Name = 75536531
REMARK  11 active torsions:
REMARK  status: ('A' for Active; 'I' for Inactive)
REMARK    1  A    between atoms: O_3  and  C_8
REMARK    2  A    between atoms: N_5  and  C_7
REMARK    3  A    between atoms: N_5  and  C_13
REMARK    4  A    between atoms: N_6  and  C_11
REMARK    5  A    between atoms: C_9  and  C_11
REMARK    6  A    between atoms: C_12  and  C_14
REMARK    7  A    between atoms: C_12  and  C_16
REMARK    8  A    between atoms: C_12  and  C_17
REMARK    9  A    between atoms: C_12  and  C_18
REMARK   10  A    between atoms: C_13  and  C_19
REMARK   11  A    between atoms: C_14  and  C_15
REMARK                            x       y       z     vdW  Elec       q    Type
REMARK                         _______ _______ _______ _____ _____    ______ ____
ROOT
ATOM      2  O   UNL     1     -12.474  -8.468  16.390  0.00  0.00    -0.371 OA
ATOM      7  C   UNL     1     -10.403  -7.684  17.250  0.00  0.00    +0.111 C 
ATOM      8  C   UNL     1     -10.578  -7.170  15.834  0.00  0.00    +0.164 C 
ATOM      9  C   UNL     1     -12.085  -7.294  15.659  0.00  0.00    +0.165 C 
ATOM     10  C   UNL     1     -11.402  -8.829  17.279  0.00  0.00    +0.181 C 
ENDROOT
BRANCH   8   3
ATOM      3  O   UNL     1     -10.138  -5.834  15.680  0.00  0.00    -0.388 OA
ATOM     27  H   UNL     1      -9.183  -5.803  15.861  0.00  0.00    +0.210 HD
ENDBRANCH   8   3
BRANCH   7   5
ATOM      5  N   UNL     1      -9.047  -8.108  17.555  0.00  0.00    -0.305 NA
ATOM     25  H   UNL     1      -8.864  -7.950  18.546  0.00  0.00    +0.123 HD
BRANCH   5  13
ATOM     13  C   UNL     1      -8.860  -9.524  17.261  0.00  0.00    +0.119 C 
BRANCH  13  19
ATOM      1  F   UNL     1      -6.531  -9.433  15.651  0.00  0.00    -0.205 F 
ATOM     19  C   UNL     1      -7.518 -10.022  17.728  0.00  0.00    +0.002 A 
ATOM     20  C   UNL     1      -6.411  -9.947  16.883  0.00  0.00    +0.128 A 
ATOM     21  C   UNL     1      -7.383 -10.558  19.009  0.00  0.00    +0.008 A 
ATOM     22  C   UNL     1      -5.170 -10.408  17.319  0.00  0.00    +0.038 A 
ATOM     23  C   UNL     1      -6.142 -11.019  19.445  0.00  0.00    +0.000 A 
ATOM     24  C   UNL     1      -5.034 -10.945  18.600  0.00  0.00    +0.003 A 
ENDBRANCH  13  19
ENDBRANCH   5  13
ENDBRANCH   7   5
BRANCH   9  11
ATOM     11  C   UNL     1     -12.513  -7.426  14.208  0.00  0.00    +0.138 C 
BRANCH  11   6
ATOM      4  O   UNL     1     -14.095  -5.049  13.723  0.00  0.00    -0.276 OA
ATOM      6  N   UNL     1     -12.135  -6.264  13.438  0.00  0.00    -0.313 N 
ATOM     15  C   UNL     1     -12.963  -5.168  13.260  0.00  0.00    +0.214 C 
ATOM     26  H   UNL     1     -11.209  -6.259  13.019  0.00  0.00    +0.149 HD
BRANCH  15  14
ATOM     14  C   UNL     1     -12.335  -4.081  12.403  0.00  0.00    +0.102 C 
BRANCH  14  12
ATOM     12  C   UNL     1     -12.782  -4.085  10.922  0.00  0.00    -0.029 C 
ATOM     16  C   UNL     1     -13.092  -5.509  10.431  0.00  0.00    +0.011 C 
ATOM     17  C   UNL     1     -14.019  -3.196  10.714  0.00  0.00    +0.011 C 
ATOM     18  C   UNL     1     -11.627  -3.519  10.073  0.00  0.00    +0.011 C 
ENDBRANCH  14  12
ENDBRANCH  15  14
ENDBRANCH  11   6
ENDBRANCH   9  11
TORSDOF 8
ENDMDL
