MODEL 1
REMARK VINA RESULT:      -7.0      0.000      0.000
REMARK  Name = 71693122
REMARK  14 active torsions:
REMARK  status: ('A' for Active; 'I' for Inactive)
REMARK    1  A    between atoms: O_2  and  C_27
REMARK    2  A    between atoms: N_4  and  C_19
REMARK    3  A    between atoms: N_5  and  C_31
REMARK    4  A    between atoms: C_7  and  C_16
REMARK    5  A    between atoms: C_7  and  C_18
REMARK    6  A    between atoms: C_8  and  C_17
REMARK    7  A    between atoms: C_9  and  C_19
REMARK    8  A    between atoms: C_13  and  C_22
REMARK    9  A    between atoms: C_16  and  C_23
REMARK   10  A    between atoms: C_17  and  C_24
REMARK   11  A    between atoms: C_17  and  C_25
REMARK   12  A    between atoms: C_18  and  C_27
REMARK   13  A    between atoms: C_20  and  C_26
REMARK   14  A    between atoms: C_22  and  C_28
REMARK                            x       y       z     vdW  Elec       q    Type
REMARK                         _______ _______ _______ _____ _____    ______ ____
ROOT
ATOM      8  C   UNL     1      18.046   7.455  20.473  0.00  0.00    +0.000 C 
ATOM      9  C   UNL     1      17.696   8.567  21.493  0.00  0.00    +0.032 C 
ATOM     12  C   UNL     1      18.965   6.406  21.119  0.00  0.00    +0.012 C 
ATOM     13  C   UNL     1      20.276   7.021  21.640  0.00  0.00    +0.022 C 
ATOM     20  C   UNL     1      20.027   8.285  22.438  0.00  0.00    -0.073 C 
ATOM     21  C   UNL     1      18.863   8.954  22.370  0.00  0.00    -0.022 C 
ATOM     26  C   UNL     1      21.132   8.737  23.352  0.00  0.00    +0.039 C 
ENDROOT
BRANCH   8  17
ATOM     17  C   UNL     1      16.791   6.775  19.919  0.00  0.00    -0.013 C 
ATOM     24  C   UNL     1      17.171   5.707  18.897  0.00  0.00    +0.007 C 
ATOM     25  C   UNL     1      15.968   6.171  21.053  0.00  0.00    +0.007 C 
ENDBRANCH   8  17
BRANCH   9  19
ATOM     19  C   UNL     1      17.152   9.814  20.788  0.00  0.00    +0.112 C 
BRANCH  19   4
ATOM      1  O   UNL     1      15.254  10.325  18.663  0.00  0.00    -0.276 OA
ATOM      4  N   UNL     1      15.728   9.877  20.896  0.00  0.00    -0.315 N 
ATOM     23  C   UNL     1      14.880  10.130  19.817  0.00  0.00    +0.214 C 
ATOM     36  H   UNL     1      15.308   9.673  21.798  0.00  0.00    +0.149 HD
BRANCH  23  16
ATOM     16  C   UNL     1      13.418  10.137  20.228  0.00  0.00    +0.103 C 
BRANCH  16   7
ATOM      7  C   UNL     1      12.784   8.741  20.175  0.00  0.00    -0.011 C 
ATOM     10  C   UNL     1      11.248   8.843  20.035  0.00  0.00    +0.008 C 
ATOM     11  C   UNL     1      13.021   7.992  21.509  0.00  0.00    +0.008 C 
ATOM     14  C   UNL     1      10.701   8.549  21.425  0.00  0.00    +0.001 C 
ATOM     15  C   UNL     1      11.652   7.487  21.945  0.00  0.00    +0.001 C 
BRANCH   7  18
ATOM     18  C   UNL     1      13.380   7.964  18.995  0.00  0.00    +0.127 C 
BRANCH  18  27
ATOM      3  O   UNL     1      12.425   9.131  17.080  0.00  0.00    -0.251 OA
ATOM     27  C   UNL     1      12.544   8.122  17.759  0.00  0.00    +0.305 C 
BRANCH  27   2
ATOM      2  O   UNL     1      11.916   6.950  17.486  0.00  0.00    -0.481 OA
ATOM     37  H   UNL     1      12.267   6.212  18.029  0.00  0.00    +0.295 HD
ENDBRANCH  27   2
ENDBRANCH  18  27
ENDBRANCH   7  18
ENDBRANCH  16   7
ENDBRANCH  23  16
ENDBRANCH  19   4
ENDBRANCH   9  19
BRANCH  13  22
ATOM     22  C   UNL     1      21.259   7.282  20.493  0.00  0.00    +0.082 C 
BRANCH  22  28
ATOM      5  N   UNL     1      23.696   6.671  20.497  0.00  0.00    -0.331 N 
ATOM      6  N   UNL     1      22.255   4.978  20.501  0.00  0.00    -0.232 NA
ATOM     28  C   UNL     1      22.384   6.287  20.498  0.00  0.00    +0.111 A 
ATOM     29  C   UNL     1      24.465   5.537  20.502  0.00  0.00    +0.069 A 
ATOM     30  C   UNL     1      23.543   4.493  20.504  0.00  0.00    +0.089 A 
ATOM     31  C   UNL     1      24.188   8.030  20.493  0.00  0.00    +0.150 C 
ATOM     32  C   UNL     1      25.846   5.338  20.504  0.00  0.00    +0.028 A 
ATOM     33  C   UNL     1      24.008   3.167  20.509  0.00  0.00    +0.030 A 
ATOM     34  C   UNL     1      26.292   4.013  20.509  0.00  0.00    +0.002 A 
ATOM     35  C   UNL     1      25.391   2.944  20.512  0.00  0.00    +0.002 A 
ENDBRANCH  22  28
ENDBRANCH  13  22
TORSDOF 10
ENDMDL
MODEL 2
REMARK VINA RESULT:      -6.8     28.291     31.384
REMARK  Name = 71693122
REMARK  14 active torsions:
REMARK  status: ('A' for Active; 'I' for Inactive)
REMARK    1  A    between atoms: O_2  and  C_27
REMARK    2  A    between atoms: N_4  and  C_19
REMARK    3  A    between atoms: N_5  and  C_31
REMARK    4  A    between atoms: C_7  and  C_16
REMARK    5  A    between atoms: C_7  and  C_18
REMARK    6  A    between atoms: C_8  and  C_17
REMARK    7  A    between atoms: C_9  and  C_19
REMARK    8  A    between atoms: C_13  and  C_22
REMARK    9  A    between atoms: C_16  and  C_23
REMARK   10  A    between atoms: C_17  and  C_24
REMARK   11  A    between atoms: C_17  and  C_25
REMARK   12  A    between atoms: C_18  and  C_27
REMARK   13  A    between atoms: C_20  and  C_26
REMARK   14  A    between atoms: C_22  and  C_28
REMARK                            x       y       z     vdW  Elec       q    Type
REMARK                         _______ _______ _______ _____ _____    ______ ____
ROOT
ATOM      8  C   UNL     1      -3.119 -12.421  13.395  0.00  0.00    +0.000 C 
ATOM      9  C   UNL     1      -1.897 -11.508  13.664  0.00  0.00    +0.032 C 
ATOM     12  C   UNL     1      -3.284 -12.664  11.887  0.00  0.00    +0.012 C 
ATOM     13  C   UNL     1      -3.472 -11.352  11.102  0.00  0.00    +0.022 C 
ATOM     20  C   UNL     1      -2.461 -10.302  11.510  0.00  0.00    -0.073 C 
ATOM     21  C   UNL     1      -1.756 -10.395  12.652  0.00  0.00    -0.022 C 
ATOM     26  C   UNL     1      -2.244  -9.162  10.553  0.00  0.00    +0.039 C 
ENDROOT
BRANCH   8  17
ATOM     17  C   UNL     1      -2.999 -13.761  14.126  0.00  0.00    -0.013 C 
ATOM     24  C   UNL     1      -4.221 -14.631  13.846  0.00  0.00    +0.007 C 
ATOM     25  C   UNL     1      -1.718 -14.480  13.715  0.00  0.00    +0.007 C 
ENDBRANCH   8  17
BRANCH   9  19
ATOM     19  C   UNL     1      -1.951 -10.911  15.074  0.00  0.00    +0.112 C 
BRANCH  19   4
ATOM      1  O   UNL     1      -3.563 -11.180  17.462  0.00  0.00    -0.276 OA
ATOM      4  N   UNL     1      -3.227 -10.321  15.327  0.00  0.00    -0.315 N 
ATOM     23  C   UNL     1      -3.943 -10.501  16.511  0.00  0.00    +0.214 C 
ATOM     36  H   UNL     1      -3.609  -9.691  14.627  0.00  0.00    +0.149 HD
BRANCH  23  16
ATOM     16  C   UNL     1      -5.265  -9.754  16.500  0.00  0.00    +0.103 C 
BRANCH  16   7
ATOM      7  C   UNL     1      -6.475 -10.696  16.476  0.00  0.00    -0.011 C 
ATOM     10  C   UNL     1      -6.177 -11.949  15.621  0.00  0.00    +0.008 C 
ATOM     11  C   UNL     1      -7.677 -10.010  15.783  0.00  0.00    +0.008 C 
ATOM     14  C   UNL     1      -6.899 -11.713  14.302  0.00  0.00    +0.001 C 
ATOM     15  C   UNL     1      -8.167 -10.999  14.733  0.00  0.00    +0.001 C 
BRANCH   7  18
ATOM     18  C   UNL     1      -6.827 -11.098  17.913  0.00  0.00    +0.127 C 
BRANCH  18  27
ATOM      3  O   UNL     1      -7.745 -13.354  17.806  0.00  0.00    -0.251 OA
ATOM     27  C   UNL     1      -6.831 -12.590  18.078  0.00  0.00    +0.305 C 
BRANCH  27   2
ATOM      2  O   UNL     1      -5.638 -12.990  18.588  0.00  0.00    -0.481 OA
ATOM     37  H   UNL     1      -4.939 -12.315  18.457  0.00  0.00    +0.295 HD
ENDBRANCH  27   2
ENDBRANCH  18  27
ENDBRANCH   7  18
ENDBRANCH  16   7
ENDBRANCH  23  16
ENDBRANCH  19   4
ENDBRANCH   9  19
BRANCH  13  22
ATOM     22  C   UNL     1      -4.903 -10.823  11.247  0.00  0.00    +0.082 C 
BRANCH  22  28
ATOM      5  N   UNL     1      -6.596  -9.617   9.837  0.00  0.00    -0.331 N 
ATOM      6  N   UNL     1      -4.933 -10.609   8.747  0.00  0.00    -0.232 NA
ATOM     28  C   UNL     1      -5.455 -10.362   9.928  0.00  0.00    +0.111 A 
ATOM     29  C   UNL     1      -6.827  -9.363   8.510  0.00  0.00    +0.069 A 
ATOM     30  C   UNL     1      -5.775  -9.993   7.849  0.00  0.00    +0.089 A 
ATOM     31  C   UNL     1      -7.417  -9.171  10.941  0.00  0.00    +0.150 C 
ATOM     32  C   UNL     1      -7.834  -8.660   7.848  0.00  0.00    +0.028 A 
ATOM     33  C   UNL     1      -5.708  -9.927   6.448  0.00  0.00    +0.030 A 
ATOM     34  C   UNL     1      -7.752  -8.604   6.454  0.00  0.00    +0.002 A 
ATOM     35  C   UNL     1      -6.709  -9.225   5.763  0.00  0.00    +0.002 A 
ENDBRANCH  22  28
ENDBRANCH  13  22
TORSDOF 10
ENDMDL
MODEL 3
REMARK VINA RESULT:      -6.7     15.766     19.827
REMARK  Name = 71693122
REMARK  14 active torsions:
REMARK  status: ('A' for Active; 'I' for Inactive)
REMARK    1  A    between atoms: O_2  and  C_27
REMARK    2  A    between atoms: N_4  and  C_19
REMARK    3  A    between atoms: N_5  and  C_31
REMARK    4  A    between atoms: C_7  and  C_16
REMARK    5  A    between atoms: C_7  and  C_18
REMARK    6  A    between atoms: C_8  and  C_17
REMARK    7  A    between atoms: C_9  and  C_19
REMARK    8  A    between atoms: C_13  and  C_22
REMARK    9  A    between atoms: C_16  and  C_23
REMARK   10  A    between atoms: C_17  and  C_24
REMARK   11  A    between atoms: C_17  and  C_25
REMARK   12  A    between atoms: C_18  and  C_27
REMARK   13  A    between atoms: C_20  and  C_26
REMARK   14  A    between atoms: C_22  and  C_28
REMARK                            x       y       z     vdW  Elec       q    Type
REMARK                         _______ _______ _______ _____ _____    ______ ____
ROOT
ATOM      8  C   UNL     1      12.454   7.830   2.329  0.00  0.00    +0.000 C 
ATOM      9  C   UNL     1      11.929   8.841   3.380  0.00  0.00    +0.032 C 
ATOM     12  C   UNL     1      11.536   7.813   1.097  0.00  0.00    +0.012 C 
ATOM     13  C   UNL     1      10.087   7.435   1.456  0.00  0.00    +0.022 C 
ATOM     20  C   UNL     1       9.586   8.205   2.661  0.00  0.00    -0.073 C 
ATOM     21  C   UNL     1      10.423   8.838   3.502  0.00  0.00    -0.022 C 
ATOM     26  C   UNL     1       8.096   8.269   2.853  0.00  0.00    +0.039 C 
ENDROOT
BRANCH   8  17
ATOM     17  C   UNL     1      13.890   8.149   1.902  0.00  0.00    -0.013 C 
ATOM     24  C   UNL     1      14.354   7.172   0.825  0.00  0.00    +0.007 C 
ATOM     25  C   UNL     1      13.991   9.588   1.405  0.00  0.00    +0.007 C 
ENDBRANCH   8  17
BRANCH   9  19
ATOM     19  C   UNL     1      12.553   8.584   4.755  0.00  0.00    +0.112 C 
BRANCH  19   4
ATOM      1  O   UNL     1      12.708   6.972   7.153  0.00  0.00    -0.276 OA
ATOM      4  N   UNL     1      11.540   8.411   5.748  0.00  0.00    -0.315 N 
ATOM     23  C   UNL     1      11.695   7.611   6.881  0.00  0.00    +0.214 C 
ATOM     36  H   UNL     1      10.679   8.942   5.650  0.00  0.00    +0.149 HD
BRANCH  23  16
ATOM     16  C   UNL     1      10.456   7.617   7.759  0.00  0.00    +0.103 C 
BRANCH  16   7
ATOM      7  C   UNL     1       9.502   6.458   7.441  0.00  0.00    -0.011 C 
ATOM     10  C   UNL     1      10.252   5.314   6.721  0.00  0.00    +0.008 C 
ATOM     11  C   UNL     1       8.411   6.918   6.444  0.00  0.00    +0.008 C 
ATOM     14  C   UNL     1       9.865   5.445   5.254  0.00  0.00    +0.001 C 
ATOM     15  C   UNL     1       8.414   5.884   5.325  0.00  0.00    +0.001 C 
BRANCH   7  18
ATOM     18  C   UNL     1       8.875   5.953   8.746  0.00  0.00    +0.127 C 
BRANCH  18  27
ATOM      3  O   UNL     1      10.564   5.096  10.281  0.00  0.00    -0.251 OA
ATOM     27  C   UNL     1       9.738   4.913   9.399  0.00  0.00    +0.305 C 
BRANCH  27   2
ATOM      2  O   UNL     1       9.466   3.697   8.859  0.00  0.00    -0.481 OA
ATOM     37  H   UNL     1       8.899   3.154   9.448  0.00  0.00    +0.295 HD
ENDBRANCH  27   2
ENDBRANCH  18  27
ENDBRANCH   7  18
ENDBRANCH  16   7
ENDBRANCH  23  16
ENDBRANCH  19   4
ENDBRANCH   9  19
BRANCH  13  22
ATOM     22  C   UNL     1       9.947   5.925   1.673  0.00  0.00    +0.082 C 
BRANCH  22  28
ATOM      5  N   UNL     1      11.470   4.342   0.454  0.00  0.00    -0.331 N 
ATOM      6  N   UNL     1       9.764   5.163  -0.711  0.00  0.00    -0.232 NA
ATOM     28  C   UNL     1      10.370   5.154   0.456  0.00  0.00    +0.111 A 
ATOM     29  C   UNL     1      11.581   3.789  -0.795  0.00  0.00    +0.069 A 
ATOM     30  C   UNL     1      10.506   4.317  -1.505  0.00  0.00    +0.089 A 
ATOM     31  C   UNL     1      12.360   4.106   1.569  0.00  0.00    +0.150 C 
ATOM     32  C   UNL     1      12.502   2.901  -1.351  0.00  0.00    +0.028 A 
ATOM     33  C   UNL     1      10.322   3.947  -2.847  0.00  0.00    +0.030 A 
ATOM     34  C   UNL     1      12.305   2.543  -2.688  0.00  0.00    +0.002 A 
ATOM     35  C   UNL     1      11.235   3.055  -3.425  0.00  0.00    +0.002 A 
ENDBRANCH  22  28
ENDBRANCH  13  22
TORSDOF 10
ENDMDL
MODEL 4
REMARK VINA RESULT:      -6.7     14.516     17.910
REMARK  Name = 71693122
REMARK  14 active torsions:
REMARK  status: ('A' for Active; 'I' for Inactive)
REMARK    1  A    between atoms: O_2  and  C_27
REMARK    2  A    between atoms: N_4  and  C_19
REMARK    3  A    between atoms: N_5  and  C_31
REMARK    4  A    between atoms: C_7  and  C_16
REMARK    5  A    between atoms: C_7  and  C_18
REMARK    6  A    between atoms: C_8  and  C_17
REMARK    7  A    between atoms: C_9  and  C_19
REMARK    8  A    between atoms: C_13  and  C_22
REMARK    9  A    between atoms: C_16  and  C_23
REMARK   10  A    between atoms: C_17  and  C_24
REMARK   11  A    between atoms: C_17  and  C_25
REMARK   12  A    between atoms: C_18  and  C_27
REMARK   13  A    between atoms: C_20  and  C_26
REMARK   14  A    between atoms: C_22  and  C_28
REMARK                            x       y       z     vdW  Elec       q    Type
REMARK                         _______ _______ _______ _____ _____    ______ ____
ROOT
ATOM      8  C   UNL     1       9.819   6.111   6.966  0.00  0.00    +0.000 C 
ATOM      9  C   UNL     1       9.283   5.636   5.592  0.00  0.00    +0.032 C 
ATOM     12  C   UNL     1       8.825   7.083   7.621  0.00  0.00    +0.012 C 
ATOM     13  C   UNL     1       8.559   8.322   6.746  0.00  0.00    +0.022 C 
ATOM     20  C   UNL     1       8.285   7.945   5.304  0.00  0.00    -0.073 C 
ATOM     21  C   UNL     1       8.603   6.735   4.810  0.00  0.00    -0.022 C 
ATOM     26  C   UNL     1       7.595   8.975   4.454  0.00  0.00    +0.039 C 
ENDROOT
BRANCH   8  17
ATOM     17  C   UNL     1      10.091   4.935   7.908  0.00  0.00    -0.013 C 
ATOM     24  C   UNL     1       9.511   5.216   9.292  0.00  0.00    +0.007 C 
ATOM     25  C   UNL     1       9.513   3.646   7.332  0.00  0.00    +0.007 C 
ENDBRANCH   8  17
BRANCH   9  19
ATOM     19  C   UNL     1      10.402   5.023   4.743  0.00  0.00    +0.112 C 
BRANCH  19   4
ATOM      1  O   UNL     1      11.622   6.491   2.568  0.00  0.00    -0.276 OA
ATOM      4  N   UNL     1      11.580   5.830   4.797  0.00  0.00    -0.315 N 
ATOM     23  C   UNL     1      12.106   6.509   3.697  0.00  0.00    +0.214 C 
ATOM     36  H   UNL     1      12.028   5.961   5.700  0.00  0.00    +0.149 HD
BRANCH  23  16
ATOM     16  C   UNL     1      13.360   7.287   4.050  0.00  0.00    +0.103 C 
BRANCH  16   7
ATOM      7  C   UNL     1      13.053   8.599   4.784  0.00  0.00    -0.011 C 
ATOM     10  C   UNL     1      11.677   9.157   4.355  0.00  0.00    +0.008 C 
ATOM     11  C   UNL     1      14.075   9.690   4.383  0.00  0.00    +0.008 C 
ATOM     14  C   UNL     1      11.990  10.291   3.388  0.00  0.00    +0.001 C 
ATOM     15  C   UNL     1      13.246  10.903   3.981  0.00  0.00    +0.001 C 
BRANCH   7  18
ATOM     18  C   UNL     1      13.084   8.347   6.296  0.00  0.00    +0.127 C 
BRANCH  18  27
ATOM      3  O   UNL     1      15.378   7.581   6.601  0.00  0.00    -0.251 OA
ATOM     27  C   UNL     1      14.173   7.385   6.667  0.00  0.00    +0.305 C 
BRANCH  27   2
ATOM      2  O   UNL     1      13.620   6.224   7.103  0.00  0.00    -0.481 OA
ATOM     37  H   UNL     1      14.187   5.450   6.901  0.00  0.00    +0.295 HD
ENDBRANCH  27   2
ENDBRANCH  18  27
ENDBRANCH   7  18
ENDBRANCH  16   7
ENDBRANCH  23  16
ENDBRANCH  19   4
ENDBRANCH   9  19
BRANCH  13  22
ATOM     22  C   UNL     1       9.715   9.324   6.840  0.00  0.00    +0.082 C 
BRANCH  22  28
ATOM      5  N   UNL     1       9.128  11.704   7.393  0.00  0.00    -0.331 N 
ATOM      6  N   UNL     1       9.361  10.320   9.116  0.00  0.00    -0.232 NA
ATOM     28  C   UNL     1       9.404  10.431   7.807  0.00  0.00    +0.111 A 
ATOM     29  C   UNL     1       8.890  12.465   8.507  0.00  0.00    +0.069 A 
ATOM     30  C   UNL     1       9.042  11.580   9.571  0.00  0.00    +0.089 A 
ATOM     31  C   UNL     1       9.092  12.168   6.024  0.00  0.00    +0.150 C 
ATOM     32  C   UNL     1       8.566  13.812   8.673  0.00  0.00    +0.028 A 
ATOM     33  C   UNL     1       8.863  12.047  10.883  0.00  0.00    +0.030 A 
ATOM     34  C   UNL     1       8.391  14.261   9.986  0.00  0.00    +0.002 A 
ATOM     35  C   UNL     1       8.536  13.396  11.073  0.00  0.00    +0.002 A 
ENDBRANCH  22  28
ENDBRANCH  13  22
TORSDOF 10
ENDMDL
MODEL 5
REMARK VINA RESULT:      -6.5     15.110     18.947
REMARK  Name = 71693122
REMARK  14 active torsions:
REMARK  status: ('A' for Active; 'I' for Inactive)
REMARK    1  A    between atoms: O_2  and  C_27
REMARK    2  A    between atoms: N_4  and  C_19
REMARK    3  A    between atoms: N_5  and  C_31
REMARK    4  A    between atoms: C_7  and  C_16
REMARK    5  A    between atoms: C_7  and  C_18
REMARK    6  A    between atoms: C_8  and  C_17
REMARK    7  A    between atoms: C_9  and  C_19
REMARK    8  A    between atoms: C_13  and  C_22
REMARK    9  A    between atoms: C_16  and  C_23
REMARK   10  A    between atoms: C_17  and  C_24
REMARK   11  A    between atoms: C_17  and  C_25
REMARK   12  A    between atoms: C_18  and  C_27
REMARK   13  A    between atoms: C_20  and  C_26
REMARK   14  A    between atoms: C_22  and  C_28
REMARK                            x       y       z     vdW  Elec       q    Type
REMARK                         _______ _______ _______ _____ _____    ______ ____
ROOT
ATOM      8  C   UNL     1       8.591   8.542   5.127  0.00  0.00    +0.000 C 
ATOM      9  C   UNL     1       8.415   7.757   6.451  0.00  0.00    +0.032 C 
ATOM     12  C   UNL     1       8.354   7.620   3.921  0.00  0.00    +0.012 C 
ATOM     13  C   UNL     1       9.317   6.418   3.908  0.00  0.00    +0.022 C 
ATOM     20  C   UNL     1       9.401   5.749   5.265  0.00  0.00    -0.073 C 
ATOM     21  C   UNL     1       8.980   6.357   6.388  0.00  0.00    -0.022 C 
ATOM     26  C   UNL     1       9.938   4.345   5.295  0.00  0.00    +0.039 C 
ENDROOT
BRANCH   8  17
ATOM     17  C   UNL     1       7.649   9.747   5.052  0.00  0.00    -0.013 C 
ATOM     24  C   UNL     1       8.450  11.046   5.008  0.00  0.00    +0.007 C 
ATOM     25  C   UNL     1       6.736   9.634   3.836  0.00  0.00    +0.007 C 
ENDBRANCH   8  17
BRANCH   9  19
ATOM     19  C   UNL     1       9.043   8.508   7.629  0.00  0.00    +0.112 C 
BRANCH  19   4
ATOM      1  O   UNL     1      10.707  10.875   7.571  0.00  0.00    -0.276 OA
ATOM      4  N   UNL     1      10.464   8.563   7.496  0.00  0.00    -0.315 N 
ATOM     23  C   UNL     1      11.195   9.753   7.477  0.00  0.00    +0.214 C 
ATOM     36  H   UNL     1      10.976   7.686   7.469  0.00  0.00    +0.149 HD
BRANCH  23  16
ATOM     16  C   UNL     1      12.685   9.505   7.327  0.00  0.00    +0.103 C 
BRANCH  16   7
ATOM      7  C   UNL     1      13.104   9.295   5.866  0.00  0.00    -0.011 C 
ATOM     10  C   UNL     1      14.384  10.099   5.542  0.00  0.00    +0.008 C 
ATOM     11  C   UNL     1      12.022   9.854   4.910  0.00  0.00    +0.008 C 
ATOM     14  C   UNL     1      13.904  11.314   4.761  0.00  0.00    +0.001 C 
ATOM     15  C   UNL     1      12.764  10.755   3.931  0.00  0.00    +0.001 C 
BRANCH   7  18
ATOM     18  C   UNL     1      13.333   7.798   5.621  0.00  0.00    +0.127 C 
BRANCH  18  27
ATOM      3  O   UNL     1      15.521   7.570   6.673  0.00  0.00    -0.251 OA
ATOM     27  C   UNL     1      14.349   7.238   6.573  0.00  0.00    +0.305 C 
BRANCH  27   2
ATOM      2  O   UNL     1      13.768   6.278   7.338  0.00  0.00    -0.481 OA
ATOM     37  H   UNL     1      14.230   5.417   7.258  0.00  0.00    +0.295 HD
ENDBRANCH  27   2
ENDBRANCH  18  27
ENDBRANCH   7  18
ENDBRANCH  16   7
ENDBRANCH  23  16
ENDBRANCH  19   4
ENDBRANCH   9  19
BRANCH  13  22
ATOM     22  C   UNL     1      10.707   6.830   3.412  0.00  0.00    +0.082 C 
BRANCH  22  28
ATOM      5  N   UNL     1      10.803   6.169   0.991  0.00  0.00    -0.331 N 
ATOM      6  N   UNL     1      11.957   4.901   2.404  0.00  0.00    -0.232 NA
ATOM     28  C   UNL     1      11.172   5.949   2.288  0.00  0.00    +0.111 A 
ATOM     29  C   UNL     1      11.389   5.201   0.218  0.00  0.00    +0.069 A 
ATOM     30  C   UNL     1      12.104   4.421   1.123  0.00  0.00    +0.089 A 
ATOM     31  C   UNL     1       9.948   7.233   0.514  0.00  0.00    +0.150 C 
ATOM     32  C   UNL     1      11.356   4.946  -1.153  0.00  0.00    +0.028 A 
ATOM     33  C   UNL     1      12.836   3.319   0.650  0.00  0.00    +0.030 A 
ATOM     34  C   UNL     1      12.090   3.845  -1.607  0.00  0.00    +0.002 A 
ATOM     35  C   UNL     1      12.817   3.044  -0.724  0.00  0.00    +0.002 A 
ENDBRANCH  22  28
ENDBRANCH  13  22
TORSDOF 10
ENDMDL
MODEL 6
REMARK VINA RESULT:      -6.4      2.953      5.382
REMARK  Name = 71693122
REMARK  14 active torsions:
REMARK  status: ('A' for Active; 'I' for Inactive)
REMARK    1  A    between atoms: O_2  and  C_27
REMARK    2  A    between atoms: N_4  and  C_19
REMARK    3  A    between atoms: N_5  and  C_31
REMARK    4  A    between atoms: C_7  and  C_16
REMARK    5  A    between atoms: C_7  and  C_18
REMARK    6  A    between atoms: C_8  and  C_17
REMARK    7  A    between atoms: C_9  and  C_19
REMARK    8  A    between atoms: C_13  and  C_22
REMARK    9  A    between atoms: C_16  and  C_23
REMARK   10  A    between atoms: C_17  and  C_24
REMARK   11  A    between atoms: C_17  and  C_25
REMARK   12  A    between atoms: C_18  and  C_27
REMARK   13  A    between atoms: C_20  and  C_26
REMARK   14  A    between atoms: C_22  and  C_28
REMARK                            x       y       z     vdW  Elec       q    Type
REMARK                         _______ _______ _______ _____ _____    ______ ____
ROOT
ATOM      8  C   UNL     1      13.506   9.115  20.779  0.00  0.00    +0.000 C 
ATOM      9  C   UNL     1      13.635  10.633  21.058  0.00  0.00    +0.032 C 
ATOM     12  C   UNL     1      14.402   8.316  21.738  0.00  0.00    +0.012 C 
ATOM     13  C   UNL     1      15.885   8.711  21.615  0.00  0.00    +0.022 C 
ATOM     20  C   UNL     1      16.069  10.215  21.612  0.00  0.00    -0.073 C 
ATOM     21  C   UNL     1      15.050  11.058  21.375  0.00  0.00    -0.022 C 
ATOM     26  C   UNL     1      17.445  10.729  21.934  0.00  0.00    +0.039 C 
ENDROOT
BRANCH   8  17
ATOM     17  C   UNL     1      12.056   8.636  20.903  0.00  0.00    -0.013 C 
ATOM     24  C   UNL     1      11.417   8.512  19.523  0.00  0.00    +0.007 C 
ATOM     25  C   UNL     1      11.997   7.306  21.648  0.00  0.00    +0.007 C 
ENDBRANCH   8  17
BRANCH   9  19
ATOM     19  C   UNL     1      13.105  11.460  19.882  0.00  0.00    +0.112 C 
BRANCH  19   4
ATOM      1  O   UNL     1      13.549  13.463  17.841  0.00  0.00    -0.276 OA
ATOM      4  N   UNL     1      13.990  11.374  18.762  0.00  0.00    -0.315 N 
ATOM     23  C   UNL     1      14.146  12.390  17.818  0.00  0.00    +0.214 C 
ATOM     36  H   UNL     1      14.577  10.548  18.680  0.00  0.00    +0.149 HD
BRANCH  23  16
ATOM     16  C   UNL     1      15.153  12.022  16.743  0.00  0.00    +0.103 C 
BRANCH  16   7
ATOM      7  C   UNL     1      14.488  11.465  15.478  0.00  0.00    -0.011 C 
ATOM     10  C   UNL     1      15.517  10.713  14.605  0.00  0.00    +0.008 C 
ATOM     11  C   UNL     1      13.970  12.622  14.589  0.00  0.00    +0.008 C 
ATOM     14  C   UNL     1      15.850  11.670  13.468  0.00  0.00    +0.001 C 
ATOM     15  C   UNL     1      14.520  12.347  13.195  0.00  0.00    +0.001 C 
BRANCH   7  18
ATOM     18  C   UNL     1      13.342  10.530  15.884  0.00  0.00    +0.127 C 
BRANCH  18  27
ATOM      3  O   UNL     1      13.796   8.286  15.045  0.00  0.00    -0.251 OA
ATOM     27  C   UNL     1      13.802   9.103  15.954  0.00  0.00    +0.305 C 
BRANCH  27   2
ATOM      2  O   UNL     1      14.241   8.832  17.210  0.00  0.00    -0.481 OA
ATOM     37  H   UNL     1      13.514   8.863  17.867  0.00  0.00    +0.295 HD
ENDBRANCH  27   2
ENDBRANCH  18  27
ENDBRANCH   7  18
ENDBRANCH  16   7
ENDBRANCH  23  16
ENDBRANCH  19   4
ENDBRANCH   9  19
BRANCH  13  22
ATOM     22  C   UNL     1      16.524   8.078  20.374  0.00  0.00    +0.082 C 
BRANCH  22  28
ATOM      5  N   UNL     1      18.184   6.231  19.992  0.00  0.00    -0.331 N 
ATOM      6  N   UNL     1      18.555   7.543  21.747  0.00  0.00    -0.232 NA
ATOM     28  C   UNL     1      17.760   7.302  20.728  0.00  0.00    +0.111 A 
ATOM     29  C   UNL     1      19.329   5.750  20.572  0.00  0.00    +0.069 A 
ATOM     30  C   UNL     1      19.540   6.585  21.666  0.00  0.00    +0.089 A 
ATOM     31  C   UNL     1      17.543   5.698  18.811  0.00  0.00    +0.150 C 
ATOM     32  C   UNL     1      20.172   4.688  20.246  0.00  0.00    +0.028 A 
ATOM     33  C   UNL     1      20.654   6.363  22.494  0.00  0.00    +0.030 A 
ATOM     34  C   UNL     1      21.276   4.480  21.080  0.00  0.00    +0.002 A 
ATOM     35  C   UNL     1      21.515   5.302  22.184  0.00  0.00    +0.002 A 
ENDBRANCH  22  28
ENDBRANCH  13  22
TORSDOF 10
ENDMDL
MODEL 7
REMARK VINA RESULT:      -6.3     16.114     20.116
REMARK  Name = 71693122
REMARK  14 active torsions:
REMARK  status: ('A' for Active; 'I' for Inactive)
REMARK    1  A    between atoms: O_2  and  C_27
REMARK    2  A    between atoms: N_4  and  C_19
REMARK    3  A    between atoms: N_5  and  C_31
REMARK    4  A    between atoms: C_7  and  C_16
REMARK    5  A    between atoms: C_7  and  C_18
REMARK    6  A    between atoms: C_8  and  C_17
REMARK    7  A    between atoms: C_9  and  C_19
REMARK    8  A    between atoms: C_13  and  C_22
REMARK    9  A    between atoms: C_16  and  C_23
REMARK   10  A    between atoms: C_17  and  C_24
REMARK   11  A    between atoms: C_17  and  C_25
REMARK   12  A    between atoms: C_18  and  C_27
REMARK   13  A    between atoms: C_20  and  C_26
REMARK   14  A    between atoms: C_22  and  C_28
REMARK                            x       y       z     vdW  Elec       q    Type
REMARK                         _______ _______ _______ _____ _____    ______ ____
ROOT
ATOM      8  C   UNL     1      12.935   6.950   2.221  0.00  0.00    +0.000 C 
ATOM      9  C   UNL     1      12.556   7.998   3.297  0.00  0.00    +0.032 C 
ATOM     12  C   UNL     1      12.180   7.230   0.912  0.00  0.00    +0.012 C 
ATOM     13  C   UNL     1      10.652   7.202   1.103  0.00  0.00    +0.022 C 
ATOM     20  C   UNL     1      10.222   8.002   2.316  0.00  0.00    -0.073 C 
ATOM     21  C   UNL     1      11.089   8.360   3.279  0.00  0.00    -0.022 C 
ATOM     26  C   UNL     1       8.779   8.421   2.374  0.00  0.00    +0.039 C 
ENDROOT
BRANCH   8  17
ATOM     17  C   UNL     1      14.443   6.929   1.955  0.00  0.00    -0.013 C 
ATOM     24  C   UNL     1      14.771   5.953   0.828  0.00  0.00    +0.007 C 
ATOM     25  C   UNL     1      14.945   8.330   1.621  0.00  0.00    +0.007 C 
ENDBRANCH   8  17
BRANCH   9  19
ATOM     19  C   UNL     1      12.945   7.518   4.699  0.00  0.00    +0.112 C 
BRANCH  19   4
ATOM      1  O   UNL     1      12.685   6.385   7.350  0.00  0.00    -0.276 OA
ATOM      4  N   UNL     1      11.866   7.704   5.617  0.00  0.00    -0.315 N 
ATOM     23  C   UNL     1      11.817   7.119   6.884  0.00  0.00    +0.214 C 
ATOM     36  H   UNL     1      11.120   8.341   5.354  0.00  0.00    +0.149 HD
BRANCH  23  16
ATOM     16  C   UNL     1      10.555   7.494   7.638  0.00  0.00    +0.103 C 
BRANCH  16   7
ATOM      7  C   UNL     1       9.392   6.533   7.358  0.00  0.00    -0.011 C 
ATOM     10  C   UNL     1       9.884   5.289   6.584  0.00  0.00    +0.008 C 
ATOM     11  C   UNL     1       8.353   7.205   6.426  0.00  0.00    +0.008 C 
ATOM     14  C   UNL     1       9.454   5.520   5.142  0.00  0.00    +0.001 C 
ATOM     15  C   UNL     1       8.112   6.212   5.296  0.00  0.00    +0.001 C 
BRANCH   7  18
ATOM     18  C   UNL     1       8.750   6.120   8.688  0.00  0.00    +0.127 C 
BRANCH  18  27
ATOM      3  O   UNL     1      10.754   5.261   9.779  0.00  0.00    -0.251 OA
ATOM     27  C   UNL     1       9.597   5.116   9.413  0.00  0.00    +0.305 C 
BRANCH  27   2
ATOM      2  O   UNL     1       8.878   3.983   9.617  0.00  0.00    -0.481 OA
ATOM     37  H   UNL     1       8.758   3.791  10.571  0.00  0.00    +0.295 HD
ENDBRANCH  27   2
ENDBRANCH  18  27
ENDBRANCH   7  18
ENDBRANCH  16   7
ENDBRANCH  23  16
ENDBRANCH  19   4
ENDBRANCH   9  19
BRANCH  13  22
ATOM     22  C   UNL     1      10.131   5.763   1.182  0.00  0.00    +0.082 C 
BRANCH  22  28
ATOM      5  N   UNL     1      10.075   5.146  -1.253  0.00  0.00    -0.331 N 
ATOM      6  N   UNL     1      11.479   3.990   0.025  0.00  0.00    -0.232 NA
ATOM     28  C   UNL     1      10.581   4.951   0.001  0.00  0.00    +0.111 A 
ATOM     29  C   UNL     1      10.686   4.255  -2.096  0.00  0.00    +0.069 A 
ATOM     30  C   UNL     1      11.558   3.544  -1.275  0.00  0.00    +0.089 A 
ATOM     31  C   UNL     1       9.073   6.119  -1.628  0.00  0.00    +0.150 C 
ATOM     32  C   UNL     1      10.556   4.015  -3.464  0.00  0.00    +0.028 A 
ATOM     33  C   UNL     1      12.355   2.532  -1.835  0.00  0.00    +0.030 A 
ATOM     34  C   UNL     1      11.356   3.004  -4.005  0.00  0.00    +0.002 A 
ATOM     35  C   UNL     1      12.241   2.274  -3.207  0.00  0.00    +0.002 A 
ENDBRANCH  22  28
ENDBRANCH  13  22
TORSDOF 10
ENDMDL
MODEL 8
REMARK VINA RESULT:      -6.3     28.362     31.733
REMARK  Name = 71693122
REMARK  14 active torsions:
REMARK  status: ('A' for Active; 'I' for Inactive)
REMARK    1  A    between atoms: O_2  and  C_27
REMARK    2  A    between atoms: N_4  and  C_19
REMARK    3  A    between atoms: N_5  and  C_31
REMARK    4  A    between atoms: C_7  and  C_16
REMARK    5  A    between atoms: C_7  and  C_18
REMARK    6  A    between atoms: C_8  and  C_17
REMARK    7  A    between atoms: C_9  and  C_19
REMARK    8  A    between atoms: C_13  and  C_22
REMARK    9  A    between atoms: C_16  and  C_23
REMARK   10  A    between atoms: C_17  and  C_24
REMARK   11  A    between atoms: C_17  and  C_25
REMARK   12  A    between atoms: C_18  and  C_27
REMARK   13  A    between atoms: C_20  and  C_26
REMARK   14  A    between atoms: C_22  and  C_28
REMARK                            x       y       z     vdW  Elec       q    Type
REMARK                         _______ _______ _______ _____ _____    ______ ____
ROOT
ATOM      8  C   UNL     1      -3.617 -12.262  12.631  0.00  0.00    +0.000 C 
ATOM      9  C   UNL     1      -2.259 -11.519  12.555  0.00  0.00    +0.032 C 
ATOM     12  C   UNL     1      -4.265 -12.336  11.240  0.00  0.00    +0.012 C 
ATOM     13  C   UNL     1      -4.505 -10.940  10.633  0.00  0.00    +0.022 C 
ATOM     20  C   UNL     1      -3.285 -10.053  10.764  0.00  0.00    -0.073 C 
ATOM     21  C   UNL     1      -2.285 -10.335  11.618  0.00  0.00    -0.022 C 
ATOM     26  C   UNL     1      -3.218  -8.856   9.856  0.00  0.00    +0.039 C 
ENDROOT
BRANCH   8  17
ATOM     17  C   UNL     1      -3.462 -13.672  13.206  0.00  0.00    -0.013 C 
ATOM     24  C   UNL     1      -4.821 -14.358  13.308  0.00  0.00    +0.007 C 
ATOM     25  C   UNL     1      -2.504 -14.495  12.350  0.00  0.00    +0.007 C 
ENDBRANCH   8  17
BRANCH   9  19
ATOM     19  C   UNL     1      -1.799 -11.062  13.943  0.00  0.00    +0.112 C 
BRANCH  19   4
ATOM      1  O   UNL     1      -1.958 -10.928  16.829  0.00  0.00    -0.276 OA
ATOM      4  N   UNL     1      -2.912 -10.629  14.729  0.00  0.00    -0.315 N 
ATOM     23  C   UNL     1      -2.907 -10.594  16.124  0.00  0.00    +0.214 C 
ATOM     36  H   UNL     1      -3.731 -10.276  14.243  0.00  0.00    +0.149 HD
BRANCH  23  16
ATOM     16  C   UNL     1      -4.224 -10.090  16.688  0.00  0.00    +0.103 C 
BRANCH  16   7
ATOM      7  C   UNL     1      -5.053 -11.204  17.339  0.00  0.00    -0.011 C 
ATOM     10  C   UNL     1      -6.526 -10.766  17.501  0.00  0.00    +0.008 C 
ATOM     11  C   UNL     1      -4.550 -11.476  18.778  0.00  0.00    +0.008 C 
ATOM     14  C   UNL     1      -6.676 -10.407  18.973  0.00  0.00    +0.001 C 
ATOM     15  C   UNL     1      -5.790 -11.429  19.662  0.00  0.00    +0.001 C 
BRANCH   7  18
ATOM     18  C   UNL     1      -4.959 -12.468  16.477  0.00  0.00    +0.127 C 
BRANCH  18  27
ATOM      3  O   UNL     1      -6.656 -13.986  17.349  0.00  0.00    -0.251 OA
ATOM     27  C   UNL     1      -5.484 -13.669  17.209  0.00  0.00    +0.305 C 
BRANCH  27   2
ATOM      2  O   UNL     1      -4.443 -14.380  17.712  0.00  0.00    -0.481 OA
ATOM     37  H   UNL     1      -3.821 -13.813  18.216  0.00  0.00    +0.295 HD
ENDBRANCH  27   2
ENDBRANCH  18  27
ENDBRANCH   7  18
ENDBRANCH  16   7
ENDBRANCH  23  16
ENDBRANCH  19   4
ENDBRANCH   9  19
BRANCH  13  22
ATOM     22  C   UNL     1      -5.738 -10.273  11.253  0.00  0.00    +0.082 C 
BRANCH  22  28
ATOM      5  N   UNL     1      -7.607 -10.511   9.592  0.00  0.00    -0.331 N 
ATOM      6  N   UNL     1      -6.671  -8.502   9.740  0.00  0.00    -0.232 NA
ATOM     28  C   UNL     1      -6.660  -9.734  10.197  0.00  0.00    +0.111 A 
ATOM     29  C   UNL     1      -8.275  -9.730   8.686  0.00  0.00    +0.069 A 
ATOM     30  C   UNL     1      -7.672  -8.480   8.797  0.00  0.00    +0.089 A 
ATOM     31  C   UNL     1      -7.864 -11.910   9.858  0.00  0.00    +0.150 C 
ATOM     32  C   UNL     1      -9.322  -9.999   7.804  0.00  0.00    +0.028 A 
ATOM     33  C   UNL     1      -8.128  -7.424   7.989  0.00  0.00    +0.030 A 
ATOM     34  C   UNL     1      -9.764  -8.938   7.008  0.00  0.00    +0.002 A 
ATOM     35  C   UNL     1      -9.180  -7.672   7.097  0.00  0.00    +0.002 A 
ENDBRANCH  22  28
ENDBRANCH  13  22
TORSDOF 10
ENDMDL
MODEL 9
REMARK VINA RESULT:      -6.2     17.589     21.450
REMARK  Name = 71693122
REMARK  14 active torsions:
REMARK  status: ('A' for Active; 'I' for Inactive)
REMARK    1  A    between atoms: O_2  and  C_27
REMARK    2  A    between atoms: N_4  and  C_19
REMARK    3  A    between atoms: N_5  and  C_31
REMARK    4  A    between atoms: C_7  and  C_16
REMARK    5  A    between atoms: C_7  and  C_18
REMARK    6  A    between atoms: C_8  and  C_17
REMARK    7  A    between atoms: C_9  and  C_19
REMARK    8  A    between atoms: C_13  and  C_22
REMARK    9  A    between atoms: C_16  and  C_23
REMARK   10  A    between atoms: C_17  and  C_24
REMARK   11  A    between atoms: C_17  and  C_25
REMARK   12  A    between atoms: C_18  and  C_27
REMARK   13  A    between atoms: C_20  and  C_26
REMARK   14  A    between atoms: C_22  and  C_28
REMARK                            x       y       z     vdW  Elec       q    Type
REMARK                         _______ _______ _______ _____ _____    ______ ____
ROOT
ATOM      8  C   UNL     1      12.541   5.057   0.777  0.00  0.00    +0.000 C 
ATOM      9  C   UNL     1      13.748   5.140   1.745  0.00  0.00    +0.032 C 
ATOM     12  C   UNL     1      12.727   3.898  -0.214  0.00  0.00    +0.012 C 
ATOM     13  C   UNL     1      14.012   4.045  -1.048  0.00  0.00    +0.022 C 
ATOM     20  C   UNL     1      15.207   4.395  -0.185  0.00  0.00    -0.073 C 
ATOM     21  C   UNL     1      15.070   4.869   1.065  0.00  0.00    -0.022 C 
ATOM     26  C   UNL     1      16.567   4.142  -0.777  0.00  0.00    +0.039 C 
ENDROOT
BRANCH   8  17
ATOM     17  C   UNL     1      11.219   4.888   1.531  0.00  0.00    -0.013 C 
ATOM     24  C   UNL     1      10.053   4.806   0.549  0.00  0.00    +0.007 C 
ATOM     25  C   UNL     1      11.266   3.650   2.420  0.00  0.00    +0.007 C 
ENDBRANCH   8  17
BRANCH   9  19
ATOM     19  C   UNL     1      13.804   6.500   2.446  0.00  0.00    +0.112 C 
BRANCH  19   4
ATOM      1  O   UNL     1      12.132   8.440   3.795  0.00  0.00    -0.276 OA
ATOM      4  N   UNL     1      13.271   6.412   3.769  0.00  0.00    -0.315 N 
ATOM     23  C   UNL     1      12.469   7.396   4.349  0.00  0.00    +0.214 C 
ATOM     36  H   UNL     1      13.440   5.559   4.296  0.00  0.00    +0.149 HD
BRANCH  23  16
ATOM     16  C   UNL     1      12.046   7.032   5.761  0.00  0.00    +0.103 C 
BRANCH  16   7
ATOM      7  C   UNL     1      10.532   6.825   5.889  0.00  0.00    -0.011 C 
ATOM     10  C   UNL     1      10.220   5.614   6.797  0.00  0.00    +0.008 C 
ATOM     11  C   UNL     1       9.920   6.468   4.512  0.00  0.00    +0.008 C 
ATOM     14  C   UNL     1       9.842   4.488   5.844  0.00  0.00    +0.001 C 
ATOM     15  C   UNL     1       9.087   5.213   4.746  0.00  0.00    +0.001 C 
BRANCH   7  18
ATOM     18  C   UNL     1       9.898   8.100   6.457  0.00  0.00    +0.127 C 
BRANCH  18  27
ATOM      3  O   UNL     1       8.609   7.507   8.440  0.00  0.00    -0.251 OA
ATOM     27  C   UNL     1       8.663   7.788   7.252  0.00  0.00    +0.305 C 
BRANCH  27   2
ATOM      2  O   UNL     1       7.575   7.865   6.444  0.00  0.00    -0.481 OA
ATOM     37  H   UNL     1       7.143   8.744   6.494  0.00  0.00    +0.295 HD
ENDBRANCH  27   2
ENDBRANCH  18  27
ENDBRANCH   7  18
ENDBRANCH  16   7
ENDBRANCH  23  16
ENDBRANCH  19   4
ENDBRANCH   9  19
BRANCH  13  22
ATOM     22  C   UNL     1      13.827   5.071  -2.171  0.00  0.00    +0.082 C 
BRANCH  22  28
ATOM      5  N   UNL     1      11.597   6.167  -2.541  0.00  0.00    -0.331 N 
ATOM      6  N   UNL     1      11.810   4.087  -3.294  0.00  0.00    -0.232 NA
ATOM     28  C   UNL     1      12.414   5.080  -2.680  0.00  0.00    +0.111 A 
ATOM     29  C   UNL     1      10.387   5.857  -3.103  0.00  0.00    +0.069 A 
ATOM     30  C   UNL     1      10.544   4.553  -3.566  0.00  0.00    +0.089 A 
ATOM     31  C   UNL     1      11.944   7.423  -1.913  0.00  0.00    +0.150 C 
ATOM     32  C   UNL     1       9.202   6.580  -3.242  0.00  0.00    +0.028 A 
ATOM     33  C   UNL     1       9.468   3.919  -4.209  0.00  0.00    +0.030 A 
ATOM     34  C   UNL     1       8.141   5.935  -3.885  0.00  0.00    +0.002 A 
ATOM     35  C   UNL     1       8.269   4.628  -4.361  0.00  0.00    +0.002 A 
ENDBRANCH  22  28
ENDBRANCH  13  22
TORSDOF 10
ENDMDL
MODEL 10
REMARK VINA RESULT:      -6.2      4.125      6.325
REMARK  Name = 71693122
REMARK  14 active torsions:
REMARK  status: ('A' for Active; 'I' for Inactive)
REMARK    1  A    between atoms: O_2  and  C_27
REMARK    2  A    between atoms: N_4  and  C_19
REMARK    3  A    between atoms: N_5  and  C_31
REMARK    4  A    between atoms: C_7  and  C_16
REMARK    5  A    between atoms: C_7  and  C_18
REMARK    6  A    between atoms: C_8  and  C_17
REMARK    7  A    between atoms: C_9  and  C_19
REMARK    8  A    between atoms: C_13  and  C_22
REMARK    9  A    between atoms: C_16  and  C_23
REMARK   10  A    between atoms: C_17  and  C_24
REMARK   11  A    between atoms: C_17  and  C_25
REMARK   12  A    between atoms: C_18  and  C_27
REMARK   13  A    between atoms: C_20  and  C_26
REMARK   14  A    between atoms: C_22  and  C_28
REMARK                            x       y       z     vdW  Elec       q    Type
REMARK                         _______ _______ _______ _____ _____    ______ ____
ROOT
ATOM      8  C   UNL     1      13.820   8.801  19.924  0.00  0.00    +0.000 C 
ATOM      9  C   UNL     1      13.552   7.318  20.283  0.00  0.00    +0.032 C 
ATOM     12  C   UNL     1      15.200   8.951  19.265  0.00  0.00    +0.012 C 
ATOM     13  C   UNL     1      16.339   8.455  20.176  0.00  0.00    +0.022 C 
ATOM     20  C   UNL     1      16.024   7.104  20.786  0.00  0.00    -0.073 C 
ATOM     21  C   UNL     1      14.775   6.607  20.812  0.00  0.00    -0.022 C 
ATOM     26  C   UNL     1      17.186   6.317  21.325  0.00  0.00    +0.039 C 
ENDROOT
BRANCH   8  17
ATOM     17  C   UNL     1      12.739   9.366  18.999  0.00  0.00    -0.013 C 
ATOM     24  C   UNL     1      13.161  10.731  18.459  0.00  0.00    +0.007 C 
ATOM     25  C   UNL     1      12.455   8.397  17.856  0.00  0.00    +0.007 C 
ENDBRANCH   8  17
BRANCH   9  19
ATOM     19  C   UNL     1      12.410   7.192  21.297  0.00  0.00    +0.112 C 
BRANCH  19   4
ATOM      1  O   UNL     1      10.180   8.875  22.054  0.00  0.00    -0.276 OA
ATOM      4  N   UNL     1      12.424   8.285  22.217  0.00  0.00    -0.315 N 
ATOM     23  C   UNL     1      11.299   9.051  22.528  0.00  0.00    +0.214 C 
ATOM     36  H   UNL     1      13.290   8.481  22.712  0.00  0.00    +0.149 HD
BRANCH  23  16
ATOM     16  C   UNL     1      11.612  10.142  23.536  0.00  0.00    +0.103 C 
BRANCH  16   7
ATOM      7  C   UNL     1      12.189  11.403  22.881  0.00  0.00    -0.011 C 
ATOM     10  C   UNL     1      11.975  12.637  23.786  0.00  0.00    +0.008 C 
ATOM     11  C   UNL     1      11.428  11.724  21.571  0.00  0.00    +0.008 C 
ATOM     14  C   UNL     1      10.807  13.391  23.164  0.00  0.00    +0.001 C 
ATOM     15  C   UNL     1      11.029  13.191  21.676  0.00  0.00    +0.001 C 
BRANCH   7  18
ATOM     18  C   UNL     1      13.682  11.189  22.609  0.00  0.00    +0.127 C 
BRANCH  18  27
ATOM      3  O   UNL     1      15.014  12.815  23.844  0.00  0.00    -0.251 OA
ATOM     27  C   UNL     1      14.522  11.701  23.742  0.00  0.00    +0.305 C 
BRANCH  27   2
ATOM      2  O   UNL     1      14.667  10.724  24.674  0.00  0.00    -0.481 OA
ATOM     37  H   UNL     1      14.573  11.071  25.586  0.00  0.00    +0.295 HD
ENDBRANCH  27   2
ENDBRANCH  18  27
ENDBRANCH   7  18
ENDBRANCH  16   7
ENDBRANCH  23  16
ENDBRANCH  19   4
ENDBRANCH   9  19
BRANCH  13  22
ATOM     22  C   UNL     1      16.665   9.485  21.262  0.00  0.00    +0.082 C 
BRANCH  22  28
ATOM      5  N   UNL     1      19.103  10.090  21.306  0.00  0.00    -0.331 N 
ATOM      6  N   UNL     1      17.783  11.405  20.095  0.00  0.00    -0.232 NA
ATOM     28  C   UNL     1      17.833  10.345  20.871  0.00  0.00    +0.111 A 
ATOM     29  C   UNL     1      19.928  11.047  20.776  0.00  0.00    +0.069 A 
ATOM     30  C   UNL     1      19.081  11.857  20.024  0.00  0.00    +0.089 A 
ATOM     31  C   UNL     1      19.508   9.005  22.172  0.00  0.00    +0.150 C 
ATOM     32  C   UNL     1      21.301  11.270  20.886  0.00  0.00    +0.028 A 
ATOM     33  C   UNL     1      19.617  12.956  19.334  0.00  0.00    +0.030 A 
ATOM     34  C   UNL     1      21.819  12.368  20.193  0.00  0.00    +0.002 A 
ATOM     35  C   UNL     1      20.994  13.198  19.430  0.00  0.00    +0.002 A 
ENDBRANCH  22  28
ENDBRANCH  13  22
TORSDOF 10
ENDMDL
