MODEL 1
REMARK VINA RESULT:      -7.5      0.000      0.000
REMARK  Name = 26762199
REMARK  7 active torsions:
REMARK  status: ('A' for Active; 'I' for Inactive)
REMARK    1  A    between atoms: N_6  and  C_11
REMARK    2  A    between atoms: N_8  and  C_24
REMARK    3  A    between atoms: C_10  and  C_15
REMARK    4  A    between atoms: C_15  and  C_17
REMARK    5  A    between atoms: C_17  and  C_18
REMARK    6  A    between atoms: C_24  and  C_28
REMARK    7  A    between atoms: C_24  and  C_29
REMARK                            x       y       z     vdW  Elec       q    Type
REMARK                         _______ _______ _______ _____ _____    ______ ____
ROOT
ATOM      1  O   UNL     1      11.525   7.959  17.526  0.00  0.00    -0.274 OA
ATOM      4  N   UNL     1      13.261   8.246  20.478  0.00  0.00    -0.285 NA
ATOM      5  N   UNL     1      13.728   7.411  17.955  0.00  0.00    -0.313 N 
ATOM      9  C   UNL     1      12.193   7.501  19.813  0.00  0.00    +0.145 C 
ATOM     10  C   UNL     1      14.591   7.663  20.284  0.00  0.00    +0.075 C 
ATOM     11  C   UNL     1      11.357   8.753  21.710  0.00  0.00    +0.090 C 
ATOM     12  C   UNL     1      10.928   8.143  20.370  0.00  0.00    +0.052 C 
ATOM     13  C   UNL     1      12.834   8.397  21.865  0.00  0.00    +0.107 C 
ATOM     14  C   UNL     1      14.695   6.929  18.928  0.00  0.00    +0.123 C 
ATOM     16  C   UNL     1      12.415   7.668  18.321  0.00  0.00    +0.230 C 
ATOM     31  H   UNL     1      13.989   7.461  16.975  0.00  0.00    +0.149 HD
ENDROOT
BRANCH  11   6
ATOM      3  O   UNL     1      10.849  10.569  23.930  0.00  0.00    -0.253 OA
ATOM      6  N   UNL     1      11.199  10.230  21.659  0.00  0.00    -0.295 N 
ATOM      8  N   UNL     1      10.850  12.359  22.455  0.00  0.00    -0.297 N 
ATOM     19  C   UNL     1      10.956  11.012  22.787  0.00  0.00    +0.300 C 
ATOM     32  H   UNL     1      11.361  10.700  20.773  0.00  0.00    +0.151 HD
ATOM     33  H   UNL     1      11.032  12.636  21.494  0.00  0.00    +0.150 HD
BRANCH   8  24
ATOM     24  C   UNL     1      10.599  13.390  23.435  0.00  0.00    +0.068 C 
ATOM     28  C   UNL     1       9.693  14.466  22.853  0.00  0.00    +0.027 C 
ATOM     29  C   UNL     1      11.912  13.984  23.933  0.00  0.00    +0.027 C 
ENDBRANCH   8  24
ENDBRANCH  11   6
BRANCH  10  15
ATOM     15  C   UNL     1      15.632   8.783  20.361  0.00  0.00    +0.029 C 
BRANCH  15  17
ATOM     17  C   UNL     1      16.564   8.628  21.552  0.00  0.00    +0.098 C 
BRANCH  17  18
ATOM      2  O   UNL     1      17.251   6.389  21.189  0.00  0.00    -0.275 OA
ATOM      7  N   UNL     1      18.907   8.032  21.198  0.00  0.00    -0.271 N 
ATOM     18  C   UNL     1      17.604   7.563  21.294  0.00  0.00    +0.220 C 
ATOM     20  C   UNL     1      19.329   9.444  21.325  0.00  0.00    +0.118 C 
ATOM     21  C   UNL     1      20.054   7.246  20.962  0.00  0.00    +0.039 A 
ATOM     22  C   UNL     1      20.849   9.495  21.142  0.00  0.00    +0.056 C 
ATOM     23  C   UNL     1      21.190   8.057  20.925  0.00  0.00    -0.024 A 
ATOM     25  C   UNL     1      20.159   5.875  20.781  0.00  0.00    +0.024 A 
ATOM     26  C   UNL     1      22.451   7.523  20.708  0.00  0.00    +0.005 A 
ATOM     27  C   UNL     1      21.427   5.327  20.561  0.00  0.00    +0.002 A 
ATOM     30  C   UNL     1      22.565   6.145  20.524  0.00  0.00    +0.000 A 
ENDBRANCH  17  18
ENDBRANCH  15  17
ENDBRANCH  10  15
TORSDOF 5
ENDMDL
MODEL 2
REMARK VINA RESULT:      -7.4     15.179     18.853
REMARK  Name = 26762199
REMARK  7 active torsions:
REMARK  status: ('A' for Active; 'I' for Inactive)
REMARK    1  A    between atoms: N_6  and  C_11
REMARK    2  A    between atoms: N_8  and  C_24
REMARK    3  A    between atoms: C_10  and  C_15
REMARK    4  A    between atoms: C_15  and  C_17
REMARK    5  A    between atoms: C_17  and  C_18
REMARK    6  A    between atoms: C_24  and  C_28
REMARK    7  A    between atoms: C_24  and  C_29
REMARK                            x       y       z     vdW  Elec       q    Type
REMARK                         _______ _______ _______ _____ _____    ______ ____
ROOT
ATOM      1  O   UNL     1      10.041  10.319   5.077  0.00  0.00    -0.274 OA
ATOM      4  N   UNL     1      11.278   7.548   6.690  0.00  0.00    -0.285 NA
ATOM      5  N   UNL     1       9.087   9.120   6.807  0.00  0.00    -0.313 N 
ATOM      9  C   UNL     1      11.477   8.985   6.507  0.00  0.00    +0.145 C 
ATOM     10  C   UNL     1      10.370   7.218   7.791  0.00  0.00    +0.075 C 
ATOM     11  C   UNL     1      13.360   7.711   5.670  0.00  0.00    +0.090 C 
ATOM     12  C   UNL     1      12.625   9.048   5.507  0.00  0.00    +0.052 C 
ATOM     13  C   UNL     1      12.615   6.971   6.779  0.00  0.00    +0.107 C 
ATOM     14  C   UNL     1       9.310   8.322   8.001  0.00  0.00    +0.123 C 
ATOM     16  C   UNL     1      10.152   9.546   6.025  0.00  0.00    +0.230 C 
ATOM     31  H   UNL     1       8.153   9.457   6.598  0.00  0.00    +0.149 HD
ENDROOT
BRANCH  11   6
ATOM      3  O   UNL     1      15.535   6.993   3.872  0.00  0.00    -0.253 OA
ATOM      6  N   UNL     1      13.275   6.938   4.404  0.00  0.00    -0.295 N 
ATOM      8  N   UNL     1      14.021   5.911   2.486  0.00  0.00    -0.297 N 
ATOM     19  C   UNL     1      14.383   6.646   3.612  0.00  0.00    +0.300 C 
ATOM     32  H   UNL     1      12.380   6.529   4.150  0.00  0.00    +0.151 HD
ATOM     33  H   UNL     1      13.056   5.605   2.399  0.00  0.00    +0.150 HD
BRANCH   8  24
ATOM     24  C   UNL     1      14.976   5.476   1.494  0.00  0.00    +0.068 C 
ATOM     28  C   UNL     1      14.650   6.090   0.139  0.00  0.00    +0.027 C 
ATOM     29  C   UNL     1      15.010   3.954   1.417  0.00  0.00    +0.027 C 
ENDBRANCH   8  24
ENDBRANCH  11   6
BRANCH  10  15
ATOM     15  C   UNL     1       9.689   5.882   7.479  0.00  0.00    +0.029 C 
BRANCH  15  17
ATOM     17  C   UNL     1       8.895   5.925   6.183  0.00  0.00    +0.098 C 
BRANCH  17  18
ATOM      2  O   UNL     1      10.028   4.023   5.337  0.00  0.00    -0.275 OA
ATOM      7  N   UNL     1       9.678   5.805   3.872  0.00  0.00    -0.271 N 
ATOM     18  C   UNL     1       9.592   5.148   5.092  0.00  0.00    +0.220 C 
ATOM     20  C   UNL     1       9.155   7.157   3.580  0.00  0.00    +0.118 C 
ATOM     21  C   UNL     1      10.278   5.299   2.700  0.00  0.00    +0.039 A 
ATOM     22  C   UNL     1       9.465   7.471   2.113  0.00  0.00    +0.056 C 
ATOM     23  C   UNL     1      10.174   6.234   1.668  0.00  0.00    -0.024 A 
ATOM     25  C   UNL     1      10.904   4.080   2.488  0.00  0.00    +0.024 A 
ATOM     26  C   UNL     1      10.689   5.976   0.407  0.00  0.00    +0.005 A 
ATOM     27  C   UNL     1      11.426   3.811   1.219  0.00  0.00    +0.002 A 
ATOM     30  C   UNL     1      11.320   4.752   0.185  0.00  0.00    +0.000 A 
ENDBRANCH  17  18
ENDBRANCH  15  17
ENDBRANCH  10  15
TORSDOF 5
ENDMDL
MODEL 3
REMARK VINA RESULT:      -7.1     27.325     31.910
REMARK  Name = 26762199
REMARK  7 active torsions:
REMARK  status: ('A' for Active; 'I' for Inactive)
REMARK    1  A    between atoms: N_6  and  C_11
REMARK    2  A    between atoms: N_8  and  C_24
REMARK    3  A    between atoms: C_10  and  C_15
REMARK    4  A    between atoms: C_15  and  C_17
REMARK    5  A    between atoms: C_17  and  C_18
REMARK    6  A    between atoms: C_24  and  C_28
REMARK    7  A    between atoms: C_24  and  C_29
REMARK                            x       y       z     vdW  Elec       q    Type
REMARK                         _______ _______ _______ _____ _____    ______ ____
ROOT
ATOM      1  O   UNL     1      -7.411 -11.540  20.090  0.00  0.00    -0.274 OA
ATOM      4  N   UNL     1      -8.386 -10.511  16.961  0.00  0.00    -0.285 NA
ATOM      5  N   UNL     1      -9.267 -10.296  19.502  0.00  0.00    -0.313 N 
ATOM      9  C   UNL     1      -8.245 -11.686  17.817  0.00  0.00    +0.145 C 
ATOM     10  C   UNL     1      -9.688  -9.849  17.082  0.00  0.00    +0.075 C 
ATOM     11  C   UNL     1      -6.794 -11.815  15.882  0.00  0.00    +0.090 C 
ATOM     12  C   UNL     1      -6.949 -12.318  17.323  0.00  0.00    +0.052 C 
ATOM     13  C   UNL     1      -8.026 -10.953  15.617  0.00  0.00    +0.107 C 
ATOM     14  C   UNL     1     -10.282 -10.027  18.497  0.00  0.00    +0.123 C 
ATOM     16  C   UNL     1      -8.227 -11.179  19.247  0.00  0.00    +0.230 C 
ATOM     31  H   UNL     1      -9.375  -9.914  20.436  0.00  0.00    +0.149 HD
ENDROOT
BRANCH  11   6
ATOM      3  O   UNL     1      -4.210 -12.589  14.783  0.00  0.00    -0.253 OA
ATOM      6  N   UNL     1      -5.566 -10.984  15.774  0.00  0.00    -0.295 N 
ATOM      8  N   UNL     1      -3.387 -10.471  15.250  0.00  0.00    -0.297 N 
ATOM     19  C   UNL     1      -4.373 -11.453  15.228  0.00  0.00    +0.300 C 
ATOM     32  H   UNL     1      -5.626 -10.003  16.030  0.00  0.00    +0.151 HD
ATOM     33  H   UNL     1      -3.640  -9.539  15.565  0.00  0.00    +0.150 HD
BRANCH   8  24
ATOM     24  C   UNL     1      -2.051 -10.690  14.745  0.00  0.00    +0.068 C 
ATOM     28  C   UNL     1      -1.035  -9.924  15.582  0.00  0.00    +0.027 C 
ATOM     29  C   UNL     1      -1.965 -10.297  13.275  0.00  0.00    +0.027 C 
ENDBRANCH   8  24
ENDBRANCH  11   6
BRANCH  10  15
ATOM     15  C   UNL     1      -9.512  -8.362  16.764  0.00  0.00    +0.029 C 
BRANCH  15  17
ATOM     17  C   UNL     1     -10.762  -7.552  17.071  0.00  0.00    +0.098 C 
BRANCH  17  18
ATOM      2  O   UNL     1     -10.179  -5.890  15.485  0.00  0.00    -0.275 OA
ATOM      7  N   UNL     1     -12.403  -6.595  15.535  0.00  0.00    -0.271 N 
ATOM     18  C   UNL     1     -11.077  -6.592  15.948  0.00  0.00    +0.220 C 
ATOM     20  C   UNL     1     -13.481  -7.438  16.094  0.00  0.00    +0.118 C 
ATOM     21  C   UNL     1     -12.951  -5.795  14.510  0.00  0.00    +0.039 A 
ATOM     22  C   UNL     1     -14.770  -7.115  15.331  0.00  0.00    +0.056 C 
ATOM     23  C   UNL     1     -14.313  -6.069  14.368  0.00  0.00    -0.024 A 
ATOM     25  C   UNL     1     -12.332  -4.851  13.704  0.00  0.00    +0.024 A 
ATOM     26  C   UNL     1     -15.086  -5.411  13.423  0.00  0.00    +0.005 A 
ATOM     27  C   UNL     1     -13.104  -4.182  12.749  0.00  0.00    +0.002 A 
ATOM     30  C   UNL     1     -14.471  -4.460  12.608  0.00  0.00    +0.000 A 
ENDBRANCH  17  18
ENDBRANCH  15  17
ENDBRANCH  10  15
TORSDOF 5
ENDMDL
MODEL 4
REMARK VINA RESULT:      -7.1     28.911     31.257
REMARK  Name = 26762199
REMARK  7 active torsions:
REMARK  status: ('A' for Active; 'I' for Inactive)
REMARK    1  A    between atoms: N_6  and  C_11
REMARK    2  A    between atoms: N_8  and  C_24
REMARK    3  A    between atoms: C_10  and  C_15
REMARK    4  A    between atoms: C_15  and  C_17
REMARK    5  A    between atoms: C_17  and  C_18
REMARK    6  A    between atoms: C_24  and  C_28
REMARK    7  A    between atoms: C_24  and  C_29
REMARK                            x       y       z     vdW  Elec       q    Type
REMARK                         _______ _______ _______ _____ _____    ______ ____
ROOT
ATOM      1  O   UNL     1     -14.536  -9.288  14.909  0.00  0.00    -0.274 OA
ATOM      4  N   UNL     1     -11.848  -7.229  15.494  0.00  0.00    -0.285 NA
ATOM      5  N   UNL     1     -12.680  -9.690  16.225  0.00  0.00    -0.313 N 
ATOM      9  C   UNL     1     -13.275  -7.399  15.761  0.00  0.00    +0.145 C 
ATOM     10  C   UNL     1     -10.984  -7.876  16.486  0.00  0.00    +0.075 C 
ATOM     11  C   UNL     1     -12.844  -5.402  14.460  0.00  0.00    +0.090 C 
ATOM     12  C   UNL     1     -13.926  -6.444  14.768  0.00  0.00    +0.052 C 
ATOM     13  C   UNL     1     -11.645  -5.795  15.320  0.00  0.00    +0.107 C 
ATOM     14  C   UNL     1     -11.659  -9.127  17.093  0.00  0.00    +0.123 C 
ATOM     16  C   UNL     1     -13.580  -8.871  15.557  0.00  0.00    +0.230 C 
ATOM     31  H   UNL     1     -12.803 -10.697  16.187  0.00  0.00    +0.149 HD
ENDROOT
BRANCH  11   6
ATOM      3  O   UNL     1     -12.317  -3.189  12.642  0.00  0.00    -0.253 OA
ATOM      6  N   UNL     1     -12.476  -5.475  13.022  0.00  0.00    -0.295 N 
ATOM      8  N   UNL     1     -11.918  -4.702  10.929  0.00  0.00    -0.297 N 
ATOM     19  C   UNL     1     -12.244  -4.348  12.235  0.00  0.00    +0.300 C 
ATOM     32  H   UNL     1     -12.302  -6.390  12.617  0.00  0.00    +0.151 HD
ATOM     33  H   UNL     1     -11.806  -5.688  10.709  0.00  0.00    +0.150 HD
BRANCH   8  24
ATOM     24  C   UNL     1     -11.630  -3.728   9.903  0.00  0.00    +0.068 C 
ATOM     28  C   UNL     1     -12.872  -3.456   9.065  0.00  0.00    +0.027 C 
ATOM     29  C   UNL     1     -10.469  -4.197   9.033  0.00  0.00    +0.027 C 
ENDBRANCH   8  24
ENDBRANCH  11   6
BRANCH  10  15
ATOM     15  C   UNL     1      -9.666  -8.261  15.809  0.00  0.00    +0.029 C 
BRANCH  15  17
ATOM     17  C   UNL     1      -9.423  -9.762  15.825  0.00  0.00    +0.098 C 
BRANCH  17  18
ATOM      2  O   UNL     1      -7.203  -9.891  15.005  0.00  0.00    -0.275 OA
ATOM      7  N   UNL     1      -7.574 -10.556  17.210  0.00  0.00    -0.271 N 
ATOM     18  C   UNL     1      -7.952 -10.074  15.964  0.00  0.00    +0.220 C 
ATOM     20  C   UNL     1      -8.475 -10.776  18.362  0.00  0.00    +0.118 C 
ATOM     21  C   UNL     1      -6.266 -10.920  17.595  0.00  0.00    +0.039 A 
ATOM     22  C   UNL     1      -7.627 -11.306  19.524  0.00  0.00    +0.056 C 
ATOM     23  C   UNL     1      -6.262 -11.358  18.920  0.00  0.00    -0.024 A 
ATOM     25  C   UNL     1      -5.092 -10.891  16.857  0.00  0.00    +0.024 A 
ATOM     26  C   UNL     1      -5.093 -11.774  19.539  0.00  0.00    +0.005 A 
ATOM     27  C   UNL     1      -3.908 -11.309  17.472  0.00  0.00    +0.002 A 
ATOM     30  C   UNL     1      -3.907 -11.747  18.804  0.00  0.00    +0.000 A 
ENDBRANCH  17  18
ENDBRANCH  15  17
ENDBRANCH  10  15
TORSDOF 5
ENDMDL
MODEL 5
REMARK VINA RESULT:      -7.1     28.015     29.947
REMARK  Name = 26762199
REMARK  7 active torsions:
REMARK  status: ('A' for Active; 'I' for Inactive)
REMARK    1  A    between atoms: N_6  and  C_11
REMARK    2  A    between atoms: N_8  and  C_24
REMARK    3  A    between atoms: C_10  and  C_15
REMARK    4  A    between atoms: C_15  and  C_17
REMARK    5  A    between atoms: C_17  and  C_18
REMARK    6  A    between atoms: C_24  and  C_28
REMARK    7  A    between atoms: C_24  and  C_29
REMARK                            x       y       z     vdW  Elec       q    Type
REMARK                         _______ _______ _______ _____ _____    ______ ____
ROOT
ATOM      1  O   UNL     1      -8.145 -14.051  16.354  0.00  0.00    -0.274 OA
ATOM      4  N   UNL     1      -6.430 -11.599  18.042  0.00  0.00    -0.285 NA
ATOM      5  N   UNL     1      -5.865 -13.855  16.674  0.00  0.00    -0.313 N 
ATOM      9  C   UNL     1      -7.335 -12.732  18.221  0.00  0.00    +0.145 C 
ATOM     10  C   UNL     1      -5.012 -11.970  18.071  0.00  0.00    +0.075 C 
ATOM     11  C   UNL     1      -8.364 -10.652  18.915  0.00  0.00    +0.090 C 
ATOM     12  C   UNL     1      -8.691 -12.062  18.409  0.00  0.00    +0.052 C 
ATOM     13  C   UNL     1      -6.841 -10.602  19.025  0.00  0.00    +0.107 C 
ATOM     14  C   UNL     1      -4.793 -13.407  17.549  0.00  0.00    +0.123 C 
ATOM     16  C   UNL     1      -7.193 -13.598  16.984  0.00  0.00    +0.230 C 
ATOM     31  H   UNL     1      -5.647 -14.451  15.882  0.00  0.00    +0.149 HD
ENDROOT
BRANCH  11   6
ATOM      3  O   UNL     1     -11.015  -9.468  18.689  0.00  0.00    -0.253 OA
ATOM      6  N   UNL     1      -8.829  -9.646  17.925  0.00  0.00    -0.295 N 
ATOM      8  N   UNL     1     -10.292  -8.216  16.874  0.00  0.00    -0.297 N 
ATOM     19  C   UNL     1     -10.128  -9.140  17.902  0.00  0.00    +0.300 C 
ATOM     32  H   UNL     1      -8.145  -9.245  17.290  0.00  0.00    +0.151 HD
ATOM     33  H   UNL     1      -9.479  -7.953  16.326  0.00  0.00    +0.150 HD
BRANCH   8  24
ATOM     24  C   UNL     1     -11.543  -7.538  16.624  0.00  0.00    +0.068 C 
ATOM     28  C   UNL     1     -12.321  -8.250  15.524  0.00  0.00    +0.027 C 
ATOM     29  C   UNL     1     -11.297  -6.077  16.269  0.00  0.00    +0.027 C 
ENDBRANCH   8  24
ENDBRANCH  11   6
BRANCH  10  15
ATOM     15  C   UNL     1      -4.228 -10.970  17.217  0.00  0.00    +0.029 C 
BRANCH  15  17
ATOM     17  C   UNL     1      -3.761 -11.573  15.901  0.00  0.00    +0.098 C 
BRANCH  17  18
ATOM      2  O   UNL     1      -5.701 -10.738  14.827  0.00  0.00    -0.275 OA
ATOM      7  N   UNL     1      -3.705 -10.702  13.620  0.00  0.00    -0.271 N 
ATOM     18  C   UNL     1      -4.495 -10.961  14.732  0.00  0.00    +0.220 C 
ATOM     20  C   UNL     1      -2.255 -10.972  13.507  0.00  0.00    +0.118 C 
ATOM     21  C   UNL     1      -4.146 -10.137  12.405  0.00  0.00    +0.039 A 
ATOM     22  C   UNL     1      -1.803 -10.522  12.113  0.00  0.00    +0.056 C 
ATOM     23  C   UNL     1      -3.077 -10.021  11.515  0.00  0.00    -0.024 A 
ATOM     25  C   UNL     1      -5.419  -9.723  12.038  0.00  0.00    +0.024 A 
ATOM     26  C   UNL     1      -3.249  -9.491  10.245  0.00  0.00    +0.005 A 
ATOM     27  C   UNL     1      -5.602  -9.189  10.759  0.00  0.00    +0.002 A 
ATOM     30  C   UNL     1      -4.525  -9.073   9.868  0.00  0.00    +0.000 A 
ENDBRANCH  17  18
ENDBRANCH  15  17
ENDBRANCH  10  15
TORSDOF 5
ENDMDL
MODEL 6
REMARK VINA RESULT:      -7.1     15.467     20.362
REMARK  Name = 26762199
REMARK  7 active torsions:
REMARK  status: ('A' for Active; 'I' for Inactive)
REMARK    1  A    between atoms: N_6  and  C_11
REMARK    2  A    between atoms: N_8  and  C_24
REMARK    3  A    between atoms: C_10  and  C_15
REMARK    4  A    between atoms: C_15  and  C_17
REMARK    5  A    between atoms: C_17  and  C_18
REMARK    6  A    between atoms: C_24  and  C_28
REMARK    7  A    between atoms: C_24  and  C_29
REMARK                            x       y       z     vdW  Elec       q    Type
REMARK                         _______ _______ _______ _____ _____    ______ ____
ROOT
ATOM      1  O   UNL     1      10.823   5.474   8.384  0.00  0.00    -0.274 OA
ATOM      4  N   UNL     1       9.787   7.023   5.498  0.00  0.00    -0.285 NA
ATOM      5  N   UNL     1       9.956   7.600   8.128  0.00  0.00    -0.313 N 
ATOM      9  C   UNL     1       9.458   5.953   6.438  0.00  0.00    +0.145 C 
ATOM     10  C   UNL     1       9.207   8.320   5.858  0.00  0.00    +0.075 C 
ATOM     11  C   UNL     1       9.947   5.081   4.232  0.00  0.00    +0.090 C 
ATOM     12  C   UNL     1       9.944   4.701   5.718  0.00  0.00    +0.052 C 
ATOM     13  C   UNL     1       9.427   6.516   4.177  0.00  0.00    +0.107 C 
ATOM     14  C   UNL     1       9.050   8.463   7.389  0.00  0.00    +0.123 C 
ATOM     16  C   UNL     1      10.168   6.286   7.736  0.00  0.00    +0.230 C 
ATOM     31  H   UNL     1      10.358   7.928   9.001  0.00  0.00    +0.149 HD
ENDROOT
BRANCH  11   6
ATOM      3  O   UNL     1      10.880   3.805   1.786  0.00  0.00    -0.253 OA
ATOM      6  N   UNL     1      11.336   5.029   3.706  0.00  0.00    -0.295 N 
ATOM      8  N   UNL     1      13.044   4.492   2.263  0.00  0.00    -0.297 N 
ATOM     19  C   UNL     1      11.679   4.388   2.518  0.00  0.00    +0.300 C 
ATOM     32  H   UNL     1      12.053   5.559   4.192  0.00  0.00    +0.151 HD
ATOM     33  H   UNL     1      13.610   5.060   2.886  0.00  0.00    +0.150 HD
BRANCH   8  24
ATOM     24  C   UNL     1      13.668   3.915   1.095  0.00  0.00    +0.068 C 
ATOM     28  C   UNL     1      15.106   3.518   1.405  0.00  0.00    +0.027 C 
ATOM     29  C   UNL     1      13.604   4.886  -0.079  0.00  0.00    +0.027 C 
ENDBRANCH   8  24
ENDBRANCH  11   6
BRANCH  10  15
ATOM     15  C   UNL     1      10.112   9.428   5.312  0.00  0.00    +0.029 C 
BRANCH  15  17
ATOM     17  C   UNL     1       9.320  10.591   4.735  0.00  0.00    +0.098 C 
BRANCH  17  18
ATOM      2  O   UNL     1       9.361   9.812   2.497  0.00  0.00    -0.275 OA
ATOM      7  N   UNL     1       7.282  10.344   3.411  0.00  0.00    -0.271 N 
ATOM     18  C   UNL     1       8.663  10.207   3.430  0.00  0.00    +0.220 C 
ATOM     20  C   UNL     1       6.445  10.820   4.534  0.00  0.00    +0.118 C 
ATOM     21  C   UNL     1       6.437  10.054   2.320  0.00  0.00    +0.039 A 
ATOM     22  C   UNL     1       4.985  10.802   4.068  0.00  0.00    +0.056 C 
ATOM     23  C   UNL     1       5.108  10.308   2.664  0.00  0.00    -0.024 A 
ATOM     25  C   UNL     1       6.762   9.586   1.055  0.00  0.00    +0.024 A 
ATOM     26  C   UNL     1       4.077  10.102   1.760  0.00  0.00    +0.005 A 
ATOM     27  C   UNL     1       5.729   9.375   0.137  0.00  0.00    +0.002 A 
ATOM     30  C   UNL     1       4.395   9.631   0.486  0.00  0.00    +0.000 A 
ENDBRANCH  17  18
ENDBRANCH  15  17
ENDBRANCH  10  15
TORSDOF 5
ENDMDL
MODEL 7
REMARK VINA RESULT:      -7.0      1.560      2.278
REMARK  Name = 26762199
REMARK  7 active torsions:
REMARK  status: ('A' for Active; 'I' for Inactive)
REMARK    1  A    between atoms: N_6  and  C_11
REMARK    2  A    between atoms: N_8  and  C_24
REMARK    3  A    between atoms: C_10  and  C_15
REMARK    4  A    between atoms: C_15  and  C_17
REMARK    5  A    between atoms: C_17  and  C_18
REMARK    6  A    between atoms: C_24  and  C_28
REMARK    7  A    between atoms: C_24  and  C_29
REMARK                            x       y       z     vdW  Elec       q    Type
REMARK                         _______ _______ _______ _____ _____    ______ ____
ROOT
ATOM      1  O   UNL     1      13.078  10.402  18.504  0.00  0.00    -0.274 OA
ATOM      4  N   UNL     1      13.333   7.594  20.468  0.00  0.00    -0.285 NA
ATOM      5  N   UNL     1      14.640   8.703  18.385  0.00  0.00    -0.313 N 
ATOM      9  C   UNL     1      12.521   8.232  19.435  0.00  0.00    +0.145 C 
ATOM     10  C   UNL     1      14.413   6.759  19.935  0.00  0.00    +0.075 C 
ATOM     11  C   UNL     1      11.281   7.956  21.497  0.00  0.00    +0.090 C 
ATOM     12  C   UNL     1      11.351   8.808  20.224  0.00  0.00    +0.052 C 
ATOM     13  C   UNL     1      12.390   6.916  21.353  0.00  0.00    +0.107 C 
ATOM     14  C   UNL     1      14.916   7.289  18.573  0.00  0.00    +0.123 C 
ATOM     16  C   UNL     1      13.415   9.246  18.747  0.00  0.00    +0.230 C 
ATOM     31  H   UNL     1      15.311   9.281  17.888  0.00  0.00    +0.149 HD
ENDROOT
BRANCH  11   6
ATOM      3  O   UNL     1      11.266  10.865  21.636  0.00  0.00    -0.253 OA
ATOM      6  N   UNL     1      11.546   8.811  22.684  0.00  0.00    -0.295 N 
ATOM      8  N   UNL     1      11.798  10.752  23.892  0.00  0.00    -0.297 N 
ATOM     19  C   UNL     1      11.514  10.204  22.644  0.00  0.00    +0.300 C 
ATOM     32  H   UNL     1      11.670   8.358  23.584  0.00  0.00    +0.151 HD
ATOM     33  H   UNL     1      11.911  10.123  24.681  0.00  0.00    +0.150 HD
BRANCH   8  24
ATOM     24  C   UNL     1      11.832  12.176  24.132  0.00  0.00    +0.068 C 
ATOM     28  C   UNL     1      12.994  12.531  25.050  0.00  0.00    +0.027 C 
ATOM     29  C   UNL     1      10.505  12.651  24.713  0.00  0.00    +0.027 C 
ENDBRANCH   8  24
ENDBRANCH  11   6
BRANCH  10  15
ATOM     15  C   UNL     1      15.559   6.735  20.949  0.00  0.00    +0.029 C 
BRANCH  15  17
ATOM     17  C   UNL     1      16.855   6.215  20.348  0.00  0.00    +0.098 C 
BRANCH  17  18
ATOM      2  O   UNL     1      17.793   8.300  20.971  0.00  0.00    -0.275 OA
ATOM      7  N   UNL     1      19.263   6.522  20.621  0.00  0.00    -0.271 N 
ATOM     18  C   UNL     1      18.014   7.125  20.680  0.00  0.00    +0.220 C 
ATOM     20  C   UNL     1      19.526   5.110  20.271  0.00  0.00    +0.118 C 
ATOM     21  C   UNL     1      20.498   7.151  20.885  0.00  0.00    +0.039 A 
ATOM     22  C   UNL     1      21.041   4.886  20.341  0.00  0.00    +0.056 C 
ATOM     23  C   UNL     1      21.542   6.237  20.731  0.00  0.00    -0.024 A 
ATOM     25  C   UNL     1      20.756   8.465  21.247  0.00  0.00    +0.024 A 
ATOM     26  C   UNL     1      22.862   6.610  20.935  0.00  0.00    +0.005 A 
ATOM     27  C   UNL     1      22.085   8.850  21.455  0.00  0.00    +0.002 A 
ATOM     30  C   UNL     1      23.131   7.929  21.300  0.00  0.00    +0.000 A 
ENDBRANCH  17  18
ENDBRANCH  15  17
ENDBRANCH  10  15
TORSDOF 5
ENDMDL
MODEL 8
REMARK VINA RESULT:      -6.9     26.382     30.128
REMARK  Name = 26762199
REMARK  7 active torsions:
REMARK  status: ('A' for Active; 'I' for Inactive)
REMARK    1  A    between atoms: N_6  and  C_11
REMARK    2  A    between atoms: N_8  and  C_24
REMARK    3  A    between atoms: C_10  and  C_15
REMARK    4  A    between atoms: C_15  and  C_17
REMARK    5  A    between atoms: C_17  and  C_18
REMARK    6  A    between atoms: C_24  and  C_28
REMARK    7  A    between atoms: C_24  and  C_29
REMARK                            x       y       z     vdW  Elec       q    Type
REMARK                         _______ _______ _______ _____ _____    ______ ____
ROOT
ATOM      1  O   UNL     1      -9.457  -7.732  16.262  0.00  0.00    -0.274 OA
ATOM      4  N   UNL     1      -8.359 -10.985  16.118  0.00  0.00    -0.285 NA
ATOM      5  N   UNL     1     -10.456  -9.540  15.226  0.00  0.00    -0.313 N 
ATOM      9  C   UNL     1      -8.900  -9.969  17.018  0.00  0.00    +0.145 C 
ATOM     10  C   UNL     1      -9.389 -11.786  15.450  0.00  0.00    +0.075 C 
ATOM     11  C   UNL     1      -6.660 -10.627  17.662  0.00  0.00    +0.090 C 
ATOM     12  C   UNL     1      -7.663  -9.472  17.758  0.00  0.00    +0.052 C 
ATOM     13  C   UNL     1      -7.387 -11.737  16.906  0.00  0.00    +0.107 C 
ATOM     14  C   UNL     1     -10.687 -10.975  15.239  0.00  0.00    +0.123 C 
ATOM     16  C   UNL     1      -9.601  -8.946  16.144  0.00  0.00    +0.230 C 
ATOM     31  H   UNL     1     -11.004  -8.952  14.606  0.00  0.00    +0.149 HD
ENDROOT
BRANCH  11   6
ATOM      3  O   UNL     1      -4.105 -12.000  17.400  0.00  0.00    -0.253 OA
ATOM      6  N   UNL     1      -5.468 -10.190  16.890  0.00  0.00    -0.295 N 
ATOM      8  N   UNL     1      -3.334 -10.287  16.039  0.00  0.00    -0.297 N 
ATOM     19  C   UNL     1      -4.286 -10.925  16.829  0.00  0.00    +0.300 C 
ATOM     32  H   UNL     1      -5.550  -9.360  16.310  0.00  0.00    +0.151 HD
ATOM     33  H   UNL     1      -3.604  -9.441  15.545  0.00  0.00    +0.150 HD
BRANCH   8  24
ATOM     24  C   UNL     1      -2.016 -10.831  15.807  0.00  0.00    +0.068 C 
ATOM     28  C   UNL     1      -1.057  -9.731  15.370  0.00  0.00    +0.027 C 
ATOM     29  C   UNL     1      -2.076 -11.953  14.776  0.00  0.00    +0.027 C 
ENDBRANCH   8  24
ENDBRANCH  11   6
BRANCH  10  15
ATOM     15  C   UNL     1      -8.839 -12.264  14.103  0.00  0.00    +0.029 C 
BRANCH  15  17
ATOM     17  C   UNL     1      -8.434 -11.111  13.199  0.00  0.00    +0.098 C 
BRANCH  17  18
ATOM      2  O   UNL     1      -6.216 -11.785  13.690  0.00  0.00    -0.275 OA
ATOM      7  N   UNL     1      -6.516 -10.265  11.945  0.00  0.00    -0.271 N 
ATOM     18  C   UNL     1      -6.941 -11.093  12.975  0.00  0.00    +0.220 C 
ATOM     20  C   UNL     1      -7.389  -9.434  11.088  0.00  0.00    +0.118 C 
ATOM     21  C   UNL     1      -5.179 -10.071  11.537  0.00  0.00    +0.039 A 
ATOM     22  C   UNL     1      -6.494  -8.696  10.087  0.00  0.00    +0.056 C 
ATOM     23  C   UNL     1      -5.131  -9.172  10.470  0.00  0.00    -0.024 A 
ATOM     25  C   UNL     1      -4.015 -10.631  12.042  0.00  0.00    +0.024 A 
ATOM     26  C   UNL     1      -3.927  -8.813   9.884  0.00  0.00    +0.005 A 
ATOM     27  C   UNL     1      -2.796 -10.275  11.457  0.00  0.00    +0.002 A 
ATOM     30  C   UNL     1      -2.752  -9.372  10.385  0.00  0.00    +0.000 A 
ENDBRANCH  17  18
ENDBRANCH  15  17
ENDBRANCH  10  15
TORSDOF 5
ENDMDL
MODEL 9
REMARK VINA RESULT:      -6.9     15.147     19.209
REMARK  Name = 26762199
REMARK  7 active torsions:
REMARK  status: ('A' for Active; 'I' for Inactive)
REMARK    1  A    between atoms: N_6  and  C_11
REMARK    2  A    between atoms: N_8  and  C_24
REMARK    3  A    between atoms: C_10  and  C_15
REMARK    4  A    between atoms: C_15  and  C_17
REMARK    5  A    between atoms: C_17  and  C_18
REMARK    6  A    between atoms: C_24  and  C_28
REMARK    7  A    between atoms: C_24  and  C_29
REMARK                            x       y       z     vdW  Elec       q    Type
REMARK                         _______ _______ _______ _____ _____    ______ ____
ROOT
ATOM      1  O   UNL     1      13.968   2.831   1.226  0.00  0.00    -0.274 OA
ATOM      4  N   UNL     1      13.221   6.181   1.388  0.00  0.00    -0.285 NA
ATOM      5  N   UNL     1      11.894   3.832   1.422  0.00  0.00    -0.313 N 
ATOM      9  C   UNL     1      13.704   5.129   0.495  0.00  0.00    +0.145 C 
ATOM     10  C   UNL     1      11.763   6.325   1.390  0.00  0.00    +0.075 C 
ATOM     11  C   UNL     1      15.388   6.832   0.857  0.00  0.00    +0.090 C 
ATOM     12  C   UNL     1      15.211   5.356   0.480  0.00  0.00    +0.052 C 
ATOM     13  C   UNL     1      13.973   7.380   1.031  0.00  0.00    +0.107 C 
ATOM     14  C   UNL     1      11.062   4.979   1.099  0.00  0.00    +0.123 C 
ATOM     16  C   UNL     1      13.242   3.812   1.090  0.00  0.00    +0.230 C 
ATOM     31  H   UNL     1      11.465   2.994   1.800  0.00  0.00    +0.149 HD
ENDROOT
BRANCH  11   6
ATOM      3  O   UNL     1      17.256   8.911   1.677  0.00  0.00    -0.253 OA
ATOM      6  N   UNL     1      16.128   6.934   2.141  0.00  0.00    -0.295 N 
ATOM      8  N   UNL     1      17.561   7.825   3.704  0.00  0.00    -0.297 N 
ATOM     19  C   UNL     1      17.005   7.977   2.437  0.00  0.00    +0.300 C 
ATOM     32  H   UNL     1      15.919   6.259   2.871  0.00  0.00    +0.151 HD
ATOM     33  H   UNL     1      17.232   7.062   4.288  0.00  0.00    +0.150 HD
BRANCH   8  24
ATOM     24  C   UNL     1      18.505   8.765   4.262  0.00  0.00    +0.068 C 
ATOM     28  C   UNL     1      19.673   8.027   4.902  0.00  0.00    +0.027 C 
ATOM     29  C   UNL     1      17.815   9.683   5.265  0.00  0.00    +0.027 C 
ENDBRANCH   8  24
ENDBRANCH  11   6
BRANCH  10  15
ATOM     15  C   UNL     1      11.327   6.865   2.755  0.00  0.00    +0.029 C 
BRANCH  15  17
ATOM     17  C   UNL     1       9.938   6.388   3.151  0.00  0.00    +0.098 C 
BRANCH  17  18
ATOM      2  O   UNL     1      10.366   4.380   4.334  0.00  0.00    -0.275 OA
ATOM      7  N   UNL     1       9.585   6.205   5.561  0.00  0.00    -0.271 N 
ATOM     18  C   UNL     1       9.987   5.549   4.405  0.00  0.00    +0.220 C 
ATOM     20  C   UNL     1       9.130   7.609   5.644  0.00  0.00    +0.118 C 
ATOM     21  C   UNL     1       9.538   5.646   6.855  0.00  0.00    +0.039 A 
ATOM     22  C   UNL     1       8.795   7.906   7.110  0.00  0.00    +0.056 C 
ATOM     23  C   UNL     1       9.087   6.599   7.771  0.00  0.00    -0.024 A 
ATOM     25  C   UNL     1       9.865   4.365   7.273  0.00  0.00    +0.024 A 
ATOM     26  C   UNL     1       8.952   6.298   9.117  0.00  0.00    +0.005 A 
ATOM     27  C   UNL     1       9.732   4.052   8.629  0.00  0.00    +0.002 A 
ATOM     30  C   UNL     1       9.278   5.011   9.546  0.00  0.00    +0.000 A 
ENDBRANCH  17  18
ENDBRANCH  15  17
ENDBRANCH  10  15
TORSDOF 5
ENDMDL
MODEL 10
REMARK VINA RESULT:      -6.4     15.409     18.684
REMARK  Name = 26762199
REMARK  7 active torsions:
REMARK  status: ('A' for Active; 'I' for Inactive)
REMARK    1  A    between atoms: N_6  and  C_11
REMARK    2  A    between atoms: N_8  and  C_24
REMARK    3  A    between atoms: C_10  and  C_15
REMARK    4  A    between atoms: C_15  and  C_17
REMARK    5  A    between atoms: C_17  and  C_18
REMARK    6  A    between atoms: C_24  and  C_28
REMARK    7  A    between atoms: C_24  and  C_29
REMARK                            x       y       z     vdW  Elec       q    Type
REMARK                         _______ _______ _______ _____ _____    ______ ____
ROOT
ATOM      1  O   UNL     1       8.371   9.486   5.638  0.00  0.00    -0.274 OA
ATOM      4  N   UNL     1      10.496   6.797   5.885  0.00  0.00    -0.285 NA
ATOM      5  N   UNL     1       7.924   7.259   5.211  0.00  0.00    -0.313 N 
ATOM      9  C   UNL     1       9.769   7.794   6.670  0.00  0.00    +0.145 C 
ATOM     10  C   UNL     1       9.724   5.579   5.624  0.00  0.00    +0.075 C 
ATOM     11  C   UNL     1      12.166   8.034   6.924  0.00  0.00    +0.090 C 
ATOM     12  C   UNL     1      10.848   8.814   7.013  0.00  0.00    +0.052 C 
ATOM     13  C   UNL     1      11.769   6.603   6.572  0.00  0.00    +0.107 C 
ATOM     14  C   UNL     1       8.209   5.875   5.550  0.00  0.00    +0.123 C 
ATOM     16  C   UNL     1       8.641   8.298   5.789  0.00  0.00    +0.230 C 
ATOM     31  H   UNL     1       7.124   7.476   4.625  0.00  0.00    +0.149 HD
ENDROOT
BRANCH  11   6
ATOM      3  O   UNL     1      15.028   7.677   6.523  0.00  0.00    -0.253 OA
ATOM      6  N   UNL     1      13.010   8.603   5.842  0.00  0.00    -0.295 N 
ATOM      8  N   UNL     1      14.923   9.022   4.635  0.00  0.00    -0.297 N 
ATOM     19  C   UNL     1      14.380   8.370   5.739  0.00  0.00    +0.300 C 
ATOM     32  H   UNL     1      12.551   9.115   5.094  0.00  0.00    +0.151 HD
ATOM     33  H   UNL     1      14.293   9.506   4.002  0.00  0.00    +0.150 HD
BRANCH   8  24
ATOM     24  C   UNL     1      16.324   8.949   4.294  0.00  0.00    +0.068 C 
ATOM     28  C   UNL     1      16.895  10.348   4.096  0.00  0.00    +0.027 C 
ATOM     29  C   UNL     1      16.527   8.090   3.051  0.00  0.00    +0.027 C 
ENDBRANCH   8  24
ENDBRANCH  11   6
BRANCH  10  15
ATOM     15  C   UNL     1      10.209   4.966   4.307  0.00  0.00    +0.029 C 
BRANCH  15  17
ATOM     17  C   UNL     1      10.453   6.015   3.234  0.00  0.00    +0.098 C 
BRANCH  17  18
ATOM      2  O   UNL     1      12.773   6.488   3.328  0.00  0.00    -0.275 OA
ATOM      7  N   UNL     1      12.007   5.220   1.525  0.00  0.00    -0.271 N 
ATOM     18  C   UNL     1      11.866   5.936   2.706  0.00  0.00    +0.220 C 
ATOM     20  C   UNL     1      10.915   4.557   0.780  0.00  0.00    +0.118 C 
ATOM     21  C   UNL     1      13.215   5.000   0.831  0.00  0.00    +0.039 A 
ATOM     22  C   UNL     1      11.532   3.884  -0.451  0.00  0.00    +0.056 C 
ATOM     23  C   UNL     1      12.977   4.235  -0.313  0.00  0.00    -0.024 A 
ATOM     25  C   UNL     1      14.498   5.427   1.140  0.00  0.00    +0.024 A 
ATOM     26  C   UNL     1      14.007   3.880  -1.170  0.00  0.00    +0.005 A 
ATOM     27  C   UNL     1      15.543   5.073   0.281  0.00  0.00    +0.002 A 
ATOM     30  C   UNL     1      15.300   4.305  -0.867  0.00  0.00    +0.000 A 
ENDBRANCH  17  18
ENDBRANCH  15  17
ENDBRANCH  10  15
TORSDOF 5
ENDMDL
