MODEL 1
REMARK VINA RESULT:      -6.6      0.000      0.000
REMARK  Name = 11911999
REMARK  4 active torsions:
REMARK  status: ('A' for Active; 'I' for Inactive)
REMARK    1  A    between atoms: N_6  and  C_12
REMARK    2  A    between atoms: N_7  and  C_13
REMARK    3  A    between atoms: C_17  and  C_18
REMARK    4  A    between atoms: C_19  and  C_24
REMARK                            x       y       z     vdW  Elec       q    Type
REMARK                         _______ _______ _______ _____ _____    ______ ____
ROOT
ATOM      2  O   UNL     1     -18.292   5.028  24.526  0.00  0.00    -0.370 OA
ATOM      3  O   UNL     1     -15.884   3.052  24.356  0.00  0.00    -0.370 OA
ATOM     10  C   UNL     1     -16.151   4.210  25.164  0.00  0.00    +0.171 C 
ATOM     11  C   UNL     1     -16.885   5.209  24.291  0.00  0.00    +0.171 C 
ATOM     12  C   UNL     1     -17.141   3.872  26.253  0.00  0.00    +0.130 C 
ATOM     13  C   UNL     1     -16.532   4.794  22.881  0.00  0.00    +0.130 C 
ATOM     14  C   UNL     1     -18.477   4.043  25.553  0.00  0.00    +0.185 C 
ATOM     15  C   UNL     1     -16.347   3.294  23.020  0.00  0.00    +0.185 C 
ENDROOT
BRANCH  12   6
ATOM      6  N   UNL     1     -17.023   4.819  27.341  0.00  0.00    -0.306 N 
ATOM      8  N   UNL     1     -16.026   3.233  28.756  0.00  0.00    -0.211 NA
ATOM      9  N   UNL     1     -16.422   5.490  29.507  0.00  0.00    -0.223 NA
ATOM     16  C   UNL     1     -16.474   4.505  28.572  0.00  0.00    +0.216 A 
ATOM     19  C   UNL     1     -15.497   2.963  29.968  0.00  0.00    +0.111 A 
ATOM     21  C   UNL     1     -15.881   5.150  30.696  0.00  0.00    +0.116 A 
ATOM     22  C   UNL     1     -15.397   3.890  30.985  0.00  0.00    +0.051 A 
ATOM     29  H   UNL     1     -17.305   5.781  27.197  0.00  0.00    +0.149 HD
BRANCH  19  24
ATOM      5  O   UNL     1     -13.687   1.451  30.079  0.00  0.00    -0.461 OA
ATOM     24  C   UNL     1     -15.033   1.612  30.134  0.00  0.00    +0.153 A 
ATOM     26  C   UNL     1     -15.659   0.407  30.341  0.00  0.00    +0.051 A 
ATOM     27  C   UNL     1     -14.630  -0.561  30.418  0.00  0.00    +0.042 A 
ATOM     28  C   UNL     1     -13.449   0.124  30.253  0.00  0.00    +0.196 A 
ENDBRANCH  19  24
ENDBRANCH  12   6
BRANCH  13   7
ATOM      4  O   UNL     1     -16.124   6.063  20.375  0.00  0.00    -0.270 OA
ATOM      7  N   UNL     1     -15.314   5.432  22.439  0.00  0.00    -0.303 N 
ATOM     17  C   UNL     1     -15.202   6.031  21.188  0.00  0.00    +0.251 C 
ATOM     30  H   UNL     1     -14.515   5.381  23.060  0.00  0.00    +0.149 HD
BRANCH  17  18
ATOM      1  S   UNL     1     -13.824   7.861  19.740  0.00  0.00    -0.092 S 
ATOM     18  C   UNL     1     -13.887   6.609  20.876  0.00  0.00    +0.074 A 
ATOM     20  C   UNL     1     -12.690   6.255  21.394  0.00  0.00    +0.021 A 
ATOM     23  C   UNL     1     -11.647   7.051  20.838  0.00  0.00    +0.008 A 
ATOM     25  C   UNL     1     -12.125   7.964  19.924  0.00  0.00    +0.046 A 
ENDBRANCH  17  18
ENDBRANCH  13   7
TORSDOF 4
ENDMDL
MODEL 2
REMARK VINA RESULT:      -6.6     15.590     16.953
REMARK  Name = 11911999
REMARK  4 active torsions:
REMARK  status: ('A' for Active; 'I' for Inactive)
REMARK    1  A    between atoms: N_6  and  C_12
REMARK    2  A    between atoms: N_7  and  C_13
REMARK    3  A    between atoms: C_17  and  C_18
REMARK    4  A    between atoms: C_19  and  C_24
REMARK                            x       y       z     vdW  Elec       q    Type
REMARK                         _______ _______ _______ _____ _____    ______ ____
ROOT
ATOM      2  O   UNL     1     -11.046  -6.007  16.502  0.00  0.00    -0.370 OA
ATOM      3  O   UNL     1     -12.512  -7.948  14.547  0.00  0.00    -0.370 OA
ATOM     10  C   UNL     1     -11.131  -7.593  14.730  0.00  0.00    +0.171 C 
ATOM     11  C   UNL     1     -11.087  -6.116  15.069  0.00  0.00    +0.171 C 
ATOM     12  C   UNL     1     -10.575  -8.271  15.959  0.00  0.00    +0.130 C 
ATOM     13  C   UNL     1     -12.396  -5.578  14.539  0.00  0.00    +0.130 C 
ATOM     14  C   UNL     1     -10.974  -7.322  17.073  0.00  0.00    +0.185 C 
ATOM     15  C   UNL     1     -13.322  -6.771  14.686  0.00  0.00    +0.185 C 
ENDROOT
BRANCH  12   6
ATOM      6  N   UNL     1      -9.133  -8.356  15.868  0.00  0.00    -0.306 N 
ATOM      8  N   UNL     1      -9.022 -10.061  17.477  0.00  0.00    -0.211 NA
ATOM      9  N   UNL     1      -7.023  -9.214  16.430  0.00  0.00    -0.223 NA
ATOM     16  C   UNL     1      -8.370  -9.237  16.614  0.00  0.00    +0.216 A 
ATOM     19  C   UNL     1      -8.247 -10.907  18.187  0.00  0.00    +0.111 A 
ATOM     21  C   UNL     1      -6.309 -10.086  17.173  0.00  0.00    +0.116 A 
ATOM     22  C   UNL     1      -6.872 -10.965  18.075  0.00  0.00    +0.051 A 
ATOM     29  H   UNL     1      -8.642  -7.784  15.191  0.00  0.00    +0.149 HD
BRANCH  19  24
ATOM      5  O   UNL     1     -10.157 -11.284  19.524  0.00  0.00    -0.461 OA
ATOM     24  C   UNL     1      -8.964 -11.765  19.091  0.00  0.00    +0.153 A 
ATOM     26  C   UNL     1      -8.711 -13.000  19.636  0.00  0.00    +0.051 A 
ATOM     27  C   UNL     1      -9.822 -13.300  20.460  0.00  0.00    +0.042 A 
ATOM     28  C   UNL     1     -10.674 -12.224  20.358  0.00  0.00    +0.196 A 
ENDBRANCH  19  24
ENDBRANCH  12   6
BRANCH  13   7
ATOM      4  O   UNL     1     -13.750  -3.411  13.303  0.00  0.00    -0.270 OA
ATOM      7  N   UNL     1     -12.275  -5.177  13.157  0.00  0.00    -0.303 N 
ATOM     17  C   UNL     1     -12.980  -4.098  12.633  0.00  0.00    +0.251 C 
ATOM     30  H   UNL     1     -11.691  -5.751  12.560  0.00  0.00    +0.149 HD
BRANCH  17  18
ATOM      1  S   UNL     1     -14.136  -3.539  10.246  0.00  0.00    -0.092 S 
ATOM     18  C   UNL     1     -12.772  -3.839  11.201  0.00  0.00    +0.074 A 
ATOM     20  C   UNL     1     -11.597  -3.811  10.533  0.00  0.00    +0.021 A 
ATOM     23  C   UNL     1     -11.811  -3.525   9.154  0.00  0.00    +0.008 A 
ATOM     25  C   UNL     1     -13.146  -3.355   8.861  0.00  0.00    +0.046 A 
ENDBRANCH  17  18
ENDBRANCH  13   7
TORSDOF 4
ENDMDL
MODEL 3
REMARK VINA RESULT:      -6.5     21.802     23.426
REMARK  Name = 11911999
REMARK  4 active torsions:
REMARK  status: ('A' for Active; 'I' for Inactive)
REMARK    1  A    between atoms: N_6  and  C_12
REMARK    2  A    between atoms: N_7  and  C_13
REMARK    3  A    between atoms: C_17  and  C_18
REMARK    4  A    between atoms: C_19  and  C_24
REMARK                            x       y       z     vdW  Elec       q    Type
REMARK                         _______ _______ _______ _____ _____    ______ ____
ROOT
ATOM      2  O   UNL     1      -5.586  -8.683  10.816  0.00  0.00    -0.370 OA
ATOM      3  O   UNL     1      -6.675 -11.604  10.683  0.00  0.00    -0.370 OA
ATOM     10  C   UNL     1      -5.356 -11.051  10.821  0.00  0.00    +0.171 C 
ATOM     11  C   UNL     1      -5.298  -9.803   9.963  0.00  0.00    +0.171 C 
ATOM     12  C   UNL     1      -5.145 -10.543  12.227  0.00  0.00    +0.130 C 
ATOM     13  C   UNL     1      -6.411  -9.996   8.958  0.00  0.00    +0.130 C 
ATOM     14  C   UNL     1      -5.733  -9.145  12.167  0.00  0.00    +0.185 C 
ATOM     15  C   UNL     1      -7.420 -10.815   9.743  0.00  0.00    +0.185 C 
ENDROOT
BRANCH  12   6
ATOM      6  N   UNL     1      -3.731 -10.478  12.524  0.00  0.00    -0.306 N 
ATOM      8  N   UNL     1      -4.095 -10.665  14.835  0.00  0.00    -0.211 NA
ATOM      9  N   UNL     1      -1.864 -10.468  13.945  0.00  0.00    -0.223 NA
ATOM     16  C   UNL     1      -3.214 -10.539  13.806  0.00  0.00    +0.216 A 
ATOM     19  C   UNL     1      -3.557 -10.722  16.071  0.00  0.00    +0.111 A 
ATOM     21  C   UNL     1      -1.394 -10.530  15.208  0.00  0.00    +0.116 A 
ATOM     22  C   UNL     1      -2.201 -10.659  16.320  0.00  0.00    +0.051 A 
ATOM     29  H   UNL     1      -3.063 -10.437  11.763  0.00  0.00    +0.149 HD
BRANCH  19  24
ATOM      5  O   UNL     1      -5.737 -10.326  16.889  0.00  0.00    -0.461 OA
ATOM     24  C   UNL     1      -4.512 -10.854  17.138  0.00  0.00    +0.153 A 
ATOM     26  C   UNL     1      -4.469 -11.410  18.393  0.00  0.00    +0.051 A 
ATOM     27  C   UNL     1      -5.752 -11.211  18.954  0.00  0.00    +0.042 A 
ATOM     28  C   UNL     1      -6.487 -10.547  18.000  0.00  0.00    +0.196 A 
ENDBRANCH  19  24
ENDBRANCH  12   6
BRANCH  13   7
ATOM      4  O   UNL     1      -6.664  -9.151   6.260  0.00  0.00    -0.270 OA
ATOM      7  N   UNL     1      -5.946 -10.714   7.795  0.00  0.00    -0.303 N 
ATOM     17  C   UNL     1      -6.113 -10.224   6.504  0.00  0.00    +0.251 C 
ATOM     30  H   UNL     1      -5.534 -11.628   7.951  0.00  0.00    +0.149 HD
BRANCH  17  18
ATOM      1  S   UNL     1      -6.607 -11.325   4.077  0.00  0.00    -0.092 S 
ATOM     18  C   UNL     1      -5.613 -11.090   5.426  0.00  0.00    +0.074 A 
ATOM     20  C   UNL     1      -4.430 -11.739   5.376  0.00  0.00    +0.021 A 
ATOM     23  C   UNL     1      -4.313 -12.478   4.163  0.00  0.00    +0.008 A 
ATOM     25  C   UNL     1      -5.427 -12.342   3.365  0.00  0.00    +0.046 A 
ENDBRANCH  17  18
ENDBRANCH  13   7
TORSDOF 4
ENDMDL
MODEL 4
REMARK VINA RESULT:      -6.3     31.078     35.694
REMARK  Name = 11911999
REMARK  4 active torsions:
REMARK  status: ('A' for Active; 'I' for Inactive)
REMARK    1  A    between atoms: N_6  and  C_12
REMARK    2  A    between atoms: N_7  and  C_13
REMARK    3  A    between atoms: C_17  and  C_18
REMARK    4  A    between atoms: C_19  and  C_24
REMARK                            x       y       z     vdW  Elec       q    Type
REMARK                         _______ _______ _______ _____ _____    ______ ____
ROOT
ATOM      2  O   UNL     1      10.454   4.635   5.095  0.00  0.00    -0.370 OA
ATOM      3  O   UNL     1       9.448   7.159   3.562  0.00  0.00    -0.370 OA
ATOM     10  C   UNL     1      10.756   6.629   3.833  0.00  0.00    +0.171 C 
ATOM     11  C   UNL     1      10.723   6.040   5.230  0.00  0.00    +0.171 C 
ATOM     12  C   UNL     1      11.036   5.445   2.939  0.00  0.00    +0.130 C 
ATOM     13  C   UNL     1       9.557   6.736   5.895  0.00  0.00    +0.130 C 
ATOM     14  C   UNL     1      10.404   4.295   3.702  0.00  0.00    +0.185 C 
ATOM     15  C   UNL     1       8.624   6.996   4.726  0.00  0.00    +0.185 C 
ENDROOT
BRANCH  12   6
ATOM      6  N   UNL     1      12.464   5.241   2.821  0.00  0.00    -0.306 N 
ATOM      8  N   UNL     1      12.268   4.350   0.658  0.00  0.00    -0.211 NA
ATOM      9  N   UNL     1      14.422   4.567   1.718  0.00  0.00    -0.223 NA
ATOM     16  C   UNL     1      13.070   4.703   1.699  0.00  0.00    +0.216 A 
ATOM     19  C   UNL     1      12.892   3.830  -0.419  0.00  0.00    +0.111 A 
ATOM     21  C   UNL     1      14.980   4.040   0.609  0.00  0.00    +0.116 A 
ATOM     22  C   UNL     1      14.258   3.651  -0.501  0.00  0.00    +0.051 A 
ATOM     29  H   UNL     1      13.075   5.548   3.569  0.00  0.00    +0.149 HD
BRANCH  19  24
ATOM      5  O   UNL     1      11.065   4.381  -1.811  0.00  0.00    -0.461 OA
ATOM     24  C   UNL     1      12.020   3.466  -1.503  0.00  0.00    +0.153 A 
ATOM     26  C   UNL     1      11.927   2.370  -2.325  0.00  0.00    +0.051 A 
ATOM     27  C   UNL     1      10.842   2.626  -3.197  0.00  0.00    +0.042 A 
ATOM     28  C   UNL     1      10.351   3.862  -2.843  0.00  0.00    +0.196 A 
ENDBRANCH  19  24
ENDBRANCH  12   6
BRANCH  13   7
ATOM      4  O   UNL     1       8.608   7.764   8.365  0.00  0.00    -0.270 OA
ATOM      7  N   UNL     1       9.971   7.971   6.517  0.00  0.00    -0.303 N 
ATOM     17  C   UNL     1       9.452   8.400   7.734  0.00  0.00    +0.251 C 
ATOM     30  H   UNL     1      10.626   8.550   6.002  0.00  0.00    +0.149 HD
BRANCH  17  18
ATOM      1  S   UNL     1      11.484  10.193   7.700  0.00  0.00    -0.092 S 
ATOM     18  C   UNL     1       9.952   9.695   8.218  0.00  0.00    +0.074 A 
ATOM     20  C   UNL     1       9.328  10.558   9.049  0.00  0.00    +0.021 A 
ATOM     23  C   UNL     1      10.140  11.705   9.283  0.00  0.00    +0.008 A 
ATOM     25  C   UNL     1      11.340  11.636   8.611  0.00  0.00    +0.046 A 
ENDBRANCH  17  18
ENDBRANCH  13   7
TORSDOF 4
ENDMDL
MODEL 5
REMARK VINA RESULT:      -6.2     22.855     24.485
REMARK  Name = 11911999
REMARK  4 active torsions:
REMARK  status: ('A' for Active; 'I' for Inactive)
REMARK    1  A    between atoms: N_6  and  C_12
REMARK    2  A    between atoms: N_7  and  C_13
REMARK    3  A    between atoms: C_17  and  C_18
REMARK    4  A    between atoms: C_19  and  C_24
REMARK                            x       y       z     vdW  Elec       q    Type
REMARK                         _______ _______ _______ _____ _____    ______ ____
ROOT
ATOM      2  O   UNL     1      -4.601  -9.041   9.989  0.00  0.00    -0.370 OA
ATOM      3  O   UNL     1      -5.545 -12.002  10.267  0.00  0.00    -0.370 OA
ATOM     10  C   UNL     1      -4.301 -11.336  10.538  0.00  0.00    +0.171 C 
ATOM     11  C   UNL     1      -4.109 -10.285   9.463  0.00  0.00    +0.171 C 
ATOM     12  C   UNL     1      -4.399 -10.543  11.819  0.00  0.00    +0.130 C 
ATOM     13  C   UNL     1      -4.985 -10.757   8.326  0.00  0.00    +0.130 C 
ATOM     14  C   UNL     1      -5.007  -9.232  11.352  0.00  0.00    +0.185 C 
ATOM     15  C   UNL     1      -6.106 -11.475   9.056  0.00  0.00    +0.185 C 
ENDROOT
BRANCH  12   6
ATOM      6  N   UNL     1      -3.078 -10.315  12.363  0.00  0.00    -0.306 N 
ATOM      8  N   UNL     1      -3.775 -10.805  14.550  0.00  0.00    -0.211 NA
ATOM      9  N   UNL     1      -1.488 -10.202  14.084  0.00  0.00    -0.223 NA
ATOM     16  C   UNL     1      -2.771 -10.444  13.706  0.00  0.00    +0.216 A 
ATOM     19  C   UNL     1      -3.440 -10.923  15.852  0.00  0.00    +0.111 A 
ATOM     21  C   UNL     1      -1.223 -10.338  15.400  0.00  0.00    +0.116 A 
ATOM     22  C   UNL     1      -2.167 -10.700  16.339  0.00  0.00    +0.051 A 
ATOM     29  H   UNL     1      -2.311 -10.097  11.737  0.00  0.00    +0.149 HD
BRANCH  19  24
ATOM      5  O   UNL     1      -5.032 -12.542  16.499  0.00  0.00    -0.461 OA
ATOM     24  C   UNL     1      -4.521 -11.304  16.720  0.00  0.00    +0.153 A 
ATOM     26  C   UNL     1      -5.178 -10.684  17.754  0.00  0.00    +0.051 A 
ATOM     27  C   UNL     1      -6.160 -11.600  18.200  0.00  0.00    +0.042 A 
ATOM     28  C   UNL     1      -6.030 -12.715  17.405  0.00  0.00    +0.196 A 
ENDBRANCH  19  24
ENDBRANCH  12   6
BRANCH  13   7
ATOM      4  O   UNL     1      -5.330 -10.989   5.518  0.00  0.00    -0.270 OA
ATOM      7  N   UNL     1      -4.269 -11.657   7.453  0.00  0.00    -0.303 N 
ATOM     17  C   UNL     1      -4.503 -11.705   6.083  0.00  0.00    +0.251 C 
ATOM     30  H   UNL     1      -3.617 -12.300   7.888  0.00  0.00    +0.149 HD
BRANCH  17  18
ATOM      1  S   UNL     1      -3.635 -12.541   3.655  0.00  0.00    -0.092 S 
ATOM     18  C   UNL     1      -3.715 -12.697   5.338  0.00  0.00    +0.074 A 
ATOM     20  C   UNL     1      -3.031 -13.748   5.840  0.00  0.00    +0.021 A 
ATOM     23  C   UNL     1      -2.393 -14.478   4.796  0.00  0.00    +0.008 A 
ATOM     25  C   UNL     1      -2.640 -13.931   3.557  0.00  0.00    +0.046 A 
ENDBRANCH  17  18
ENDBRANCH  13   7
TORSDOF 4
ENDMDL
MODEL 6
REMARK VINA RESULT:      -6.0     18.989     20.390
REMARK  Name = 11911999
REMARK  4 active torsions:
REMARK  status: ('A' for Active; 'I' for Inactive)
REMARK    1  A    between atoms: N_6  and  C_12
REMARK    2  A    between atoms: N_7  and  C_13
REMARK    3  A    between atoms: C_17  and  C_18
REMARK    4  A    between atoms: C_19  and  C_24
REMARK                            x       y       z     vdW  Elec       q    Type
REMARK                         _______ _______ _______ _____ _____    ______ ____
ROOT
ATOM      2  O   UNL     1      -5.078 -10.755  18.985  0.00  0.00    -0.370 OA
ATOM      3  O   UNL     1      -7.032 -10.196  16.618  0.00  0.00    -0.370 OA
ATOM     10  C   UNL     1      -6.785 -11.350  17.438  0.00  0.00    +0.171 C 
ATOM     11  C   UNL     1      -5.295 -11.394  17.716  0.00  0.00    +0.171 C 
ATOM     12  C   UNL     1      -7.410 -11.168  18.801  0.00  0.00    +0.130 C 
ATOM     13  C   UNL     1      -4.689 -10.571  16.603  0.00  0.00    +0.130 C 
ATOM     14  C   UNL     1      -6.345 -10.394  19.555  0.00  0.00    +0.185 C 
ATOM     15  C   UNL     1      -5.783  -9.558  16.315  0.00  0.00    +0.185 C 
ENDROOT
BRANCH  12   6
ATOM      6  N   UNL     1      -7.626 -12.456  19.423  0.00  0.00    -0.306 N 
ATOM      8  N   UNL     1      -9.848 -11.938  19.976  0.00  0.00    -0.211 NA
ATOM      9  N   UNL     1      -8.895 -14.077  20.549  0.00  0.00    -0.223 NA
ATOM     16  C   UNL     1      -8.825 -12.835  20.000  0.00  0.00    +0.216 A 
ATOM     19  C   UNL     1     -11.002 -12.342  20.547  0.00  0.00    +0.111 A 
ATOM     21  C   UNL     1     -10.078 -14.414  21.103  0.00  0.00    +0.116 A 
ATOM     22  C   UNL     1     -11.177 -13.580  21.131  0.00  0.00    +0.051 A 
ATOM     29  H   UNL     1      -6.889 -13.151  19.400  0.00  0.00    +0.149 HD
BRANCH  19  24
ATOM      5  O   UNL     1     -13.204 -11.736  21.148  0.00  0.00    -0.461 OA
ATOM     24  C   UNL     1     -12.064 -11.373  20.507  0.00  0.00    +0.153 A 
ATOM     26  C   UNL     1     -12.196 -10.125  19.950  0.00  0.00    +0.051 A 
ATOM     27  C   UNL     1     -13.504  -9.689  20.270  0.00  0.00    +0.042 A 
ATOM     28  C   UNL     1     -14.076 -10.705  20.999  0.00  0.00    +0.196 A 
ENDBRANCH  19  24
ENDBRANCH  12   6
BRANCH  13   7
ATOM      4  O   UNL     1      -2.115 -11.232  15.605  0.00  0.00    -0.270 OA
ATOM      7  N   UNL     1      -4.410 -11.384  15.444  0.00  0.00    -0.303 N 
ATOM     17  C   UNL     1      -3.113 -11.658  15.024  0.00  0.00    +0.251 C 
ATOM     30  H   UNL     1      -5.206 -11.710  14.907  0.00  0.00    +0.149 HD
BRANCH  17  18
ATOM      1  S   UNL     1      -2.459 -14.070  13.974  0.00  0.00    -0.092 S 
ATOM     18  C   UNL     1      -2.997 -12.475  13.807  0.00  0.00    +0.074 A 
ATOM     20  C   UNL     1      -3.272 -12.101  12.538  0.00  0.00    +0.021 A 
ATOM     23  C   UNL     1      -3.035 -13.178  11.635  0.00  0.00    +0.008 A 
ATOM     25  C   UNL     1      -2.589 -14.308  12.283  0.00  0.00    +0.046 A 
ENDBRANCH  17  18
ENDBRANCH  13   7
TORSDOF 4
ENDMDL
MODEL 7
REMARK VINA RESULT:      -6.0     34.334     37.285
REMARK  Name = 11911999
REMARK  4 active torsions:
REMARK  status: ('A' for Active; 'I' for Inactive)
REMARK    1  A    between atoms: N_6  and  C_12
REMARK    2  A    between atoms: N_7  and  C_13
REMARK    3  A    between atoms: C_17  and  C_18
REMARK    4  A    between atoms: C_19  and  C_24
REMARK                            x       y       z     vdW  Elec       q    Type
REMARK                         _______ _______ _______ _____ _____    ______ ____
ROOT
ATOM      2  O   UNL     1      22.340   8.296  22.226  0.00  0.00    -0.370 OA
ATOM      3  O   UNL     1      20.900   6.208  24.043  0.00  0.00    -0.370 OA
ATOM     10  C   UNL     1      21.454   6.144  22.718  0.00  0.00    +0.171 C 
ATOM     11  C   UNL     1      21.174   7.475  22.048  0.00  0.00    +0.171 C 
ATOM     12  C   UNL     1      22.961   6.072  22.783  0.00  0.00    +0.130 C 
ATOM     13  C   UNL     1      20.009   8.041  22.827  0.00  0.00    +0.130 C 
ATOM     14  C   UNL     1      23.359   7.533  22.888  0.00  0.00    +0.185 C 
ATOM     15  C   UNL     1      20.237   7.469  24.215  0.00  0.00    +0.185 C 
ENDROOT
BRANCH  12   6
ATOM      6  N   UNL     1      23.482   5.498  21.562  0.00  0.00    -0.306 N 
ATOM      8  N   UNL     1      23.706   3.370  22.529  0.00  0.00    -0.211 NA
ATOM      9  N   UNL     1      24.323   3.758  20.232  0.00  0.00    -0.223 NA
ATOM     16  C   UNL     1      23.848   4.169  21.437  0.00  0.00    +0.216 A 
ATOM     19  C   UNL     1      24.072   2.081  22.371  0.00  0.00    +0.111 A 
ATOM     21  C   UNL     1      24.670   2.457  20.144  0.00  0.00    +0.116 A 
ATOM     22  C   UNL     1      24.564   1.563  21.190  0.00  0.00    +0.051 A 
ATOM     29  H   UNL     1      23.543   6.070  20.728  0.00  0.00    +0.149 HD
BRANCH  19  24
ATOM      5  O   UNL     1      24.907   0.368  23.765  0.00  0.00    -0.461 OA
ATOM     24  C   UNL     1      23.911   1.262  23.542  0.00  0.00    +0.153 A 
ATOM     26  C   UNL     1      22.950   1.173  24.519  0.00  0.00    +0.051 A 
ATOM     27  C   UNL     1      23.382   0.155  25.402  0.00  0.00    +0.042 A 
ATOM     28  C   UNL     1      24.578  -0.303  24.900  0.00  0.00    +0.196 A 
ENDBRANCH  19  24
ENDBRANCH  12   6
BRANCH  13   7
ATOM      4  O   UNL     1      18.372   9.487  21.014  0.00  0.00    -0.270 OA
ATOM      7  N   UNL     1      18.749   7.597  22.280  0.00  0.00    -0.303 N 
ATOM     17  C   UNL     1      18.010   8.374  21.394  0.00  0.00    +0.251 C 
ATOM     30  H   UNL     1      18.391   6.708  22.609  0.00  0.00    +0.149 HD
BRANCH  17  18
ATOM      1  S   UNL     1      15.337   8.208  21.814  0.00  0.00    -0.092 S 
ATOM     18  C   UNL     1      16.733   7.794  20.952  0.00  0.00    +0.074 A 
ATOM     20  C   UNL     1      16.530   6.948  19.918  0.00  0.00    +0.021 A 
ATOM     23  C   UNL     1      15.149   6.611  19.810  0.00  0.00    +0.008 A 
ATOM     25  C   UNL     1      14.389   7.226  20.780  0.00  0.00    +0.046 A 
ENDBRANCH  17  18
ENDBRANCH  13   7
TORSDOF 4
ENDMDL
MODEL 8
REMARK VINA RESULT:      -6.0     16.615     18.604
REMARK  Name = 11911999
REMARK  4 active torsions:
REMARK  status: ('A' for Active; 'I' for Inactive)
REMARK    1  A    between atoms: N_6  and  C_12
REMARK    2  A    between atoms: N_7  and  C_13
REMARK    3  A    between atoms: C_17  and  C_18
REMARK    4  A    between atoms: C_19  and  C_24
REMARK                            x       y       z     vdW  Elec       q    Type
REMARK                         _______ _______ _______ _____ _____    ______ ____
ROOT
ATOM      2  O   UNL     1      -9.930 -10.291  15.809  0.00  0.00    -0.370 OA
ATOM      3  O   UNL     1     -10.083  -7.202  16.219  0.00  0.00    -0.370 OA
ATOM     10  C   UNL     1      -9.911  -8.306  17.122  0.00  0.00    +0.171 C 
ATOM     11  C   UNL     1     -10.772  -9.445  16.610  0.00  0.00    +0.171 C 
ATOM     12  C   UNL     1      -8.501  -8.840  17.034  0.00  0.00    +0.130 C 
ATOM     13  C   UNL     1     -11.806  -8.763  15.744  0.00  0.00    +0.130 C 
ATOM     14  C   UNL     1      -8.582  -9.801  15.861  0.00  0.00    +0.185 C 
ATOM     15  C   UNL     1     -11.046  -7.559  15.216  0.00  0.00    +0.185 C 
ENDROOT
BRANCH  12   6
ATOM      6  N   UNL     1      -8.167  -9.557  18.245  0.00  0.00    -0.306 N 
ATOM      8  N   UNL     1      -6.057 -10.178  17.424  0.00  0.00    -0.211 NA
ATOM      9  N   UNL     1      -6.777 -10.849  19.625  0.00  0.00    -0.223 NA
ATOM     16  C   UNL     1      -6.964 -10.214  18.437  0.00  0.00    +0.216 A 
ATOM     19  C   UNL     1      -4.896 -10.829  17.647  0.00  0.00    +0.111 A 
ATOM     21  C   UNL     1      -5.594 -11.479  19.779  0.00  0.00    +0.116 A 
ATOM     22  C   UNL     1      -4.606 -11.502  18.816  0.00  0.00    +0.051 A 
ATOM     29  H   UNL     1      -8.813  -9.547  19.025  0.00  0.00    +0.149 HD
BRANCH  19  24
ATOM      5  O   UNL     1      -4.508 -10.746  15.319  0.00  0.00    -0.461 OA
ATOM     24  C   UNL     1      -3.957 -10.773  16.558  0.00  0.00    +0.153 A 
ATOM     26  C   UNL     1      -2.586 -10.741  16.482  0.00  0.00    +0.051 A 
ATOM     27  C   UNL     1      -2.272 -10.691  15.104  0.00  0.00    +0.042 A 
ATOM     28  C   UNL     1      -3.475 -10.696  14.437  0.00  0.00    +0.196 A 
ENDBRANCH  19  24
ENDBRANCH  12   6
BRANCH  13   7
ATOM      4  O   UNL     1     -14.471  -8.532  14.793  0.00  0.00    -0.270 OA
ATOM      7  N   UNL     1     -12.953  -8.358  16.520  0.00  0.00    -0.303 N 
ATOM     17  C   UNL     1     -14.229  -8.271  15.971  0.00  0.00    +0.251 C 
ATOM     30  H   UNL     1     -12.786  -8.083  17.482  0.00  0.00    +0.149 HD
BRANCH  17  18
ATOM      1  S   UNL     1     -15.620  -8.762  18.245  0.00  0.00    -0.092 S 
ATOM     18  C   UNL     1     -15.285  -7.813  16.885  0.00  0.00    +0.074 A 
ATOM     20  C   UNL     1     -16.043  -6.700  16.772  0.00  0.00    +0.021 A 
ATOM     23  C   UNL     1     -16.958  -6.604  17.859  0.00  0.00    +0.008 A 
ATOM     25  C   UNL     1     -16.836  -7.660  18.734  0.00  0.00    +0.046 A 
ENDBRANCH  17  18
ENDBRANCH  13   7
TORSDOF 4
ENDMDL
MODEL 9
REMARK VINA RESULT:      -5.9     22.318     25.340
REMARK  Name = 11911999
REMARK  4 active torsions:
REMARK  status: ('A' for Active; 'I' for Inactive)
REMARK    1  A    between atoms: N_6  and  C_12
REMARK    2  A    between atoms: N_7  and  C_13
REMARK    3  A    between atoms: C_17  and  C_18
REMARK    4  A    between atoms: C_19  and  C_24
REMARK                            x       y       z     vdW  Elec       q    Type
REMARK                         _______ _______ _______ _____ _____    ______ ____
ROOT
ATOM      2  O   UNL     1      -2.883 -10.051  11.977  0.00  0.00    -0.370 OA
ATOM      3  O   UNL     1      -4.183 -12.852  12.426  0.00  0.00    -0.370 OA
ATOM     10  C   UNL     1      -4.719 -11.560  12.096  0.00  0.00    +0.171 C 
ATOM     11  C   UNL     1      -3.912 -10.529  12.860  0.00  0.00    +0.171 C 
ATOM     12  C   UNL     1      -4.453 -11.237  10.646  0.00  0.00    +0.130 C 
ATOM     13  C   UNL     1      -3.302 -11.311  14.001  0.00  0.00    +0.130 C 
ATOM     14  C   UNL     1      -3.052 -10.654  10.686  0.00  0.00    +0.185 C 
ATOM     15  C   UNL     1      -3.137 -12.693  13.396  0.00  0.00    +0.185 C 
ENDROOT
BRANCH  12   6
ATOM      6  N   UNL     1      -5.395 -10.243  10.179  0.00  0.00    -0.306 N 
ATOM      8  N   UNL     1      -5.108 -10.867   7.934  0.00  0.00    -0.211 NA
ATOM      9  N   UNL     1      -6.620  -9.091   8.543  0.00  0.00    -0.223 NA
ATOM     16  C   UNL     1      -5.718 -10.061   8.846  0.00  0.00    +0.216 A 
ATOM     19  C   UNL     1      -5.447 -10.662   6.644  0.00  0.00    +0.111 A 
ATOM     21  C   UNL     1      -6.913  -8.941   7.234  0.00  0.00    +0.116 A 
ATOM     22  C   UNL     1      -6.352  -9.705   6.231  0.00  0.00    +0.051 A 
ATOM     29  H   UNL     1      -5.894  -9.673  10.853  0.00  0.00    +0.149 HD
BRANCH  19  24
ATOM      5  O   UNL     1      -5.346 -11.575   4.468  0.00  0.00    -0.461 OA
ATOM     24  C   UNL     1      -4.787 -11.527   5.704  0.00  0.00    +0.153 A 
ATOM     26  C   UNL     1      -3.685 -12.344   5.771  0.00  0.00    +0.051 A 
ATOM     27  C   UNL     1      -3.557 -12.935   4.492  0.00  0.00    +0.042 A 
ATOM     28  C   UNL     1      -4.591 -12.434   3.735  0.00  0.00    +0.196 A 
ENDBRANCH  19  24
ENDBRANCH  12   6
BRANCH  13   7
ATOM      4  O   UNL     1      -2.586 -10.711  16.681  0.00  0.00    -0.270 OA
ATOM      7  N   UNL     1      -4.183 -11.342  15.143  0.00  0.00    -0.303 N 
ATOM     17  C   UNL     1      -3.746 -11.033  16.428  0.00  0.00    +0.251 C 
ATOM     30  H   UNL     1      -5.135 -11.654  14.984  0.00  0.00    +0.149 HD
BRANCH  17  18
ATOM      1  S   UNL     1      -4.678 -12.479  18.521  0.00  0.00    -0.092 S 
ATOM     18  C   UNL     1      -4.758 -11.142  17.488  0.00  0.00    +0.074 A 
ATOM     20  C   UNL     1      -5.773 -10.288  17.746  0.00  0.00    +0.021 A 
ATOM     23  C   UNL     1      -6.540 -10.741  18.858  0.00  0.00    +0.008 A 
ATOM     25  C   UNL     1      -6.055 -11.922  19.375  0.00  0.00    +0.046 A 
ENDBRANCH  17  18
ENDBRANCH  13   7
TORSDOF 4
ENDMDL
MODEL 10
REMARK VINA RESULT:      -5.8     35.386     38.323
REMARK  Name = 11911999
REMARK  4 active torsions:
REMARK  status: ('A' for Active; 'I' for Inactive)
REMARK    1  A    between atoms: N_6  and  C_12
REMARK    2  A    between atoms: N_7  and  C_13
REMARK    3  A    between atoms: C_17  and  C_18
REMARK    4  A    between atoms: C_19  and  C_24
REMARK                            x       y       z     vdW  Elec       q    Type
REMARK                         _______ _______ _______ _____ _____    ______ ____
ROOT
ATOM      2  O   UNL     1      10.421   5.169  -5.225  0.00  0.00    -0.370 OA
ATOM      3  O   UNL     1       9.180   2.893  -3.490  0.00  0.00    -0.370 OA
ATOM     10  C   UNL     1       9.155   4.327  -3.395  0.00  0.00    +0.171 C 
ATOM     11  C   UNL     1      10.517   4.830  -3.832  0.00  0.00    +0.171 C 
ATOM     12  C   UNL     1       8.204   4.903  -4.416  0.00  0.00    +0.130 C 
ATOM     13  C   UNL     1      11.428   3.638  -3.643  0.00  0.00    +0.130 C 
ATOM     14  C   UNL     1       9.066   4.992  -5.662  0.00  0.00    +0.185 C 
ATOM     15  C   UNL     1      10.490   2.470  -3.894  0.00  0.00    +0.185 C 
ENDROOT
BRANCH  12   6
ATOM      6  N   UNL     1       7.780   6.225  -4.007  0.00  0.00    -0.306 N 
ATOM      8  N   UNL     1       5.515   5.731  -4.378  0.00  0.00    -0.211 NA
ATOM      9  N   UNL     1       6.195   7.902  -3.579  0.00  0.00    -0.223 NA
ATOM     16  C   UNL     1       6.457   6.632  -3.987  0.00  0.00    +0.216 A 
ATOM     19  C   UNL     1       4.236   6.162  -4.345  0.00  0.00    +0.111 A 
ATOM     21  C   UNL     1       4.896   8.265  -3.572  0.00  0.00    +0.116 A 
ATOM     22  C   UNL     1       3.864   7.430  -3.947  0.00  0.00    +0.051 A 
ATOM     29  H   UNL     1       8.467   6.885  -3.664  0.00  0.00    +0.149 HD
BRANCH  19  24
ATOM      5  O   UNL     1       2.285   4.922  -3.862  0.00  0.00    -0.461 OA
ATOM     24  C   UNL     1       3.263   5.189  -4.764  0.00  0.00    +0.153 A 
ATOM     26  C   UNL     1       3.090   4.444  -5.904  0.00  0.00    +0.051 A 
ATOM     27  C   UNL     1       1.928   3.664  -5.690  0.00  0.00    +0.042 A 
ATOM     28  C   UNL     1       1.476   3.992  -4.432  0.00  0.00    +0.196 A 
ENDBRANCH  19  24
ENDBRANCH  12   6
BRANCH  13   7
ATOM      4  O   UNL     1      14.120   4.157  -2.908  0.00  0.00    -0.270 OA
ATOM      7  N   UNL     1      11.966   3.597  -2.305  0.00  0.00    -0.303 N 
ATOM     17  C   UNL     1      13.304   3.866  -2.034  0.00  0.00    +0.251 C 
ATOM     30  H   UNL     1      11.337   3.310  -1.563  0.00  0.00    +0.149 HD
BRANCH  17  18
ATOM      1  S   UNL     1      15.287   4.182  -0.214  0.00  0.00    -0.092 S 
ATOM     18  C   UNL     1      13.703   3.753  -0.624  0.00  0.00    +0.074 A 
ATOM     20  C   UNL     1      12.944   3.335   0.413  0.00  0.00    +0.021 A 
ATOM     23  C   UNL     1      13.691   3.366   1.626  0.00  0.00    +0.008 A 
ATOM     25  C   UNL     1      14.981   3.806   1.429  0.00  0.00    +0.046 A 
ENDBRANCH  17  18
ENDBRANCH  13   7
TORSDOF 4
ENDMDL
