MODEL 1
REMARK VINA RESULT:      -8.5      0.000      0.000
REMARK  Name = 11883400
REMARK  7 active torsions:
REMARK  status: ('A' for Active; 'I' for Inactive)
REMARK    1  A    between atoms: O_9  and  C_18
REMARK    2  A    between atoms: O_9  and  C_22
REMARK    3  A    between atoms: N_12  and  C_17
REMARK    4  A    between atoms: N_13  and  C_23
REMARK    5  A    between atoms: N_14  and  C_24
REMARK    6  A    between atoms: C_29  and  C_35
REMARK    7  A    between atoms: C_31  and  C_36
REMARK                            x       y       z     vdW  Elec       q    Type
REMARK                         _______ _______ _______ _____ _____    ______ ____
ROOT
ATOM      7  O   UNL     1     -15.739   3.986  22.533  0.00  0.00    -0.368 OA
ATOM      8  O   UNL     1     -16.676   6.562  23.910  0.00  0.00    -0.368 OA
ATOM     15  C   UNL     1     -15.392   6.176  23.374  0.00  0.00    +0.173 C 
ATOM     16  C   UNL     1     -15.220   4.699  23.668  0.00  0.00    +0.192 C 
ATOM     17  C   UNL     1     -15.418   6.245  21.864  0.00  0.00    +0.131 C 
ATOM     18  C   UNL     1     -16.082   4.507  24.892  0.00  0.00    +0.235 C 
ATOM     19  C   UNL     1     -16.064   4.921  21.493  0.00  0.00    +0.185 C 
ATOM     20  C   UNL     1     -17.234   5.448  24.622  0.00  0.00    +0.207 C 
ENDROOT
BRANCH  17  12
ATOM     10  O   UNL     1     -14.454   8.246  20.054  0.00  0.00    -0.252 OA
ATOM     12  N   UNL     1     -14.084   6.349  21.323  0.00  0.00    -0.292 N 
ATOM     13  N   UNL     1     -12.350   7.207  20.086  0.00  0.00    -0.269 N 
ATOM     21  C   UNL     1     -13.693   7.362  20.440  0.00  0.00    +0.304 C 
ATOM     37  H   UNL     1     -13.379   5.694  21.648  0.00  0.00    +0.151 HD
ATOM     38  H   UNL     1     -11.858   6.416  20.495  0.00  0.00    +0.156 HD
BRANCH  13  23
ATOM     23  C   UNL     1     -11.581   8.019  19.220  0.00  0.00    +0.035 A 
ATOM     25  C   UNL     1     -11.627   7.807  17.841  0.00  0.00    +0.035 A 
ATOM     26  C   UNL     1     -10.779   9.032  19.743  0.00  0.00    +0.023 A 
ATOM     29  C   UNL     1     -10.868   8.607  16.987  0.00  0.00    +0.057 A 
ATOM     30  C   UNL     1     -10.020   9.833  18.890  0.00  0.00    +0.002 A 
ATOM     32  C   UNL     1     -10.066   9.621  17.511  0.00  0.00    +0.012 A 
BRANCH  29  35
ATOM      1  F   UNL     1     -10.527   9.465  14.781  0.00  0.00    -0.166 F 
ATOM      2  F   UNL     1     -10.115   7.358  15.092  0.00  0.00    -0.166 F 
ATOM      3  F   UNL     1     -12.169   8.070  15.071  0.00  0.00    -0.166 F 
ATOM     35  C   UNL     1     -10.916   8.381  15.514  0.00  0.00    +0.417 C 
ENDBRANCH  29  35
ENDBRANCH  13  23
ENDBRANCH  17  12
BRANCH  18   9
ATOM      9  O   UNL     1     -16.514   3.178  25.073  0.00  0.00    -0.442 OA
BRANCH   9  22
ATOM     11  O   UNL     1     -17.749   2.115  26.678  0.00  0.00    -0.226 OA
ATOM     14  N   UNL     1     -15.755   3.227  27.197  0.00  0.00    -0.251 N 
ATOM     22  C   UNL     1     -16.764   2.774  26.369  0.00  0.00    +0.405 C 
ATOM     39  H   UNL     1     -15.016   3.764  26.751  0.00  0.00    +0.158 HD
BRANCH  14  24
ATOM     24  C   UNL     1     -15.623   3.038  28.591  0.00  0.00    +0.037 A 
ATOM     27  C   UNL     1     -15.392   1.761  29.104  0.00  0.00    +0.035 A 
ATOM     28  C   UNL     1     -15.726   4.129  29.455  0.00  0.00    +0.023 A 
ATOM     31  C   UNL     1     -15.262   1.576  30.480  0.00  0.00    +0.057 A 
ATOM     33  C   UNL     1     -15.597   3.942  30.832  0.00  0.00    +0.002 A 
ATOM     34  C   UNL     1     -15.365   2.666  31.343  0.00  0.00    +0.012 A 
BRANCH  31  36
ATOM      4  F   UNL     1     -14.892   0.182  32.389  0.00  0.00    -0.166 F 
ATOM      5  F   UNL     1     -16.006  -0.683  30.741  0.00  0.00    -0.166 F 
ATOM      6  F   UNL     1     -13.867  -0.348  30.546  0.00  0.00    -0.166 F 
ATOM     36  C   UNL     1     -15.014   0.211  31.029  0.00  0.00    +0.417 C 
ENDBRANCH  31  36
ENDBRANCH  14  24
ENDBRANCH   9  22
ENDBRANCH  18   9
TORSDOF 7
ENDMDL
MODEL 2
REMARK VINA RESULT:      -8.0      2.198      2.950
REMARK  Name = 11883400
REMARK  7 active torsions:
REMARK  status: ('A' for Active; 'I' for Inactive)
REMARK    1  A    between atoms: O_9  and  C_18
REMARK    2  A    between atoms: O_9  and  C_22
REMARK    3  A    between atoms: N_12  and  C_17
REMARK    4  A    between atoms: N_13  and  C_23
REMARK    5  A    between atoms: N_14  and  C_24
REMARK    6  A    between atoms: C_29  and  C_35
REMARK    7  A    between atoms: C_31  and  C_36
REMARK                            x       y       z     vdW  Elec       q    Type
REMARK                         _______ _______ _______ _____ _____    ______ ____
ROOT
ATOM      7  O   UNL     1     -15.947   2.561  24.231  0.00  0.00    -0.368 OA
ATOM      8  O   UNL     1     -17.635   4.954  25.145  0.00  0.00    -0.368 OA
ATOM     15  C   UNL     1     -16.264   4.865  24.701  0.00  0.00    +0.173 C 
ATOM     16  C   UNL     1     -15.713   3.560  25.240  0.00  0.00    +0.192 C 
ATOM     17  C   UNL     1     -16.216   4.687  23.201  0.00  0.00    +0.131 C 
ATOM     18  C   UNL     1     -16.563   3.327  26.466  0.00  0.00    +0.235 C 
ATOM     19  C   UNL     1     -16.451   3.195  23.046  0.00  0.00    +0.185 C 
ATOM     20  C   UNL     1     -17.910   3.854  26.024  0.00  0.00    +0.207 C 
ENDROOT
BRANCH  17  12
ATOM     10  O   UNL     1     -15.586   7.134  21.850  0.00  0.00    -0.252 OA
ATOM     12  N   UNL     1     -14.931   5.075  22.670  0.00  0.00    -0.292 N 
ATOM     13  N   UNL     1     -13.372   6.392  21.616  0.00  0.00    -0.269 N 
ATOM     21  C   UNL     1     -14.706   6.294  22.020  0.00  0.00    +0.304 C 
ATOM     37  H   UNL     1     -14.137   4.462  22.832  0.00  0.00    +0.151 HD
ATOM     38  H   UNL     1     -12.769   5.602  21.835  0.00  0.00    +0.156 HD
BRANCH  13  23
ATOM     23  C   UNL     1     -12.748   7.462  20.932  0.00  0.00    +0.035 A 
ATOM     25  C   UNL     1     -12.122   7.235  19.706  0.00  0.00    +0.035 A 
ATOM     26  C   UNL     1     -12.760   8.742  21.483  0.00  0.00    +0.023 A 
ATOM     29  C   UNL     1     -11.507   8.290  19.032  0.00  0.00    +0.057 A 
ATOM     30  C   UNL     1     -12.146   9.798  20.810  0.00  0.00    +0.002 A 
ATOM     32  C   UNL     1     -11.519   9.571  19.584  0.00  0.00    +0.012 A 
BRANCH  29  35
ATOM      1  F   UNL     1     -11.647   8.270  16.644  0.00  0.00    -0.166 F 
ATOM      2  F   UNL     1      -9.743   8.839  17.514  0.00  0.00    -0.166 F 
ATOM      3  F   UNL     1     -10.392   6.765  17.588  0.00  0.00    -0.166 F 
ATOM     35  C   UNL     1     -10.837   8.049  17.722  0.00  0.00    +0.417 C 
ENDBRANCH  29  35
ENDBRANCH  13  23
ENDBRANCH  17  12
BRANCH  18   9
ATOM      9  O   UNL     1     -16.625   1.975  26.859  0.00  0.00    -0.442 OA
BRANCH   9  22
ATOM     11  O   UNL     1     -17.639   1.158  28.739  0.00  0.00    -0.226 OA
ATOM     14  N   UNL     1     -15.544   2.198  28.826  0.00  0.00    -0.251 N 
ATOM     22  C   UNL     1     -16.688   1.723  28.214  0.00  0.00    +0.405 C 
ATOM     39  H   UNL     1     -14.860   2.642  28.218  0.00  0.00    +0.158 HD
BRANCH  14  24
ATOM     24  C   UNL     1     -15.204   2.146  30.197  0.00  0.00    +0.037 A 
ATOM     27  C   UNL     1     -14.949   3.324  30.898  0.00  0.00    +0.035 A 
ATOM     28  C   UNL     1     -15.124   0.914  30.848  0.00  0.00    +0.023 A 
ATOM     31  C   UNL     1     -14.613   3.271  32.251  0.00  0.00    +0.057 A 
ATOM     33  C   UNL     1     -14.787   0.862  32.202  0.00  0.00    +0.002 A 
ATOM     34  C   UNL     1     -14.532   2.041  32.902  0.00  0.00    +0.012 A 
BRANCH  31  36
ATOM      4  F   UNL     1     -13.398   5.325  32.413  0.00  0.00    -0.166 F 
ATOM      5  F   UNL     1     -15.439   5.330  33.146  0.00  0.00    -0.166 F 
ATOM      6  F   UNL     1     -13.887   4.301  34.267  0.00  0.00    -0.166 F 
ATOM     36  C   UNL     1     -14.340   4.531  33.002  0.00  0.00    +0.417 C 
ENDBRANCH  31  36
ENDBRANCH  14  24
ENDBRANCH   9  22
ENDBRANCH  18   9
TORSDOF 7
ENDMDL
MODEL 3
REMARK VINA RESULT:      -7.9      4.856      7.070
REMARK  Name = 11883400
REMARK  7 active torsions:
REMARK  status: ('A' for Active; 'I' for Inactive)
REMARK    1  A    between atoms: O_9  and  C_18
REMARK    2  A    between atoms: O_9  and  C_22
REMARK    3  A    between atoms: N_12  and  C_17
REMARK    4  A    between atoms: N_13  and  C_23
REMARK    5  A    between atoms: N_14  and  C_24
REMARK    6  A    between atoms: C_29  and  C_35
REMARK    7  A    between atoms: C_31  and  C_36
REMARK                            x       y       z     vdW  Elec       q    Type
REMARK                         _______ _______ _______ _____ _____    ______ ____
ROOT
ATOM      7  O   UNL     1     -15.227   2.406  29.205  0.00  0.00    -0.368 OA
ATOM      8  O   UNL     1     -17.723   4.189  29.216  0.00  0.00    -0.368 OA
ATOM     15  C   UNL     1     -16.546   4.197  28.380  0.00  0.00    +0.173 C 
ATOM     16  C   UNL     1     -15.374   3.835  29.271  0.00  0.00    +0.192 C 
ATOM     17  C   UNL     1     -16.609   3.061  27.385  0.00  0.00    +0.131 C 
ATOM     18  C   UNL     1     -15.844   4.288  30.631  0.00  0.00    +0.235 C 
ATOM     19  C   UNL     1     -16.118   1.883  28.209  0.00  0.00    +0.185 C 
ATOM     20  C   UNL     1     -17.323   3.975  30.577  0.00  0.00    +0.207 C 
ENDROOT
BRANCH  17  12
ATOM     10  O   UNL     1     -17.182   4.720  25.120  0.00  0.00    -0.252 OA
ATOM     12  N   UNL     1     -15.746   3.308  26.255  0.00  0.00    -0.292 N 
ATOM     13  N   UNL     1     -15.072   4.184  24.242  0.00  0.00    -0.269 N 
ATOM     21  C   UNL     1     -16.103   4.135  25.184  0.00  0.00    +0.304 C 
ATOM     37  H   UNL     1     -14.810   2.914  26.268  0.00  0.00    +0.151 HD
ATOM     38  H   UNL     1     -14.240   3.636  24.447  0.00  0.00    +0.156 HD
BRANCH  13  23
ATOM     23  C   UNL     1     -15.043   4.904  23.024  0.00  0.00    +0.035 A 
ATOM     25  C   UNL     1     -13.878   5.564  22.632  0.00  0.00    +0.035 A 
ATOM     26  C   UNL     1     -16.178   4.955  22.217  0.00  0.00    +0.023 A 
ATOM     29  C   UNL     1     -13.849   6.274  21.432  0.00  0.00    +0.057 A 
ATOM     30  C   UNL     1     -16.150   5.665  21.017  0.00  0.00    +0.002 A 
ATOM     32  C   UNL     1     -14.985   6.325  20.625  0.00  0.00    +0.012 A 
BRANCH  29  35
ATOM      1  F   UNL     1     -12.506   7.160  19.662  0.00  0.00    -0.166 F 
ATOM      2  F   UNL     1     -12.475   8.228  21.549  0.00  0.00    -0.166 F 
ATOM      3  F   UNL     1     -11.472   6.307  21.374  0.00  0.00    -0.166 F 
ATOM     35  C   UNL     1     -12.604   6.979  21.012  0.00  0.00    +0.417 C 
ENDBRANCH  29  35
ENDBRANCH  13  23
ENDBRANCH  17  12
BRANCH  18   9
ATOM      9  O   UNL     1     -15.202   3.629  31.698  0.00  0.00    -0.442 OA
BRANCH   9  22
ATOM     11  O   UNL     1     -13.082   3.755  32.546  0.00  0.00    -0.226 OA
ATOM     14  N   UNL     1     -14.523   5.600  32.560  0.00  0.00    -0.251 N 
ATOM     22  C   UNL     1     -14.154   4.294  32.302  0.00  0.00    +0.405 C 
ATOM     39  H   UNL     1     -15.465   5.864  32.282  0.00  0.00    +0.158 HD
BRANCH  14  24
ATOM     24  C   UNL     1     -13.753   6.618  33.166  0.00  0.00    +0.037 A 
ATOM     27  C   UNL     1     -12.933   7.432  32.384  0.00  0.00    +0.035 A 
ATOM     28  C   UNL     1     -13.812   6.807  34.547  0.00  0.00    +0.023 A 
ATOM     31  C   UNL     1     -12.172   8.436  32.984  0.00  0.00    +0.057 A 
ATOM     33  C   UNL     1     -13.050   7.811  35.146  0.00  0.00    +0.002 A 
ATOM     34  C   UNL     1     -12.231   8.625  34.364  0.00  0.00    +0.012 A 
BRANCH  31  36
ATOM      4  F   UNL     1     -11.576  10.638  32.266  0.00  0.00    -0.166 F 
ATOM      5  F   UNL     1      -9.968   9.196  32.450  0.00  0.00    -0.166 F 
ATOM      6  F   UNL     1     -11.393   9.028  30.817  0.00  0.00    -0.166 F 
ATOM     36  C   UNL     1     -11.296   9.307  32.149  0.00  0.00    +0.417 C 
ENDBRANCH  31  36
ENDBRANCH  14  24
ENDBRANCH   9  22
ENDBRANCH  18   9
TORSDOF 7
ENDMDL
MODEL 4
REMARK VINA RESULT:      -7.9     23.457     27.929
REMARK  Name = 11883400
REMARK  7 active torsions:
REMARK  status: ('A' for Active; 'I' for Inactive)
REMARK    1  A    between atoms: O_9  and  C_18
REMARK    2  A    between atoms: O_9  and  C_22
REMARK    3  A    between atoms: N_12  and  C_17
REMARK    4  A    between atoms: N_13  and  C_23
REMARK    5  A    between atoms: N_14  and  C_24
REMARK    6  A    between atoms: C_29  and  C_35
REMARK    7  A    between atoms: C_31  and  C_36
REMARK                            x       y       z     vdW  Elec       q    Type
REMARK                         _______ _______ _______ _____ _____    ______ ____
ROOT
ATOM      7  O   UNL     1       4.851  11.185   4.657  0.00  0.00    -0.368 OA
ATOM      8  O   UNL     1       6.179  12.039   2.027  0.00  0.00    -0.368 OA
ATOM     15  C   UNL     1       5.165  11.052   2.309  0.00  0.00    +0.173 C 
ATOM     16  C   UNL     1       5.524  10.422   3.640  0.00  0.00    +0.192 C 
ATOM     17  C   UNL     1       3.840  11.730   2.575  0.00  0.00    +0.131 C 
ATOM     18  C   UNL     1       7.021  10.611   3.698  0.00  0.00    +0.235 C 
ATOM     19  C   UNL     1       3.972  12.134   4.033  0.00  0.00    +0.185 C 
ATOM     20  C   UNL     1       7.198  11.958   3.034  0.00  0.00    +0.207 C 
ENDROOT
BRANCH  17  12
ATOM     10  O   UNL     1       1.141  12.089   3.466  0.00  0.00    -0.252 OA
ATOM     12  N   UNL     1       2.738  10.819   2.379  0.00  0.00    -0.292 N 
ATOM     13  N   UNL     1       0.591  10.016   2.512  0.00  0.00    -0.269 N 
ATOM     21  C   UNL     1       1.443  11.071   2.849  0.00  0.00    +0.304 C 
ATOM     37  H   UNL     1       2.894   9.987   1.819  0.00  0.00    +0.151 HD
ATOM     38  H   UNL     1       1.003   9.241   1.997  0.00  0.00    +0.156 HD
BRANCH  13  23
ATOM     23  C   UNL     1      -0.788   9.888   2.803  0.00  0.00    +0.035 A 
ATOM     25  C   UNL     1      -1.196   9.320   4.010  0.00  0.00    +0.035 A 
ATOM     26  C   UNL     1      -1.738  10.330   1.884  0.00  0.00    +0.023 A 
ATOM     29  C   UNL     1      -2.556   9.194   4.297  0.00  0.00    +0.057 A 
ATOM     30  C   UNL     1      -3.097  10.204   2.169  0.00  0.00    +0.002 A 
ATOM     32  C   UNL     1      -3.506   9.636   3.376  0.00  0.00    +0.012 A 
BRANCH  29  35
ATOM      1  F   UNL     1      -2.109   8.781   6.610  0.00  0.00    -0.166 F 
ATOM      2  F   UNL     1      -4.183   9.077   6.045  0.00  0.00    -0.166 F 
ATOM      3  F   UNL     1      -3.162   7.236   5.501  0.00  0.00    -0.166 F 
ATOM     35  C   UNL     1      -2.993   8.587   5.586  0.00  0.00    +0.417 C 
ENDBRANCH  29  35
ENDBRANCH  13  23
ENDBRANCH  17  12
BRANCH  18   9
ATOM      9  O   UNL     1       7.541  10.592   5.007  0.00  0.00    -0.442 OA
BRANCH   9  22
ATOM     11  O   UNL     1       9.701   9.922   5.344  0.00  0.00    -0.226 OA
ATOM     14  N   UNL     1       7.914   8.414   5.459  0.00  0.00    -0.251 N 
ATOM     22  C   UNL     1       8.509   9.648   5.281  0.00  0.00    +0.405 C 
ATOM     39  H   UNL     1       6.902   8.386   5.365  0.00  0.00    +0.158 HD
BRANCH  14  24
ATOM     24  C   UNL     1       8.539   7.181   5.753  0.00  0.00    +0.037 A 
ATOM     27  C   UNL     1       8.737   6.798   7.080  0.00  0.00    +0.035 A 
ATOM     28  C   UNL     1       8.959   6.348   4.716  0.00  0.00    +0.023 A 
ATOM     31  C   UNL     1       9.354   5.581   7.369  0.00  0.00    +0.057 A 
ATOM     33  C   UNL     1       9.578   5.131   5.006  0.00  0.00    +0.002 A 
ATOM     34  C   UNL     1       9.774   4.749   6.333  0.00  0.00    +0.012 A 
BRANCH  31  36
ATOM      4  F   UNL     1      10.705   5.680   9.341  0.00  0.00    -0.166 F 
ATOM      5  F   UNL     1       8.559   5.561   9.625  0.00  0.00    -0.166 F 
ATOM      6  F   UNL     1       9.660   3.818   8.935  0.00  0.00    -0.166 F 
ATOM     36  C   UNL     1       9.565   5.171   8.788  0.00  0.00    +0.417 C 
ENDBRANCH  31  36
ENDBRANCH  14  24
ENDBRANCH   9  22
ENDBRANCH  18   9
TORSDOF 7
ENDMDL
MODEL 5
REMARK VINA RESULT:      -7.9     16.578     19.076
REMARK  Name = 11883400
REMARK  7 active torsions:
REMARK  status: ('A' for Active; 'I' for Inactive)
REMARK    1  A    between atoms: O_9  and  C_18
REMARK    2  A    between atoms: O_9  and  C_22
REMARK    3  A    between atoms: N_12  and  C_17
REMARK    4  A    between atoms: N_13  and  C_23
REMARK    5  A    between atoms: N_14  and  C_24
REMARK    6  A    between atoms: C_29  and  C_35
REMARK    7  A    between atoms: C_31  and  C_36
REMARK                            x       y       z     vdW  Elec       q    Type
REMARK                         _______ _______ _______ _____ _____    ______ ____
ROOT
ATOM      7  O   UNL     1      -9.599  -9.214  15.045  0.00  0.00    -0.368 OA
ATOM      8  O   UNL     1     -10.191  -8.954  18.043  0.00  0.00    -0.368 OA
ATOM     15  C   UNL     1      -9.993  -7.958  17.017  0.00  0.00    +0.173 C 
ATOM     16  C   UNL     1      -8.922  -8.492  16.088  0.00  0.00    +0.192 C 
ATOM     17  C   UNL     1     -11.221  -7.864  16.140  0.00  0.00    +0.131 C 
ATOM     18  C   UNL     1      -8.137  -9.415  16.989  0.00  0.00    +0.235 C 
ATOM     19  C   UNL     1     -11.015  -9.019  15.175  0.00  0.00    +0.185 C 
ATOM     20  C   UNL     1      -9.221  -9.996  17.870  0.00  0.00    +0.207 C 
ENDROOT
BRANCH  17  12
ATOM     10  O   UNL     1     -12.979  -7.160  13.990  0.00  0.00    -0.252 OA
ATOM     12  N   UNL     1     -11.271  -6.601  15.445  0.00  0.00    -0.292 N 
ATOM     13  N   UNL     1     -11.983  -5.036  13.922  0.00  0.00    -0.269 N 
ATOM     21  C   UNL     1     -12.164  -6.337  14.400  0.00  0.00    +0.304 C 
ATOM     37  H   UNL     1     -10.675  -5.846  15.771  0.00  0.00    +0.151 HD
ATOM     38  H   UNL     1     -11.259  -4.480  14.372  0.00  0.00    +0.156 HD
BRANCH  13  23
ATOM     23  C   UNL     1     -12.684  -4.390  12.877  0.00  0.00    +0.035 A 
ATOM     25  C   UNL     1     -12.123  -4.315  11.602  0.00  0.00    +0.035 A 
ATOM     26  C   UNL     1     -13.936  -3.828  13.121  0.00  0.00    +0.023 A 
ATOM     29  C   UNL     1     -12.814  -3.677  10.572  0.00  0.00    +0.057 A 
ATOM     30  C   UNL     1     -14.628  -3.190  12.092  0.00  0.00    +0.002 A 
ATOM     32  C   UNL     1     -14.067  -3.115  10.817  0.00  0.00    +0.012 A 
BRANCH  29  35
ATOM      1  F   UNL     1     -12.254  -4.777   8.523  0.00  0.00    -0.166 F 
ATOM      2  F   UNL     1     -12.831  -2.690   8.393  0.00  0.00    -0.166 F 
ATOM      3  F   UNL     1     -10.900  -3.231   9.234  0.00  0.00    -0.166 F 
ATOM     35  C   UNL     1     -12.215  -3.596   9.209  0.00  0.00    +0.417 C 
ENDBRANCH  29  35
ENDBRANCH  13  23
ENDBRANCH  17  12
BRANCH  18   9
ATOM      9  O   UNL     1      -7.428 -10.414  16.292  0.00  0.00    -0.442 OA
BRANCH   9  22
ATOM     11  O   UNL     1      -5.425  -9.335  16.522  0.00  0.00    -0.226 OA
ATOM     14  N   UNL     1      -5.842 -10.784  14.732  0.00  0.00    -0.251 N 
ATOM     22  C   UNL     1      -6.143 -10.104  15.896  0.00  0.00    +0.405 C 
ATOM     39  H   UNL     1      -6.575 -11.382  14.358  0.00  0.00    +0.158 HD
BRANCH  14  24
ATOM     24  C   UNL     1      -4.638 -10.753  13.992  0.00  0.00    +0.037 A 
ATOM     27  C   UNL     1      -4.622 -10.204  12.709  0.00  0.00    +0.035 A 
ATOM     28  C   UNL     1      -3.467 -11.272  14.544  0.00  0.00    +0.023 A 
ATOM     31  C   UNL     1      -3.434 -10.174  11.979  0.00  0.00    +0.057 A 
ATOM     33  C   UNL     1      -2.278 -11.242  13.813  0.00  0.00    +0.002 A 
ATOM     34  C   UNL     1      -2.263 -10.692  12.531  0.00  0.00    +0.012 A 
BRANCH  31  36
ATOM      4  F   UNL     1      -4.333  -8.592  10.427  0.00  0.00    -0.166 F 
ATOM      5  F   UNL     1      -2.216  -9.029  10.268  0.00  0.00    -0.166 F 
ATOM      6  F   UNL     1      -3.678 -10.509   9.638  0.00  0.00    -0.166 F 
ATOM     36  C   UNL     1      -3.415  -9.587  10.608  0.00  0.00    +0.417 C 
ENDBRANCH  31  36
ENDBRANCH  14  24
ENDBRANCH   9  22
ENDBRANCH  18   9
TORSDOF 7
ENDMDL
MODEL 6
REMARK VINA RESULT:      -7.7     25.969     28.521
REMARK  Name = 11883400
REMARK  7 active torsions:
REMARK  status: ('A' for Active; 'I' for Inactive)
REMARK    1  A    between atoms: O_9  and  C_18
REMARK    2  A    between atoms: O_9  and  C_22
REMARK    3  A    between atoms: N_12  and  C_17
REMARK    4  A    between atoms: N_13  and  C_23
REMARK    5  A    between atoms: N_14  and  C_24
REMARK    6  A    between atoms: C_29  and  C_35
REMARK    7  A    between atoms: C_31  and  C_36
REMARK                            x       y       z     vdW  Elec       q    Type
REMARK                         _______ _______ _______ _____ _____    ______ ____
ROOT
ATOM      7  O   UNL     1       4.854  11.178   4.510  0.00  0.00    -0.368 OA
ATOM      8  O   UNL     1       6.168  11.360   1.745  0.00  0.00    -0.368 OA
ATOM     15  C   UNL     1       5.097  10.530   2.242  0.00  0.00    +0.173 C 
ATOM     16  C   UNL     1       5.447  10.171   3.672  0.00  0.00    +0.192 C 
ATOM     17  C   UNL     1       3.829  11.343   2.371  0.00  0.00    +0.131 C 
ATOM     18  C   UNL     1       6.954  10.259   3.672  0.00  0.00    +0.235 C 
ATOM     19  C   UNL     1       4.026  12.034   3.709  0.00  0.00    +0.185 C 
ATOM     20  C   UNL     1       7.205  11.419   2.735  0.00  0.00    +0.207 C 
ENDROOT
BRANCH  17  12
ATOM     10  O   UNL     1       1.174  12.063   1.570  0.00  0.00    -0.252 OA
ATOM     12  N   UNL     1       2.663  10.493   2.386  0.00  0.00    -0.292 N 
ATOM     13  N   UNL     1       0.465   9.889   2.100  0.00  0.00    -0.269 N 
ATOM     21  C   UNL     1       1.395  10.924   1.976  0.00  0.00    +0.304 C 
ATOM     37  H   UNL     1       2.779   9.518   2.645  0.00  0.00    +0.151 HD
ATOM     38  H   UNL     1       0.814   9.002   2.457  0.00  0.00    +0.156 HD
BRANCH  13  23
ATOM     23  C   UNL     1      -0.915   9.920   1.792  0.00  0.00    +0.035 A 
ATOM     25  C   UNL     1      -1.335   9.848   0.463  0.00  0.00    +0.035 A 
ATOM     26  C   UNL     1      -1.856  10.024   2.815  0.00  0.00    +0.023 A 
ATOM     29  C   UNL     1      -2.696   9.880   0.160  0.00  0.00    +0.057 A 
ATOM     30  C   UNL     1      -3.217  10.056   2.513  0.00  0.00    +0.002 A 
ATOM     32  C   UNL     1      -3.637   9.983   1.184  0.00  0.00    +0.012 A 
BRANCH  29  35
ATOM      1  F   UNL     1      -4.220   8.981  -1.450  0.00  0.00    -0.166 F 
ATOM      2  F   UNL     1      -3.522  11.008  -1.780  0.00  0.00    -0.166 F 
ATOM      3  F   UNL     1      -2.173   9.332  -2.095  0.00  0.00    -0.166 F 
ATOM     35  C   UNL     1      -3.145   9.803  -1.260  0.00  0.00    +0.417 C 
ENDBRANCH  29  35
ENDBRANCH  13  23
ENDBRANCH  17  12
BRANCH  18   9
ATOM      9  O   UNL     1       7.506  10.480   4.949  0.00  0.00    -0.442 OA
BRANCH   9  22
ATOM     11  O   UNL     1       9.580   9.942   5.746  0.00  0.00    -0.226 OA
ATOM     14  N   UNL     1       7.967   8.302   5.312  0.00  0.00    -0.251 N 
ATOM     22  C   UNL     1       8.468   9.588   5.376  0.00  0.00    +0.405 C 
ATOM     39  H   UNL     1       7.012   8.208   4.975  0.00  0.00    +0.158 HD
BRANCH  14  24
ATOM     24  C   UNL     1       8.619   7.096   5.654  0.00  0.00    +0.037 A 
ATOM     27  C   UNL     1       8.757   6.733   6.994  0.00  0.00    +0.035 A 
ATOM     28  C   UNL     1       9.127   6.270   4.651  0.00  0.00    +0.023 A 
ATOM     31  C   UNL     1       9.402   5.543   7.331  0.00  0.00    +0.057 A 
ATOM     33  C   UNL     1       9.773   5.079   4.989  0.00  0.00    +0.002 A 
ATOM     34  C   UNL     1       9.909   4.717   6.328  0.00  0.00    +0.012 A 
BRANCH  31  36
ATOM      4  F   UNL     1       8.554   5.637   9.566  0.00  0.00    -0.166 F 
ATOM      5  F   UNL     1       9.544   3.803   8.966  0.00  0.00    -0.166 F 
ATOM      6  F   UNL     1      10.714   5.602   9.313  0.00  0.00    -0.166 F 
ATOM     36  C   UNL     1       9.549   5.154   8.763  0.00  0.00    +0.417 C 
ENDBRANCH  31  36
ENDBRANCH  14  24
ENDBRANCH   9  22
ENDBRANCH  18   9
TORSDOF 7
ENDMDL
MODEL 7
REMARK VINA RESULT:      -7.7     31.001     33.909
REMARK  Name = 11883400
REMARK  7 active torsions:
REMARK  status: ('A' for Active; 'I' for Inactive)
REMARK    1  A    between atoms: O_9  and  C_18
REMARK    2  A    between atoms: O_9  and  C_22
REMARK    3  A    between atoms: N_12  and  C_17
REMARK    4  A    between atoms: N_13  and  C_23
REMARK    5  A    between atoms: N_14  and  C_24
REMARK    6  A    between atoms: C_29  and  C_35
REMARK    7  A    between atoms: C_31  and  C_36
REMARK                            x       y       z     vdW  Elec       q    Type
REMARK                         _______ _______ _______ _____ _____    ______ ____
ROOT
ATOM      7  O   UNL     1      20.655   5.803  23.039  0.00  0.00    -0.368 OA
ATOM      8  O   UNL     1      21.984   7.317  20.726  0.00  0.00    -0.368 OA
ATOM     15  C   UNL     1      20.814   6.474  20.769  0.00  0.00    +0.173 C 
ATOM     16  C   UNL     1      21.113   5.358  21.751  0.00  0.00    +0.192 C 
ATOM     17  C   UNL     1      19.662   7.217  21.405  0.00  0.00    +0.131 C 
ATOM     18  C   UNL     1      22.619   5.267  21.693  0.00  0.00    +0.235 C 
ATOM     19  C   UNL     1      19.945   7.042  22.887  0.00  0.00    +0.185 C 
ATOM     20  C   UNL     1      23.019   6.715  21.517  0.00  0.00    +0.207 C 
ENDROOT
BRANCH  17  12
ATOM     10  O   UNL     1      17.331   8.605  20.483  0.00  0.00    -0.252 OA
ATOM     12  N   UNL     1      18.395   6.630  21.039  0.00  0.00    -0.292 N 
ATOM     13  N   UNL     1      16.217   6.546  20.316  0.00  0.00    -0.269 N 
ATOM     21  C   UNL     1      17.301   7.382  20.596  0.00  0.00    +0.304 C 
ATOM     37  H   UNL     1      18.314   5.617  21.042  0.00  0.00    +0.151 HD
ATOM     38  H   UNL     1      16.358   5.550  20.466  0.00  0.00    +0.156 HD
BRANCH  13  23
ATOM     23  C   UNL     1      14.934   6.916  19.849  0.00  0.00    +0.035 A 
ATOM     25  C   UNL     1      13.839   6.878  20.713  0.00  0.00    +0.035 A 
ATOM     26  C   UNL     1      14.763   7.318  18.525  0.00  0.00    +0.023 A 
ATOM     29  C   UNL     1      12.574   7.242  20.252  0.00  0.00    +0.057 A 
ATOM     30  C   UNL     1      13.499   7.683  18.063  0.00  0.00    +0.002 A 
ATOM     32  C   UNL     1      12.404   7.645  18.927  0.00  0.00    +0.012 A 
BRANCH  29  35
ATOM      1  F   UNL     1      10.306   7.861  20.696  0.00  0.00    -0.166 F 
ATOM      2  F   UNL     1      10.967   5.937  21.449  0.00  0.00    -0.166 F 
ATOM      3  F   UNL     1      11.670   7.769  22.387  0.00  0.00    -0.166 F 
ATOM     35  C   UNL     1      11.403   7.202  21.174  0.00  0.00    +0.417 C 
ENDBRANCH  29  35
ENDBRANCH  13  23
ENDBRANCH  17  12
BRANCH  18   9
ATOM      9  O   UNL     1      23.193   4.695  22.846  0.00  0.00    -0.442 OA
BRANCH   9  22
ATOM     11  O   UNL     1      23.364   2.616  21.908  0.00  0.00    -0.226 OA
ATOM     14  N   UNL     1      23.109   2.905  24.217  0.00  0.00    -0.251 N 
ATOM     22  C   UNL     1      23.234   3.317  22.904  0.00  0.00    +0.405 C 
ATOM     39  H   UNL     1      23.009   3.642  24.911  0.00  0.00    +0.158 HD
BRANCH  14  24
ATOM     24  C   UNL     1      23.100   1.584  24.717  0.00  0.00    +0.037 A 
ATOM     27  C   UNL     1      21.888   0.939  24.965  0.00  0.00    +0.035 A 
ATOM     28  C   UNL     1      24.305   0.925  24.965  0.00  0.00    +0.023 A 
ATOM     31  C   UNL     1      21.881  -0.365  25.461  0.00  0.00    +0.057 A 
ATOM     33  C   UNL     1      24.297  -0.380  25.461  0.00  0.00    +0.002 A 
ATOM     34  C   UNL     1      23.085  -1.024  25.708  0.00  0.00    +0.012 A 
BRANCH  31  36
ATOM      4  F   UNL     1      19.492  -0.333  25.339  0.00  0.00    -0.166 F 
ATOM      5  F   UNL     1      20.464  -2.254  25.083  0.00  0.00    -0.166 F 
ATOM      6  F   UNL     1      20.396  -1.328  27.048  0.00  0.00    -0.166 F 
ATOM     36  C   UNL     1      20.586  -1.055  25.725  0.00  0.00    +0.417 C 
ENDBRANCH  31  36
ENDBRANCH  14  24
ENDBRANCH   9  22
ENDBRANCH  18   9
TORSDOF 7
ENDMDL
MODEL 8
REMARK VINA RESULT:      -7.7     29.258     33.692
REMARK  Name = 11883400
REMARK  7 active torsions:
REMARK  status: ('A' for Active; 'I' for Inactive)
REMARK    1  A    between atoms: O_9  and  C_18
REMARK    2  A    between atoms: O_9  and  C_22
REMARK    3  A    between atoms: N_12  and  C_17
REMARK    4  A    between atoms: N_13  and  C_23
REMARK    5  A    between atoms: N_14  and  C_24
REMARK    6  A    between atoms: C_29  and  C_35
REMARK    7  A    between atoms: C_31  and  C_36
REMARK                            x       y       z     vdW  Elec       q    Type
REMARK                         _______ _______ _______ _____ _____    ______ ____
ROOT
ATOM      7  O   UNL     1      14.985   9.045  18.873  0.00  0.00    -0.368 OA
ATOM      8  O   UNL     1      13.259   6.817  20.085  0.00  0.00    -0.368 OA
ATOM     15  C   UNL     1      14.522   6.776  19.386  0.00  0.00    +0.173 C 
ATOM     16  C   UNL     1      14.459   7.834  18.303  0.00  0.00    +0.192 C 
ATOM     17  C   UNL     1      15.633   7.252  20.294  0.00  0.00    +0.131 C 
ATOM     18  C   UNL     1      12.977   7.940  18.035  0.00  0.00    +0.235 C 
ATOM     19  C   UNL     1      15.521   8.762  20.175  0.00  0.00    +0.185 C 
ATOM     20  C   UNL     1      12.389   7.740  19.414  0.00  0.00    +0.207 C 
ENDROOT
BRANCH  17  12
ATOM     10  O   UNL     1      18.052   7.118  21.824  0.00  0.00    -0.252 OA
ATOM     12  N   UNL     1      16.919   6.782  19.837  0.00  0.00    -0.292 N 
ATOM     13  N   UNL     1      19.150   6.249  19.940  0.00  0.00    -0.269 N 
ATOM     21  C   UNL     1      18.057   6.749  20.652  0.00  0.00    +0.304 C 
ATOM     37  H   UNL     1      16.986   6.397  18.900  0.00  0.00    +0.151 HD
ATOM     38  H   UNL     1      18.984   5.989  18.971  0.00  0.00    +0.156 HD
BRANCH  13  23
ATOM     23  C   UNL     1      20.473   6.059  20.403  0.00  0.00    +0.035 A 
ATOM     25  C   UNL     1      20.913   4.783  20.757  0.00  0.00    +0.035 A 
ATOM     26  C   UNL     1      21.338   7.147  20.507  0.00  0.00    +0.023 A 
ATOM     29  C   UNL     1      22.217   4.596  21.214  0.00  0.00    +0.057 A 
ATOM     30  C   UNL     1      22.643   6.962  20.964  0.00  0.00    +0.002 A 
ATOM     32  C   UNL     1      23.082   5.685  21.317  0.00  0.00    +0.012 A 
BRANCH  29  35
ATOM      1  F   UNL     1      22.151   2.772  22.760  0.00  0.00    -0.166 F 
ATOM      2  F   UNL     1      22.391   2.276  20.663  0.00  0.00    -0.166 F 
ATOM      3  F   UNL     1      24.040   3.171  21.761  0.00  0.00    -0.166 F 
ATOM     35  C   UNL     1      22.687   3.233  21.591  0.00  0.00    +0.417 C 
ENDBRANCH  29  35
ENDBRANCH  13  23
ENDBRANCH  17  12
BRANCH  18   9
ATOM      9  O   UNL     1      12.593   9.172  17.469  0.00  0.00    -0.442 OA
BRANCH   9  22
ATOM     11  O   UNL     1      12.972   8.718  15.260  0.00  0.00    -0.226 OA
ATOM     14  N   UNL     1      13.731  10.696  16.255  0.00  0.00    -0.251 N 
ATOM     22  C   UNL     1      13.098   9.468  16.219  0.00  0.00    +0.405 C 
ATOM     39  H   UNL     1      13.733  11.174  17.153  0.00  0.00    +0.158 HD
BRANCH  14  24
ATOM     24  C   UNL     1      14.382  11.371  15.198  0.00  0.00    +0.037 A 
ATOM     27  C   UNL     1      15.775  11.411  15.148  0.00  0.00    +0.035 A 
ATOM     28  C   UNL     1      13.629  11.999  14.205  0.00  0.00    +0.023 A 
ATOM     31  C   UNL     1      16.416  12.078  14.104  0.00  0.00    +0.057 A 
ATOM     33  C   UNL     1      14.271  12.667  13.161  0.00  0.00    +0.002 A 
ATOM     34  C   UNL     1      15.664  12.705  13.111  0.00  0.00    +0.012 A 
BRANCH  31  36
ATOM      4  F   UNL     1      18.444  13.228  14.639  0.00  0.00    -0.166 F 
ATOM      5  F   UNL     1      18.506  11.061  14.669  0.00  0.00    -0.166 F 
ATOM      6  F   UNL     1      18.385  12.116  12.772  0.00  0.00    -0.166 F 
ATOM     36  C   UNL     1      17.906  12.120  14.049  0.00  0.00    +0.417 C 
ENDBRANCH  31  36
ENDBRANCH  14  24
ENDBRANCH   9  22
ENDBRANCH  18   9
TORSDOF 7
ENDMDL
MODEL 9
REMARK VINA RESULT:      -7.6     15.559     19.005
REMARK  Name = 11883400
REMARK  7 active torsions:
REMARK  status: ('A' for Active; 'I' for Inactive)
REMARK    1  A    between atoms: O_9  and  C_18
REMARK    2  A    between atoms: O_9  and  C_22
REMARK    3  A    between atoms: N_12  and  C_17
REMARK    4  A    between atoms: N_13  and  C_23
REMARK    5  A    between atoms: N_14  and  C_24
REMARK    6  A    between atoms: C_29  and  C_35
REMARK    7  A    between atoms: C_31  and  C_36
REMARK                            x       y       z     vdW  Elec       q    Type
REMARK                         _______ _______ _______ _____ _____    ______ ____
ROOT
ATOM      7  O   UNL     1     -12.273  -6.320  16.082  0.00  0.00    -0.368 OA
ATOM      8  O   UNL     1     -12.096  -8.324  13.767  0.00  0.00    -0.368 OA
ATOM     15  C   UNL     1     -11.097  -7.837  14.688  0.00  0.00    +0.173 C 
ATOM     16  C   UNL     1     -11.407  -6.374  14.936  0.00  0.00    +0.192 C 
ATOM     17  C   UNL     1     -11.282  -8.481  16.042  0.00  0.00    +0.131 C 
ATOM     18  C   UNL     1     -12.126  -5.973  13.671  0.00  0.00    +0.235 C 
ATOM     19  C   UNL     1     -12.382  -7.632  16.655  0.00  0.00    +0.185 C 
ATOM     20  C   UNL     1     -12.911  -7.223  13.341  0.00  0.00    +0.207 C 
ENDROOT
BRANCH  17  12
ATOM     10  O   UNL     1      -9.311 -10.541  16.327  0.00  0.00    -0.252 OA
ATOM     12  N   UNL     1     -10.069  -8.414  16.822  0.00  0.00    -0.292 N 
ATOM     13  N   UNL     1      -8.082  -9.119  17.732  0.00  0.00    -0.269 N 
ATOM     21  C   UNL     1      -9.155  -9.471  16.909  0.00  0.00    +0.304 C 
ATOM     37  H   UNL     1      -9.836  -7.537  17.278  0.00  0.00    +0.151 HD
ATOM     38  H   UNL     1      -8.106  -8.188  18.141  0.00  0.00    +0.156 HD
BRANCH  13  23
ATOM     23  C   UNL     1      -6.956  -9.904  18.073  0.00  0.00    +0.035 A 
ATOM     25  C   UNL     1      -5.945 -10.120  17.135  0.00  0.00    +0.035 A 
ATOM     26  C   UNL     1      -6.855 -10.463  19.346  0.00  0.00    +0.023 A 
ATOM     29  C   UNL     1      -4.835 -10.895  17.472  0.00  0.00    +0.057 A 
ATOM     30  C   UNL     1      -5.746 -11.238  19.684  0.00  0.00    +0.002 A 
ATOM     32  C   UNL     1      -4.736 -11.453  18.746  0.00  0.00    +0.012 A 
BRANCH  29  35
ATOM      1  F   UNL     1      -3.805 -10.271  15.405  0.00  0.00    -0.166 F 
ATOM      2  F   UNL     1      -2.497 -10.984  16.981  0.00  0.00    -0.166 F 
ATOM      3  F   UNL     1      -3.794 -12.380  15.934  0.00  0.00    -0.166 F 
ATOM     35  C   UNL     1      -3.756 -11.125  16.470  0.00  0.00    +0.417 C 
ENDBRANCH  29  35
ENDBRANCH  13  23
ENDBRANCH  17  12
BRANCH  18   9
ATOM      9  O   UNL     1     -12.962  -4.849  13.831  0.00  0.00    -0.442 OA
BRANCH   9  22
ATOM     11  O   UNL     1     -12.061  -3.059  12.729  0.00  0.00    -0.226 OA
ATOM     14  N   UNL     1     -14.028  -4.092  11.992  0.00  0.00    -0.251 N 
ATOM     22  C   UNL     1     -12.939  -3.907  12.823  0.00  0.00    +0.405 C 
ATOM     39  H   UNL     1     -14.653  -4.857  12.235  0.00  0.00    +0.158 HD
BRANCH  14  24
ATOM     24  C   UNL     1     -14.383  -3.349  10.844  0.00  0.00    +0.037 A 
ATOM     27  C   UNL     1     -15.399  -2.396  10.916  0.00  0.00    +0.035 A 
ATOM     28  C   UNL     1     -13.717  -3.570   9.638  0.00  0.00    +0.023 A 
ATOM     31  C   UNL     1     -15.750  -1.664   9.782  0.00  0.00    +0.057 A 
ATOM     33  C   UNL     1     -14.068  -2.837   8.503  0.00  0.00    +0.002 A 
ATOM     34  C   UNL     1     -15.084  -1.884   8.577  0.00  0.00    +0.012 A 
BRANCH  31  36
ATOM      4  F   UNL     1     -16.444   0.530  10.435  0.00  0.00    -0.166 F 
ATOM      5  F   UNL     1     -17.341  -0.290   8.640  0.00  0.00    -0.166 F 
ATOM      6  F   UNL     1     -17.907  -1.071  10.588  0.00  0.00    -0.166 F 
ATOM     36  C   UNL     1     -16.836  -0.644   9.859  0.00  0.00    +0.417 C 
ENDBRANCH  31  36
ENDBRANCH  14  24
ENDBRANCH   9  22
ENDBRANCH  18   9
TORSDOF 7
ENDMDL
MODEL 10
REMARK VINA RESULT:      -7.6     32.289     34.716
REMARK  Name = 11883400
REMARK  7 active torsions:
REMARK  status: ('A' for Active; 'I' for Inactive)
REMARK    1  A    between atoms: O_9  and  C_18
REMARK    2  A    between atoms: O_9  and  C_22
REMARK    3  A    between atoms: N_12  and  C_17
REMARK    4  A    between atoms: N_13  and  C_23
REMARK    5  A    between atoms: N_14  and  C_24
REMARK    6  A    between atoms: C_29  and  C_35
REMARK    7  A    between atoms: C_31  and  C_36
REMARK                            x       y       z     vdW  Elec       q    Type
REMARK                         _______ _______ _______ _____ _____    ______ ____
ROOT
ATOM      7  O   UNL     1      22.188   2.992  25.090  0.00  0.00    -0.368 OA
ATOM      8  O   UNL     1      25.016   2.373  24.076  0.00  0.00    -0.368 OA
ATOM     15  C   UNL     1      23.800   2.703  23.373  0.00  0.00    +0.173 C 
ATOM     16  C   UNL     1      22.664   2.038  24.125  0.00  0.00    +0.192 C 
ATOM     17  C   UNL     1      23.507   4.180  23.507  0.00  0.00    +0.131 C 
ATOM     18  C   UNL     1      23.352   0.868  24.787  0.00  0.00    +0.235 C 
ATOM     19  C   UNL     1      22.839   4.253  24.869  0.00  0.00    +0.185 C 
ATOM     20  C   UNL     1      24.707   1.446  25.127  0.00  0.00    +0.207 C 
ENDROOT
BRANCH  17  12
ATOM     10  O   UNL     1      21.326   6.017  23.787  0.00  0.00    -0.252 OA
ATOM     12  N   UNL     1      22.622   4.634  22.462  0.00  0.00    -0.292 N 
ATOM     13  N   UNL     1      20.891   5.791  21.492  0.00  0.00    -0.269 N 
ATOM     21  C   UNL     1      21.575   5.537  22.684  0.00  0.00    +0.304 C 
ATOM     37  H   UNL     1      22.805   4.335  21.510  0.00  0.00    +0.151 HD
ATOM     38  H   UNL     1      21.226   5.308  20.661  0.00  0.00    +0.156 HD
BRANCH  13  23
ATOM     23  C   UNL     1      19.778   6.642  21.294  0.00  0.00    +0.035 A 
ATOM     25  C   UNL     1      18.665   6.183  20.590  0.00  0.00    +0.035 A 
ATOM     26  C   UNL     1      19.794   7.940  21.803  0.00  0.00    +0.023 A 
ATOM     29  C   UNL     1      17.568   7.022  20.395  0.00  0.00    +0.057 A 
ATOM     30  C   UNL     1      18.698   8.780  21.609  0.00  0.00    +0.002 A 
ATOM     32  C   UNL     1      17.585   8.321  20.904  0.00  0.00    +0.012 A 
BRANCH  29  35
ATOM      1  F   UNL     1      15.446   5.919  20.431  0.00  0.00    -0.166 F 
ATOM      2  F   UNL     1      15.697   7.521  18.991  0.00  0.00    -0.166 F 
ATOM      3  F   UNL     1      16.703   5.618  18.682  0.00  0.00    -0.166 F 
ATOM     35  C   UNL     1      16.378   6.532  19.643  0.00  0.00    +0.417 C 
ENDBRANCH  29  35
ENDBRANCH  13  23
ENDBRANCH  17  12
BRANCH  18   9
ATOM      9  O   UNL     1      22.678   0.391  25.929  0.00  0.00    -0.442 OA
BRANCH   9  22
ATOM     11  O   UNL     1      22.342  -1.857  25.681  0.00  0.00    -0.226 OA
ATOM     14  N   UNL     1      20.556  -0.344  25.714  0.00  0.00    -0.251 N 
ATOM     22  C   UNL     1      21.883  -0.725  25.764  0.00  0.00    +0.405 C 
ATOM     39  H   UNL     1      20.371   0.652  25.801  0.00  0.00    +0.158 HD
BRANCH  14  24
ATOM     24  C   UNL     1      19.420  -1.169  25.554  0.00  0.00    +0.037 A 
ATOM     27  C   UNL     1      18.742  -1.195  24.335  0.00  0.00    +0.035 A 
ATOM     28  C   UNL     1      18.975  -1.955  26.617  0.00  0.00    +0.023 A 
ATOM     31  C   UNL     1      17.620  -2.009  24.179  0.00  0.00    +0.057 A 
ATOM     33  C   UNL     1      17.852  -2.769  26.461  0.00  0.00    +0.002 A 
ATOM     34  C   UNL     1      17.176  -2.795  25.242  0.00  0.00    +0.012 A 
BRANCH  31  36
ATOM      4  F   UNL     1      16.272  -0.862  22.570  0.00  0.00    -0.166 F 
ATOM      5  F   UNL     1      17.704  -2.300  21.807  0.00  0.00    -0.166 F 
ATOM      6  F   UNL     1      15.919  -2.990  22.838  0.00  0.00    -0.166 F 
ATOM     36  C   UNL     1      16.895  -2.038  22.876  0.00  0.00    +0.417 C 
ENDBRANCH  31  36
ENDBRANCH  14  24
ENDBRANCH   9  22
ENDBRANCH  18   9
TORSDOF 7
ENDMDL
