MODEL 1
REMARK VINA RESULT:      -7.9      0.000      0.000
REMARK  Name = 40780078
REMARK  8 active torsions:
REMARK  status: ('A' for Active; 'I' for Inactive)
REMARK    1  A    between atoms: O_5  and  C_19
REMARK    2  A    between atoms: O_5  and  C_24
REMARK    3  A    between atoms: N_8  and  C_22
REMARK    4  A    between atoms: N_10  and  C_28
REMARK    5  A    between atoms: C_12  and  C_18
REMARK    6  A    between atoms: C_13  and  C_19
REMARK    7  A    between atoms: C_21  and  C_23
REMARK    8  A    between atoms: C_31  and  C_34
REMARK                            x       y       z     vdW  Elec       q    Type
REMARK                         _______ _______ _______ _____ _____    ______ ____
ROOT
ATOM      7  N   UNL     1      12.919   6.800  21.012  0.00  0.00    -0.296 NA
ATOM     11  C   UNL     1      11.563   8.904  20.295  0.00  0.00    +0.002 C 
ATOM     12  C   UNL     1      12.118   8.165  19.046  0.00  0.00    +0.055 C 
ATOM     13  C   UNL     1      13.375   7.986  21.783  0.00  0.00    +0.095 C 
ATOM     14  C   UNL     1      12.732   9.276  21.231  0.00  0.00    +0.026 C 
ATOM     15  C   UNL     1      10.677   7.892  21.054  0.00  0.00    +0.019 C 
ATOM     16  C   UNL     1      13.076   7.049  19.557  0.00  0.00    +0.094 C 
ATOM     17  C   UNL     1      11.478   6.600  21.295  0.00  0.00    +0.085 C 
ENDROOT
BRANCH  12  18
ATOM      8  N   UNL     1      12.117   9.246  16.751  0.00  0.00    -0.270 N 
ATOM      9  N   UNL     1      12.838  10.002  15.904  0.00  0.00    -0.171 NA
ATOM     18  C   UNL     1      12.744   8.998  17.936  0.00  0.00    +0.044 A 
ATOM     20  C   UNL     1      13.958   9.635  17.861  0.00  0.00    +0.053 A 
ATOM     21  C   UNL     1      13.961  10.236  16.588  0.00  0.00    +0.100 A 
ATOM     22  C   UNL     1      10.808   8.789  16.347  0.00  0.00    +0.172 C 
BRANCH  21  23
ATOM      1  S   UNL     1      15.651  10.856  14.430  0.00  0.00    -0.095 S 
ATOM     23  C   UNL     1      15.057  11.045  16.025  0.00  0.00    +0.039 A 
ATOM     25  C   UNL     1      15.725  12.036  16.711  0.00  0.00    +0.018 A 
ATOM     26  C   UNL     1      16.737  12.648  15.916  0.00  0.00    +0.008 A 
ATOM     27  C   UNL     1      16.804  12.102  14.654  0.00  0.00    +0.046 A 
ENDBRANCH  21  23
ENDBRANCH  12  18
BRANCH  13  19
ATOM     19  C   UNL     1      14.900   8.090  21.845  0.00  0.00    +0.252 C 
BRANCH  19   5
ATOM      5  O   UNL     1      15.445   6.798  21.663  0.00  0.00    -0.449 OA
BRANCH   5  24
ATOM      6  O   UNL     1      16.707   6.365  19.805  0.00  0.00    -0.226 OA
ATOM     10  N   UNL     1      17.672   7.092  21.810  0.00  0.00    -0.251 N 
ATOM     24  C   UNL     1      16.637   6.719  20.976  0.00  0.00    +0.405 C 
ATOM     35  H   UNL     1      17.413   7.356  22.758  0.00  0.00    +0.158 HD
BRANCH  10  28
ATOM     28  C   UNL     1      19.052   7.153  21.511  0.00  0.00    +0.037 A 
ATOM     29  C   UNL     1      19.791   5.977  21.384  0.00  0.00    +0.035 A 
ATOM     30  C   UNL     1      19.675   8.390  21.343  0.00  0.00    +0.023 A 
ATOM     31  C   UNL     1      21.153   6.037  21.089  0.00  0.00    +0.057 A 
ATOM     32  C   UNL     1      21.037   8.450  21.048  0.00  0.00    +0.002 A 
ATOM     33  C   UNL     1      21.776   7.274  20.921  0.00  0.00    +0.012 A 
BRANCH  31  34
ATOM      2  F   UNL     1      21.168   3.701  20.645  0.00  0.00    -0.166 F 
ATOM      3  F   UNL     1      22.899   4.837  19.978  0.00  0.00    -0.166 F 
ATOM      4  F   UNL     1      22.618   4.434  22.091  0.00  0.00    -0.166 F 
ATOM     34  C   UNL     1      21.944   4.780  20.954  0.00  0.00    +0.417 C 
ENDBRANCH  31  34
ENDBRANCH  10  28
ENDBRANCH   5  24
ENDBRANCH  19   5
ENDBRANCH  13  19
TORSDOF 7
ENDMDL
MODEL 2
REMARK VINA RESULT:      -7.6     27.663     29.705
REMARK  Name = 40780078
REMARK  8 active torsions:
REMARK  status: ('A' for Active; 'I' for Inactive)
REMARK    1  A    between atoms: O_5  and  C_19
REMARK    2  A    between atoms: O_5  and  C_24
REMARK    3  A    between atoms: N_8  and  C_22
REMARK    4  A    between atoms: N_10  and  C_28
REMARK    5  A    between atoms: C_12  and  C_18
REMARK    6  A    between atoms: C_13  and  C_19
REMARK    7  A    between atoms: C_21  and  C_23
REMARK    8  A    between atoms: C_31  and  C_34
REMARK                            x       y       z     vdW  Elec       q    Type
REMARK                         _______ _______ _______ _____ _____    ______ ____
ROOT
ATOM      7  N   UNL     1      -5.161 -10.337  11.369  0.00  0.00    -0.296 NA
ATOM     11  C   UNL     1      -4.524  -8.800   9.365  0.00  0.00    +0.002 C 
ATOM     12  C   UNL     1      -5.512  -9.907   8.907  0.00  0.00    +0.055 C 
ATOM     13  C   UNL     1      -3.684 -10.190  11.290  0.00  0.00    +0.095 C 
ATOM     14  C   UNL     1      -3.277  -9.456   9.994  0.00  0.00    +0.026 C 
ATOM     15  C   UNL     1      -5.233  -8.006  10.484  0.00  0.00    +0.019 C 
ATOM     16  C   UNL     1      -5.684 -10.896  10.096  0.00  0.00    +0.094 C 
ATOM     17  C   UNL     1      -5.743  -8.986  11.555  0.00  0.00    +0.085 C 
ENDROOT
BRANCH  12  18
ATOM      8  N   UNL     1      -5.807 -10.273   6.413  0.00  0.00    -0.270 N 
ATOM      9  N   UNL     1      -5.424 -11.034   5.372  0.00  0.00    -0.171 NA
ATOM     18  C   UNL     1      -5.227 -10.627   7.596  0.00  0.00    +0.044 A 
ATOM     20  C   UNL     1      -4.410 -11.693   7.310  0.00  0.00    +0.053 A 
ATOM     21  C   UNL     1      -4.571 -11.898   5.927  0.00  0.00    +0.100 A 
ATOM     22  C   UNL     1      -6.750  -9.201   6.193  0.00  0.00    +0.172 C 
BRANCH  21  23
ATOM      1  S   UNL     1      -4.725 -14.062   4.140  0.00  0.00    -0.095 S 
ATOM     23  C   UNL     1      -3.895 -12.939   5.132  0.00  0.00    +0.039 A 
ATOM     25  C   UNL     1      -2.531 -13.128   5.095  0.00  0.00    +0.018 A 
ATOM     26  C   UNL     1      -2.162 -14.208   4.242  0.00  0.00    +0.008 A 
ATOM     27  C   UNL     1      -3.258 -14.803   3.659  0.00  0.00    +0.046 A 
ENDBRANCH  21  23
ENDBRANCH  12  18
BRANCH  13  19
ATOM     19  C   UNL     1      -2.956 -11.527  11.441  0.00  0.00    +0.252 C 
BRANCH  19   5
ATOM      5  O   UNL     1      -1.931 -11.372  12.402  0.00  0.00    -0.449 OA
BRANCH   5  24
ATOM      6  O   UNL     1      -1.624  -9.884  14.112  0.00  0.00    -0.226 OA
ATOM     10  N   UNL     1      -3.451 -11.346  14.063  0.00  0.00    -0.251 N 
ATOM     24  C   UNL     1      -2.284 -10.777  13.594  0.00  0.00    +0.405 C 
ATOM     35  H   UNL     1      -3.854 -12.082  13.487  0.00  0.00    +0.158 HD
BRANCH  10  28
ATOM     28  C   UNL     1      -4.157 -11.035  15.247  0.00  0.00    +0.037 A 
ATOM     29  C   UNL     1      -3.811 -11.651  16.448  0.00  0.00    +0.035 A 
ATOM     30  C   UNL     1      -5.202 -10.111  15.212  0.00  0.00    +0.023 A 
ATOM     31  C   UNL     1      -4.508 -11.343  17.616  0.00  0.00    +0.057 A 
ATOM     32  C   UNL     1      -5.899  -9.804  16.380  0.00  0.00    +0.002 A 
ATOM     33  C   UNL     1      -5.553 -10.420  17.583  0.00  0.00    +0.012 A 
BRANCH  31  34
ATOM      2  F   UNL     1      -4.888 -11.560  19.954  0.00  0.00    -0.166 F 
ATOM      3  F   UNL     1      -4.293 -13.359  18.887  0.00  0.00    -0.166 F 
ATOM      4  F   UNL     1      -2.838 -11.797  19.268  0.00  0.00    -0.166 F 
ATOM     34  C   UNL     1      -4.138 -12.002  18.903  0.00  0.00    +0.417 C 
ENDBRANCH  31  34
ENDBRANCH  10  28
ENDBRANCH   5  24
ENDBRANCH  19   5
ENDBRANCH  13  19
TORSDOF 7
ENDMDL
MODEL 3
REMARK VINA RESULT:      -7.4     27.361     29.816
REMARK  Name = 40780078
REMARK  8 active torsions:
REMARK  status: ('A' for Active; 'I' for Inactive)
REMARK    1  A    between atoms: O_5  and  C_19
REMARK    2  A    between atoms: O_5  and  C_24
REMARK    3  A    between atoms: N_8  and  C_22
REMARK    4  A    between atoms: N_10  and  C_28
REMARK    5  A    between atoms: C_12  and  C_18
REMARK    6  A    between atoms: C_13  and  C_19
REMARK    7  A    between atoms: C_21  and  C_23
REMARK    8  A    between atoms: C_31  and  C_34
REMARK                            x       y       z     vdW  Elec       q    Type
REMARK                         _______ _______ _______ _____ _____    ______ ____
ROOT
ATOM      7  N   UNL     1      -9.955  -9.046  15.977  0.00  0.00    -0.296 NA
ATOM     11  C   UNL     1      -9.183 -10.673  17.858  0.00  0.00    +0.002 C 
ATOM     12  C   UNL     1      -8.062  -9.647  17.534  0.00  0.00    +0.055 C 
ATOM     13  C   UNL     1     -10.201 -10.453  15.565  0.00  0.00    +0.095 C 
ATOM     14  C   UNL     1      -9.565 -11.435  16.573  0.00  0.00    +0.026 C 
ATOM     15  C   UNL     1     -10.421  -9.858  18.289  0.00  0.00    +0.019 C 
ATOM     16  C   UNL     1      -8.513  -8.850  16.276  0.00  0.00    +0.094 C 
ATOM     17  C   UNL     1     -10.724  -8.794  17.218  0.00  0.00    +0.085 C 
ENDROOT
BRANCH  12  18
ATOM      8  N   UNL     1      -5.887 -10.545  18.484  0.00  0.00    -0.270 N 
ATOM      9  N   UNL     1      -4.650 -10.964  18.163  0.00  0.00    -0.171 NA
ATOM     18  C   UNL     1      -6.633 -10.158  17.410  0.00  0.00    +0.044 A 
ATOM     20  C   UNL     1      -5.830 -10.336  16.310  0.00  0.00    +0.053 A 
ATOM     21  C   UNL     1      -4.622 -10.834  16.835  0.00  0.00    +0.100 A 
ATOM     22  C   UNL     1      -6.293 -10.545  19.871  0.00  0.00    +0.172 C 
BRANCH  21  23
ATOM      1  S   UNL     1      -3.425 -12.386  14.820  0.00  0.00    -0.095 S 
ATOM     23  C   UNL     1      -3.429 -11.189  16.045  0.00  0.00    +0.039 A 
ATOM     25  C   UNL     1      -2.191 -10.606  16.201  0.00  0.00    +0.018 A 
ATOM     26  C   UNL     1      -1.226 -11.148  15.303  0.00  0.00    +0.008 A 
ATOM     27  C   UNL     1      -1.765 -12.125  14.495  0.00  0.00    +0.046 A 
ENDBRANCH  21  23
ENDBRANCH  12  18
BRANCH  13  19
ATOM     19  C   UNL     1      -9.744 -10.731  14.132  0.00  0.00    +0.252 C 
BRANCH  19   5
ATOM      5  O   UNL     1      -8.636 -11.609  14.178  0.00  0.00    -0.449 OA
BRANCH   5  24
ATOM      6  O   UNL     1      -7.537 -12.556  12.411  0.00  0.00    -0.226 OA
ATOM     10  N   UNL     1      -7.258 -10.300  12.970  0.00  0.00    -0.251 N 
ATOM     24  C   UNL     1      -7.774 -11.574  13.105  0.00  0.00    +0.405 C 
ATOM     35  H   UNL     1      -7.577  -9.613  13.650  0.00  0.00    +0.158 HD
BRANCH  10  28
ATOM     28  C   UNL     1      -6.340  -9.830  12.005  0.00  0.00    +0.037 A 
ATOM     29  C   UNL     1      -4.986 -10.144  12.118  0.00  0.00    +0.035 A 
ATOM     30  C   UNL     1      -6.788  -9.050  10.939  0.00  0.00    +0.023 A 
ATOM     31  C   UNL     1      -4.080  -9.680  11.165  0.00  0.00    +0.057 A 
ATOM     32  C   UNL     1      -5.882  -8.585   9.986  0.00  0.00    +0.002 A 
ATOM     33  C   UNL     1      -4.528  -8.899  10.099  0.00  0.00    +0.012 A 
BRANCH  31  34
ATOM      2  F   UNL     1      -1.856  -9.321  10.402  0.00  0.00    -0.166 F 
ATOM      3  F   UNL     1      -2.109  -9.750  12.519  0.00  0.00    -0.166 F 
ATOM      4  F   UNL     1      -2.355 -11.334  11.057  0.00  0.00    -0.166 F 
ATOM     34  C   UNL     1      -2.632 -10.015  11.285  0.00  0.00    +0.417 C 
ENDBRANCH  31  34
ENDBRANCH  10  28
ENDBRANCH   5  24
ENDBRANCH  19   5
ENDBRANCH  13  19
TORSDOF 7
ENDMDL
MODEL 4
REMARK VINA RESULT:      -7.3     27.778     29.763
REMARK  Name = 40780078
REMARK  8 active torsions:
REMARK  status: ('A' for Active; 'I' for Inactive)
REMARK    1  A    between atoms: O_5  and  C_19
REMARK    2  A    between atoms: O_5  and  C_24
REMARK    3  A    between atoms: N_8  and  C_22
REMARK    4  A    between atoms: N_10  and  C_28
REMARK    5  A    between atoms: C_12  and  C_18
REMARK    6  A    between atoms: C_13  and  C_19
REMARK    7  A    between atoms: C_21  and  C_23
REMARK    8  A    between atoms: C_31  and  C_34
REMARK                            x       y       z     vdW  Elec       q    Type
REMARK                         _______ _______ _______ _____ _____    ______ ____
ROOT
ATOM      7  N   UNL     1      -6.667 -12.556  18.718  0.00  0.00    -0.296 NA
ATOM     11  C   UNL     1      -8.051 -10.408  18.217  0.00  0.00    +0.002 C 
ATOM     12  C   UNL     1      -8.240 -11.452  17.082  0.00  0.00    +0.055 C 
ATOM     13  C   UNL     1      -5.808 -11.352  18.865  0.00  0.00    +0.095 C 
ATOM     14  C   UNL     1      -6.550 -10.090  18.374  0.00  0.00    +0.026 C 
ATOM     15  C   UNL     1      -8.512 -11.084  19.525  0.00  0.00    +0.019 C 
ATOM     16  C   UNL     1      -7.235 -12.611  17.348  0.00  0.00    +0.094 C 
ATOM     17  C   UNL     1      -7.789 -12.434  19.679  0.00  0.00    +0.085 C 
ENDROOT
BRANCH  12  18
ATOM      8  N   UNL     1      -8.810  -9.826  15.219  0.00  0.00    -0.270 N 
ATOM      9  N   UNL     1      -8.647  -9.572  13.909  0.00  0.00    -0.171 NA
ATOM     18  C   UNL     1      -8.191 -10.966  15.640  0.00  0.00    +0.044 A 
ATOM     20  C   UNL     1      -7.579 -11.494  14.530  0.00  0.00    +0.053 A 
ATOM     21  C   UNL     1      -7.894 -10.594  13.494  0.00  0.00    +0.100 A 
ATOM     22  C   UNL     1      -9.589  -8.912  16.023  0.00  0.00    +0.172 C 
BRANCH  21  23
ATOM      1  S   UNL     1      -7.414  -9.405  10.993  0.00  0.00    -0.095 S 
ATOM     23  C   UNL     1      -7.464 -10.720  12.090  0.00  0.00    +0.039 A 
ATOM     25  C   UNL     1      -7.057 -11.897  11.503  0.00  0.00    +0.018 A 
ATOM     26  C   UNL     1      -6.699 -11.719  10.135  0.00  0.00    +0.008 A 
ATOM     27  C   UNL     1      -6.847 -10.411   9.729  0.00  0.00    +0.046 A 
ENDBRANCH  21  23
ENDBRANCH  12  18
BRANCH  13  19
ATOM     19  C   UNL     1      -4.450 -11.517  18.181  0.00  0.00    +0.252 C 
BRANCH  19   5
ATOM      5  O   UNL     1      -4.305 -10.490  17.220  0.00  0.00    -0.449 OA
BRANCH   5  24
ATOM      6  O   UNL     1      -2.295 -10.821  16.180  0.00  0.00    -0.226 OA
ATOM     10  N   UNL     1      -4.323 -10.977  15.022  0.00  0.00    -0.251 N 
ATOM     24  C   UNL     1      -3.518 -10.773  16.125  0.00  0.00    +0.405 C 
ATOM     35  H   UNL     1      -5.325 -10.893  15.176  0.00  0.00    +0.158 HD
BRANCH  10  28
ATOM     28  C   UNL     1      -3.928 -11.289  13.701  0.00  0.00    +0.037 A 
ATOM     29  C   UNL     1      -3.815 -10.277  12.750  0.00  0.00    +0.035 A 
ATOM     30  C   UNL     1      -3.653 -12.611  13.351  0.00  0.00    +0.023 A 
ATOM     31  C   UNL     1      -3.425 -10.584  11.447  0.00  0.00    +0.057 A 
ATOM     32  C   UNL     1      -3.263 -12.919  12.047  0.00  0.00    +0.002 A 
ATOM     33  C   UNL     1      -3.149 -11.906  11.095  0.00  0.00    +0.012 A 
BRANCH  31  34
ATOM      2  F   UNL     1      -2.044  -8.979  10.364  0.00  0.00    -0.166 F 
ATOM      3  F   UNL     1      -3.595  -9.911   9.157  0.00  0.00    -0.166 F 
ATOM      4  F   UNL     1      -4.130  -8.439  10.658  0.00  0.00    -0.166 F 
ATOM     34  C   UNL     1      -3.303  -9.502  10.428  0.00  0.00    +0.417 C 
ENDBRANCH  31  34
ENDBRANCH  10  28
ENDBRANCH   5  24
ENDBRANCH  19   5
ENDBRANCH  13  19
TORSDOF 7
ENDMDL
MODEL 5
REMARK VINA RESULT:      -7.3      1.694      2.191
REMARK  Name = 40780078
REMARK  8 active torsions:
REMARK  status: ('A' for Active; 'I' for Inactive)
REMARK    1  A    between atoms: O_5  and  C_19
REMARK    2  A    between atoms: O_5  and  C_24
REMARK    3  A    between atoms: N_8  and  C_22
REMARK    4  A    between atoms: N_10  and  C_28
REMARK    5  A    between atoms: C_12  and  C_18
REMARK    6  A    between atoms: C_13  and  C_19
REMARK    7  A    between atoms: C_21  and  C_23
REMARK    8  A    between atoms: C_31  and  C_34
REMARK                            x       y       z     vdW  Elec       q    Type
REMARK                         _______ _______ _______ _____ _____    ______ ____
ROOT
ATOM      7  N   UNL     1      12.966   7.110  21.245  0.00  0.00    -0.296 NA
ATOM     11  C   UNL     1      11.394   8.925  20.236  0.00  0.00    +0.002 C 
ATOM     12  C   UNL     1      12.126   8.150  19.105  0.00  0.00    +0.055 C 
ATOM     13  C   UNL     1      13.208   8.418  21.908  0.00  0.00    +0.095 C 
ATOM     14  C   UNL     1      12.438   9.546  21.187  0.00  0.00    +0.026 C 
ATOM     15  C   UNL     1      10.602   7.880  21.050  0.00  0.00    +0.019 C 
ATOM     16  C   UNL     1      13.186   7.235  19.782  0.00  0.00    +0.094 C 
ATOM     17  C   UNL     1      11.548   6.741  21.470  0.00  0.00    +0.085 C 
ENDROOT
BRANCH  12  18
ATOM      8  N   UNL     1      12.053   9.130  16.765  0.00  0.00    -0.270 N 
ATOM      9  N   UNL     1      12.739   9.865  15.871  0.00  0.00    -0.171 NA
ATOM     18  C   UNL     1      12.709   8.949  17.947  0.00  0.00    +0.044 A 
ATOM     20  C   UNL     1      13.906   9.610  17.819  0.00  0.00    +0.053 A 
ATOM     21  C   UNL     1      13.868  10.155  16.521  0.00  0.00    +0.100 A 
ATOM     22  C   UNL     1      10.748   8.626  16.408  0.00  0.00    +0.172 C 
BRANCH  21  23
ATOM      1  S   UNL     1      15.664  12.312  16.666  0.00  0.00    -0.095 S 
ATOM     23  C   UNL     1      14.934  10.964  15.902  0.00  0.00    +0.039 A 
ATOM     25  C   UNL     1      15.459  10.734  14.650  0.00  0.00    +0.018 A 
ATOM     26  C   UNL     1      16.474  11.675  14.313  0.00  0.00    +0.008 A 
ATOM     27  C   UNL     1      16.686  12.589  15.321  0.00  0.00    +0.046 A 
ENDBRANCH  21  23
ENDBRANCH  12  18
BRANCH  13  19
ATOM     19  C   UNL     1      14.698   8.739  22.040  0.00  0.00    +0.252 C 
BRANCH  19   5
ATOM      5  O   UNL     1      15.426   7.531  21.941  0.00  0.00    -0.449 OA
BRANCH   5  24
ATOM      6  O   UNL     1      16.465   7.850  19.928  0.00  0.00    -0.226 OA
ATOM     10  N   UNL     1      17.641   7.147  21.826  0.00  0.00    -0.251 N 
ATOM     24  C   UNL     1      16.526   7.537  21.112  0.00  0.00    +0.405 C 
ATOM     35  H   UNL     1      17.491   6.924  22.807  0.00  0.00    +0.158 HD
BRANCH  10  28
ATOM     28  C   UNL     1      18.970   7.016  21.363  0.00  0.00    +0.037 A 
ATOM     29  C   UNL     1      19.804   8.132  21.310  0.00  0.00    +0.035 A 
ATOM     30  C   UNL     1      19.448   5.769  20.959  0.00  0.00    +0.023 A 
ATOM     31  C   UNL     1      21.115   8.003  20.854  0.00  0.00    +0.057 A 
ATOM     32  C   UNL     1      20.759   5.640  20.502  0.00  0.00    +0.002 A 
ATOM     33  C   UNL     1      21.593   6.756  20.449  0.00  0.00    +0.012 A 
BRANCH  31  34
ATOM      2  F   UNL     1      21.326  10.370  20.938  0.00  0.00    -0.166 F 
ATOM      3  F   UNL     1      22.967   9.210  21.767  0.00  0.00    -0.166 F 
ATOM      4  F   UNL     1      22.692   9.311  19.618  0.00  0.00    -0.166 F 
ATOM     34  C   UNL     1      22.007   9.196  20.796  0.00  0.00    +0.417 C 
ENDBRANCH  31  34
ENDBRANCH  10  28
ENDBRANCH   5  24
ENDBRANCH  19   5
ENDBRANCH  13  19
TORSDOF 7
ENDMDL
MODEL 6
REMARK VINA RESULT:      -7.2     27.699     30.545
REMARK  Name = 40780078
REMARK  8 active torsions:
REMARK  status: ('A' for Active; 'I' for Inactive)
REMARK    1  A    between atoms: O_5  and  C_19
REMARK    2  A    between atoms: O_5  and  C_24
REMARK    3  A    between atoms: N_8  and  C_22
REMARK    4  A    between atoms: N_10  and  C_28
REMARK    5  A    between atoms: C_12  and  C_18
REMARK    6  A    between atoms: C_13  and  C_19
REMARK    7  A    between atoms: C_21  and  C_23
REMARK    8  A    between atoms: C_31  and  C_34
REMARK                            x       y       z     vdW  Elec       q    Type
REMARK                         _______ _______ _______ _____ _____    ______ ____
ROOT
ATOM      7  N   UNL     1      -6.253 -10.453   9.582  0.00  0.00    -0.296 NA
ATOM     11  C   UNL     1      -4.380  -8.957  10.598  0.00  0.00    +0.002 C 
ATOM     12  C   UNL     1      -4.242 -10.419  11.106  0.00  0.00    +0.055 C 
ATOM     13  C   UNL     1      -6.847  -9.222  10.166  0.00  0.00    +0.095 C 
ATOM     14  C   UNL     1      -5.784  -8.424  10.952  0.00  0.00    +0.026 C 
ATOM     15  C   UNL     1      -4.288  -9.010   9.058  0.00  0.00    +0.019 C 
ATOM     16  C   UNL     1      -5.501 -11.197  10.624  0.00  0.00    +0.094 C 
ATOM     17  C   UNL     1      -5.298 -10.042   8.526  0.00  0.00    +0.085 C 
ENDROOT
BRANCH  12  18
ATOM      8  N   UNL     1      -2.705 -10.570  13.120  0.00  0.00    -0.270 N 
ATOM      9  N   UNL     1      -2.666 -10.800  14.444  0.00  0.00    -0.171 NA
ATOM     18  C   UNL     1      -3.957 -10.643  12.585  0.00  0.00    +0.044 A 
ATOM     20  C   UNL     1      -4.796 -10.942  13.630  0.00  0.00    +0.053 A 
ATOM     21  C   UNL     1      -3.946 -11.026  14.749  0.00  0.00    +0.100 A 
ATOM     22  C   UNL     1      -1.476 -10.279  12.419  0.00  0.00    +0.172 C 
BRANCH  21  23
ATOM      1  S   UNL     1      -4.861 -12.885  16.648  0.00  0.00    -0.095 S 
ATOM     23  C   UNL     1      -4.373 -11.328  16.128  0.00  0.00    +0.039 A 
ATOM     25  C   UNL     1      -4.429 -10.402  17.145  0.00  0.00    +0.018 A 
ATOM     26  C   UNL     1      -4.878 -10.977  18.369  0.00  0.00    +0.008 A 
ATOM     27  C   UNL     1      -5.148 -12.321  18.240  0.00  0.00    +0.046 A 
ENDBRANCH  21  23
ENDBRANCH  12  18
BRANCH  13  19
ATOM     19  C   UNL     1      -8.083  -9.516  11.017  0.00  0.00    +0.252 C 
BRANCH  19   5
ATOM      5  O   UNL     1      -7.721  -9.419  12.380  0.00  0.00    -0.449 OA
BRANCH   5  24
ATOM      6  O   UNL     1      -9.740 -10.281  13.024  0.00  0.00    -0.226 OA
ATOM     10  N   UNL     1      -8.341  -9.159  14.529  0.00  0.00    -0.251 N 
ATOM     24  C   UNL     1      -8.710  -9.678  13.304  0.00  0.00    +0.405 C 
ATOM     35  H   UNL     1      -7.440  -8.688  14.564  0.00  0.00    +0.158 HD
BRANCH  10  28
ATOM     28  C   UNL     1      -9.061  -9.201  15.745  0.00  0.00    +0.037 A 
ATOM     29  C   UNL     1      -8.619 -10.011  16.789  0.00  0.00    +0.035 A 
ATOM     30  C   UNL     1     -10.213  -8.431  15.898  0.00  0.00    +0.023 A 
ATOM     31  C   UNL     1      -9.329 -10.052  17.989  0.00  0.00    +0.057 A 
ATOM     32  C   UNL     1     -10.924  -8.472  17.098  0.00  0.00    +0.002 A 
ATOM     33  C   UNL     1     -10.482  -9.282  18.144  0.00  0.00    +0.012 A 
BRANCH  31  34
ATOM      2  F   UNL     1      -8.672 -12.216  18.726  0.00  0.00    -0.166 F 
ATOM      3  F   UNL     1      -7.666 -10.521  19.644  0.00  0.00    -0.166 F 
ATOM      4  F   UNL     1      -9.724 -10.968  20.163  0.00  0.00    -0.166 F 
ATOM     34  C   UNL     1      -8.857 -10.919  19.108  0.00  0.00    +0.417 C 
ENDBRANCH  31  34
ENDBRANCH  10  28
ENDBRANCH   5  24
ENDBRANCH  19   5
ENDBRANCH  13  19
TORSDOF 7
ENDMDL
MODEL 7
REMARK VINA RESULT:      -7.2     27.898     31.390
REMARK  Name = 40780078
REMARK  8 active torsions:
REMARK  status: ('A' for Active; 'I' for Inactive)
REMARK    1  A    between atoms: O_5  and  C_19
REMARK    2  A    between atoms: O_5  and  C_24
REMARK    3  A    between atoms: N_8  and  C_22
REMARK    4  A    between atoms: N_10  and  C_28
REMARK    5  A    between atoms: C_12  and  C_18
REMARK    6  A    between atoms: C_13  and  C_19
REMARK    7  A    between atoms: C_21  and  C_23
REMARK    8  A    between atoms: C_31  and  C_34
REMARK                            x       y       z     vdW  Elec       q    Type
REMARK                         _______ _______ _______ _____ _____    ______ ____
ROOT
ATOM      7  N   UNL     1      -5.475 -10.493  18.036  0.00  0.00    -0.296 NA
ATOM     11  C   UNL     1      -5.046 -12.488  16.418  0.00  0.00    +0.002 C 
ATOM     12  C   UNL     1      -3.968 -11.386  16.219  0.00  0.00    +0.055 C 
ATOM     13  C   UNL     1      -6.726 -10.839  17.313  0.00  0.00    +0.095 C 
ATOM     14  C   UNL     1      -6.447 -11.877  16.204  0.00  0.00    +0.026 C 
ATOM     15  C   UNL     1      -4.963 -12.930  17.895  0.00  0.00    +0.019 C 
ATOM     16  C   UNL     1      -4.404 -10.155  17.065  0.00  0.00    +0.094 C 
ATOM     17  C   UNL     1      -5.046 -11.689  18.800  0.00  0.00    +0.085 C 
ENDROOT
BRANCH  12  18
ATOM      8  N   UNL     1      -2.339 -10.570  14.453  0.00  0.00    -0.270 N 
ATOM      9  N   UNL     1      -2.205 -10.280  13.147  0.00  0.00    -0.171 NA
ATOM     18  C   UNL     1      -3.586 -11.002  14.797  0.00  0.00    +0.044 A 
ATOM     20  C   UNL     1      -4.319 -10.996  13.635  0.00  0.00    +0.053 A 
ATOM     21  C   UNL     1      -3.418 -10.543  12.654  0.00  0.00    +0.100 A 
ATOM     22  C   UNL     1      -1.204 -10.405  15.331  0.00  0.00    +0.172 C 
BRANCH  21  23
ATOM      1  S   UNL     1      -4.269 -11.629  10.206  0.00  0.00    -0.095 S 
ATOM     23  C   UNL     1      -3.729 -10.363  11.224  0.00  0.00    +0.039 A 
ATOM     25  C   UNL     1      -3.621  -9.167  10.548  0.00  0.00    +0.018 A 
ATOM     26  C   UNL     1      -3.987  -9.292   9.177  0.00  0.00    +0.008 A 
ATOM     27  C   UNL     1      -4.360 -10.578   8.857  0.00  0.00    +0.046 A 
ENDBRANCH  21  23
ENDBRANCH  12  18
BRANCH  13  19
ATOM     19  C   UNL     1      -7.447  -9.604  16.769  0.00  0.00    +0.252 C 
BRANCH  19   5
ATOM      5  O   UNL     1      -8.349  -9.142  17.755  0.00  0.00    -0.449 OA
BRANCH   5  24
ATOM      6  O   UNL     1     -10.188 -10.248  16.965  0.00  0.00    -0.226 OA
ATOM     10  N   UNL     1      -9.766 -10.040  19.258  0.00  0.00    -0.251 N 
ATOM     24  C   UNL     1      -9.516  -9.858  17.912  0.00  0.00    +0.405 C 
ATOM     35  H   UNL     1      -9.085  -9.638  19.899  0.00  0.00    +0.158 HD
BRANCH  10  28
ATOM     28  C   UNL     1     -10.852 -10.715  19.858  0.00  0.00    +0.037 A 
ATOM     29  C   UNL     1     -12.074 -10.063  20.024  0.00  0.00    +0.035 A 
ATOM     30  C   UNL     1     -10.702 -12.034  20.286  0.00  0.00    +0.023 A 
ATOM     31  C   UNL     1     -13.146 -10.730  20.616  0.00  0.00    +0.057 A 
ATOM     32  C   UNL     1     -11.774 -12.700  20.879  0.00  0.00    +0.002 A 
ATOM     33  C   UNL     1     -12.997 -12.049  21.044  0.00  0.00    +0.012 A 
BRANCH  31  34
ATOM      2  F   UNL     1     -15.250 -10.121  19.689  0.00  0.00    -0.166 F 
ATOM      3  F   UNL     1     -15.200 -10.526  21.825  0.00  0.00    -0.166 F 
ATOM      4  F   UNL     1     -14.330  -8.697  21.051  0.00  0.00    -0.166 F 
ATOM     34  C   UNL     1     -14.453 -10.033  20.793  0.00  0.00    +0.417 C 
ENDBRANCH  31  34
ENDBRANCH  10  28
ENDBRANCH   5  24
ENDBRANCH  19   5
ENDBRANCH  13  19
TORSDOF 7
ENDMDL
MODEL 8
REMARK VINA RESULT:      -7.1     27.848     32.029
REMARK  Name = 40780078
REMARK  8 active torsions:
REMARK  status: ('A' for Active; 'I' for Inactive)
REMARK    1  A    between atoms: O_5  and  C_19
REMARK    2  A    between atoms: O_5  and  C_24
REMARK    3  A    between atoms: N_8  and  C_22
REMARK    4  A    between atoms: N_10  and  C_28
REMARK    5  A    between atoms: C_12  and  C_18
REMARK    6  A    between atoms: C_13  and  C_19
REMARK    7  A    between atoms: C_21  and  C_23
REMARK    8  A    between atoms: C_31  and  C_34
REMARK                            x       y       z     vdW  Elec       q    Type
REMARK                         _______ _______ _______ _____ _____    ______ ____
ROOT
ATOM      7  N   UNL     1     -17.012   5.288  23.538  0.00  0.00    -0.296 NA
ATOM     11  C   UNL     1     -17.611   3.132  24.870  0.00  0.00    +0.002 C 
ATOM     12  C   UNL     1     -17.599   4.367  25.813  0.00  0.00    +0.055 C 
ATOM     13  C   UNL     1     -16.022   4.218  23.245  0.00  0.00    +0.095 C 
ATOM     14  C   UNL     1     -16.238   3.006  24.177  0.00  0.00    +0.026 C 
ATOM     15  C   UNL     1     -18.652   3.422  23.768  0.00  0.00    +0.019 C 
ATOM     16  C   UNL     1     -17.041   5.567  24.995  0.00  0.00    +0.094 C 
ATOM     17  C   UNL     1     -18.350   4.792  23.135  0.00  0.00    +0.085 C 
ENDROOT
BRANCH  12  18
ATOM      8  N   UNL     1     -17.050   5.160  28.160  0.00  0.00    -0.270 N 
ATOM      9  N   UNL     1     -16.375   4.853  29.282  0.00  0.00    -0.171 NA
ATOM     18  C   UNL     1     -16.924   4.230  27.170  0.00  0.00    +0.044 A 
ATOM     20  C   UNL     1     -16.112   3.247  27.679  0.00  0.00    +0.053 A 
ATOM     21  C   UNL     1     -15.805   3.684  28.981  0.00  0.00    +0.100 A 
ATOM     22  C   UNL     1     -17.811   6.387  28.109  0.00  0.00    +0.172 C 
BRANCH  21  23
ATOM      1  S   UNL     1     -14.253   3.705  31.325  0.00  0.00    -0.095 S 
ATOM     23  C   UNL     1     -14.953   2.966  29.947  0.00  0.00    +0.039 A 
ATOM     25  C   UNL     1     -14.625   1.632  29.854  0.00  0.00    +0.018 A 
ATOM     26  C   UNL     1     -13.787   1.210  30.927  0.00  0.00    +0.008 A 
ATOM     27  C   UNL     1     -13.508   2.238  31.799  0.00  0.00    +0.046 A 
ENDBRANCH  21  23
ENDBRANCH  12  18
BRANCH  13  19
ATOM     19  C   UNL     1     -14.581   4.726  23.296  0.00  0.00    +0.252 C 
BRANCH  19   5
ATOM      5  O   UNL     1     -14.048   4.692  21.986  0.00  0.00    -0.449 OA
BRANCH   5  24
ATOM      6  O   UNL     1     -15.063   6.364  20.802  0.00  0.00    -0.226 OA
ATOM     10  N   UNL     1     -12.763   6.382  21.237  0.00  0.00    -0.251 N 
ATOM     24  C   UNL     1     -14.048   5.878  21.286  0.00  0.00    +0.405 C 
ATOM     35  H   UNL     1     -12.046   5.829  21.702  0.00  0.00    +0.158 HD
BRANCH  10  28
ATOM     28  C   UNL     1     -12.318   7.572  20.619  0.00  0.00    +0.037 A 
ATOM     29  C   UNL     1     -11.703   7.521  19.368  0.00  0.00    +0.035 A 
ATOM     30  C   UNL     1     -12.493   8.798  21.261  0.00  0.00    +0.023 A 
ATOM     31  C   UNL     1     -11.264   8.696  18.758  0.00  0.00    +0.057 A 
ATOM     32  C   UNL     1     -12.053   9.973  20.651  0.00  0.00    +0.002 A 
ATOM     33  C   UNL     1     -11.438   9.923  19.400  0.00  0.00    +0.012 A 
BRANCH  31  34
ATOM      2  F   UNL     1     -10.215   7.381  17.077  0.00  0.00    -0.166 F 
ATOM      3  F   UNL     1     -11.407   9.070  16.400  0.00  0.00    -0.166 F 
ATOM      4  F   UNL     1      -9.480   9.412  17.334  0.00  0.00    -0.166 F 
ATOM     34  C   UNL     1     -10.607   8.643  17.421  0.00  0.00    +0.417 C 
ENDBRANCH  31  34
ENDBRANCH  10  28
ENDBRANCH   5  24
ENDBRANCH  19   5
ENDBRANCH  13  19
TORSDOF 7
ENDMDL
MODEL 9
REMARK VINA RESULT:      -7.1     27.994     31.131
REMARK  Name = 40780078
REMARK  8 active torsions:
REMARK  status: ('A' for Active; 'I' for Inactive)
REMARK    1  A    between atoms: O_5  and  C_19
REMARK    2  A    between atoms: O_5  and  C_24
REMARK    3  A    between atoms: N_8  and  C_22
REMARK    4  A    between atoms: N_10  and  C_28
REMARK    5  A    between atoms: C_12  and  C_18
REMARK    6  A    between atoms: C_13  and  C_19
REMARK    7  A    between atoms: C_21  and  C_23
REMARK    8  A    between atoms: C_31  and  C_34
REMARK                            x       y       z     vdW  Elec       q    Type
REMARK                         _______ _______ _______ _____ _____    ______ ____
ROOT
ATOM      7  N   UNL     1      -6.457 -10.464  17.840  0.00  0.00    -0.296 NA
ATOM     11  C   UNL     1      -4.480 -12.062  17.274  0.00  0.00    +0.002 C 
ATOM     12  C   UNL     1      -4.266 -10.675  16.607  0.00  0.00    +0.055 C 
ATOM     13  C   UNL     1      -6.980 -11.765  17.345  0.00  0.00    +0.095 C 
ATOM     14  C   UNL     1      -5.831 -12.647  16.812  0.00  0.00    +0.026 C 
ATOM     15  C   UNL     1      -4.589 -11.813  18.794  0.00  0.00    +0.019 C 
ATOM     16  C   UNL     1      -5.569  -9.853  16.819  0.00  0.00    +0.094 C 
ATOM     17  C   UNL     1      -5.651 -10.731  19.055  0.00  0.00    +0.085 C 
ENDROOT
BRANCH  12  18
ATOM      8  N   UNL     1      -2.470 -10.610  14.815  0.00  0.00    -0.270 N 
ATOM      9  N   UNL     1      -2.259 -10.578  13.487  0.00  0.00    -0.171 NA
ATOM     18  C   UNL     1      -3.789 -10.638  15.162  0.00  0.00    +0.044 A 
ATOM     20  C   UNL     1      -4.489 -10.624  13.981  0.00  0.00    +0.053 A 
ATOM     21  C   UNL     1      -3.496 -10.588  12.984  0.00  0.00    +0.100 A 
ATOM     22  C   UNL     1      -1.336 -10.612  15.709  0.00  0.00    +0.172 C 
BRANCH  21  23
ATOM      1  S   UNL     1      -3.829 -11.971  10.561  0.00  0.00    -0.095 S 
ATOM     23  C   UNL     1      -3.742 -10.562  11.531  0.00  0.00    +0.039 A 
ATOM     25  C   UNL     1      -3.928  -9.415  10.792  0.00  0.00    +0.018 A 
ATOM     26  C   UNL     1      -4.145  -9.695   9.412  0.00  0.00    +0.008 A 
ATOM     27  C   UNL     1      -4.116 -11.046   9.148  0.00  0.00    +0.046 A 
ENDBRANCH  21  23
ENDBRANCH  12  18
BRANCH  13  19
ATOM     19  C   UNL     1      -8.093 -11.591  16.310  0.00  0.00    +0.252 C 
BRANCH  19   5
ATOM      5  O   UNL     1      -9.337 -11.626  16.982  0.00  0.00    -0.449 OA
BRANCH   5  24
ATOM      6  O   UNL     1      -9.940  -9.988  18.460  0.00  0.00    -0.226 OA
ATOM     10  N   UNL     1     -10.375  -9.801  16.167  0.00  0.00    -0.251 N 
ATOM     24  C   UNL     1      -9.898 -10.411  17.311  0.00  0.00    +0.405 C 
ATOM     35  H   UNL     1     -10.246 -10.314  15.298  0.00  0.00    +0.158 HD
BRANCH  10  28
ATOM     28  C   UNL     1     -11.021  -8.549  16.053  0.00  0.00    +0.037 A 
ATOM     29  C   UNL     1     -12.412  -8.485  15.994  0.00  0.00    +0.035 A 
ATOM     30  C   UNL     1     -10.266  -7.377  15.999  0.00  0.00    +0.023 A 
ATOM     31  C   UNL     1     -13.050  -7.250  15.882  0.00  0.00    +0.057 A 
ATOM     32  C   UNL     1     -10.903  -6.142  15.885  0.00  0.00    +0.002 A 
ATOM     33  C   UNL     1     -12.296  -6.078  15.827  0.00  0.00    +0.012 A 
BRANCH  31  34
ATOM      2  F   UNL     1     -14.987  -6.500  14.724  0.00  0.00    -0.166 F 
ATOM      3  F   UNL     1     -15.142  -8.404  15.762  0.00  0.00    -0.166 F 
ATOM      4  F   UNL     1     -15.103  -6.555  16.895  0.00  0.00    -0.166 F 
ATOM     34  C   UNL     1     -14.538  -7.180  15.819  0.00  0.00    +0.417 C 
ENDBRANCH  31  34
ENDBRANCH  10  28
ENDBRANCH   5  24
ENDBRANCH  19   5
ENDBRANCH  13  19
TORSDOF 7
ENDMDL
MODEL 10
REMARK VINA RESULT:      -7.0     27.919     29.945
REMARK  Name = 40780078
REMARK  8 active torsions:
REMARK  status: ('A' for Active; 'I' for Inactive)
REMARK    1  A    between atoms: O_5  and  C_19
REMARK    2  A    between atoms: O_5  and  C_24
REMARK    3  A    between atoms: N_8  and  C_22
REMARK    4  A    between atoms: N_10  and  C_28
REMARK    5  A    between atoms: C_12  and  C_18
REMARK    6  A    between atoms: C_13  and  C_19
REMARK    7  A    between atoms: C_21  and  C_23
REMARK    8  A    between atoms: C_31  and  C_34
REMARK                            x       y       z     vdW  Elec       q    Type
REMARK                         _______ _______ _______ _____ _____    ______ ____
ROOT
ATOM      7  N   UNL     1      -3.898  -9.040  10.327  0.00  0.00    -0.296 NA
ATOM     11  C   UNL     1      -5.834 -10.761  10.059  0.00  0.00    +0.002 C 
ATOM     12  C   UNL     1      -6.303  -9.544  10.903  0.00  0.00    +0.055 C 
ATOM     13  C   UNL     1      -3.419 -10.403  10.679  0.00  0.00    +0.095 C 
ATOM     14  C   UNL     1      -4.598 -11.400  10.726  0.00  0.00    +0.026 C 
ATOM     15  C   UNL     1      -5.378 -10.206   8.693  0.00  0.00    +0.019 C 
ATOM     16  C   UNL     1      -5.048  -8.668  11.189  0.00  0.00    +0.094 C 
ATOM     17  C   UNL     1      -4.364  -9.071   8.920  0.00  0.00    +0.085 C 
ENDROOT
BRANCH  12  18
ATOM      8  N   UNL     1      -8.481  -9.844  12.171  0.00  0.00    -0.270 N 
ATOM      9  N   UNL     1      -9.009 -10.095  13.381  0.00  0.00    -0.171 NA
ATOM     18  C   UNL     1      -7.117  -9.812  12.161  0.00  0.00    +0.044 A 
ATOM     20  C   UNL     1      -6.726 -10.059  13.454  0.00  0.00    +0.053 A 
ATOM     21  C   UNL     1      -7.932 -10.226  14.160  0.00  0.00    +0.100 A 
ATOM     22  C   UNL     1      -9.363  -9.642  11.045  0.00  0.00    +0.172 C 
BRANCH  21  23
ATOM      1  S   UNL     1      -7.788  -9.346  16.825  0.00  0.00    -0.095 S 
ATOM     23  C   UNL     1      -8.048 -10.515  15.601  0.00  0.00    +0.039 A 
ATOM     25  C   UNL     1      -8.374 -11.747  16.124  0.00  0.00    +0.018 A 
ATOM     26  C   UNL     1      -8.412 -11.731  17.549  0.00  0.00    +0.008 A 
ATOM     27  C   UNL     1      -8.112 -10.487  18.059  0.00  0.00    +0.046 A 
ENDBRANCH  21  23
ENDBRANCH  12  18
BRANCH  13  19
ATOM     19  C   UNL     1      -2.606 -10.420  11.974  0.00  0.00    +0.252 C 
BRANCH  19   5
ATOM      5  O   UNL     1      -2.034 -11.704  12.126  0.00  0.00    -0.449 OA
BRANCH   5  24
ATOM      6  O   UNL     1      -1.290 -12.871  13.947  0.00  0.00    -0.226 OA
ATOM     10  N   UNL     1      -3.523 -12.199  13.741  0.00  0.00    -0.251 N 
ATOM     24  C   UNL     1      -2.205 -12.318  13.348  0.00  0.00    +0.405 C 
ATOM     35  H   UNL     1      -4.138 -11.700  13.102  0.00  0.00    +0.158 HD
BRANCH  10  28
ATOM     28  C   UNL     1      -4.126 -12.684  14.923  0.00  0.00    +0.037 A 
ATOM     29  C   UNL     1      -4.055 -11.938  16.099  0.00  0.00    +0.035 A 
ATOM     30  C   UNL     1      -4.792 -13.910  14.913  0.00  0.00    +0.023 A 
ATOM     31  C   UNL     1      -4.651 -12.417  17.266  0.00  0.00    +0.057 A 
ATOM     32  C   UNL     1      -5.387 -14.389  16.080  0.00  0.00    +0.002 A 
ATOM     33  C   UNL     1      -5.317 -13.643  17.257  0.00  0.00    +0.012 A 
BRANCH  31  34
ATOM      2  F   UNL     1      -5.495 -12.016  19.453  0.00  0.00    -0.166 F 
ATOM      3  F   UNL     1      -3.365 -11.700  19.151  0.00  0.00    -0.166 F 
ATOM      4  F   UNL     1      -4.794 -10.284  18.340  0.00  0.00    -0.166 F 
ATOM     34  C   UNL     1      -4.576 -11.620  18.525  0.00  0.00    +0.417 C 
ENDBRANCH  31  34
ENDBRANCH  10  28
ENDBRANCH   5  24
ENDBRANCH  19   5
ENDBRANCH  13  19
TORSDOF 7
ENDMDL
