MODEL 1
REMARK VINA RESULT:      -7.2      0.000      0.000
REMARK  Name = 38029578
REMARK  11 active torsions:
REMARK  status: ('A' for Active; 'I' for Inactive)
REMARK    1  A    between atoms: S_1  and  N_7
REMARK    2  A    between atoms: S_1  and  C_21
REMARK    3  A    between atoms: O_3  and  C_20
REMARK    4  A    between atoms: N_7  and  C_15
REMARK    5  A    between atoms: C_8  and  C_12
REMARK    6  A    between atoms: C_9  and  C_15
REMARK    7  A    between atoms: C_11  and  C_16
REMARK    8  A    between atoms: C_12  and  C_17
REMARK    9  A    between atoms: C_12  and  C_18
REMARK   10  A    between atoms: C_13  and  C_19
REMARK   11  A    between atoms: C_16  and  C_20
REMARK                            x       y       z     vdW  Elec       q    Type
REMARK                         _______ _______ _______ _____ _____    ______ ____
ROOT
ATOM      8  C   UNL     1      12.918   9.238  19.049  0.00  0.00    +0.000 C 
ATOM      9  C   UNL     1      13.205  10.697  19.487  0.00  0.00    +0.030 C 
ATOM     10  C   UNL     1      11.468   8.854  19.382  0.00  0.00    +0.012 C 
ATOM     11  C   UNL     1      11.161   8.983  20.886  0.00  0.00    +0.025 C 
ATOM     13  C   UNL     1      11.660  10.297  21.453  0.00  0.00    -0.073 C 
ATOM     14  C   UNL     1      12.564  11.056  20.806  0.00  0.00    -0.023 C 
ATOM     19  C   UNL     1      11.063  10.742  22.758  0.00  0.00    +0.039 C 
ENDROOT
BRANCH   8  12
ATOM     12  C   UNL     1      13.180   9.030  17.555  0.00  0.00    -0.013 C 
ATOM     17  C   UNL     1      11.869   9.062  16.776  0.00  0.00    +0.007 C 
ATOM     18  C   UNL     1      13.916   7.714  17.321  0.00  0.00    +0.007 C 
ENDBRANCH   8  12
BRANCH   9  15
ATOM     15  C   UNL     1      14.713  10.964  19.561  0.00  0.00    +0.113 C 
BRANCH  15   7
ATOM      7  N   UNL     1      15.412   9.701  19.845  0.00  0.00    -0.189 NA
ATOM     27  H   UNL     1      15.109   8.883  19.302  0.00  0.00    +0.148 HD
BRANCH   7   1
ATOM      1  S   UNL     1      16.064   9.411  21.392  0.00  0.00    +0.059 S 
ATOM      5  O   UNL     1      15.039   8.839  22.244  0.00  0.00    -0.153 OA
ATOM      6  O   UNL     1      16.803  10.582  21.824  0.00  0.00    -0.153 OA
BRANCH   1  21
ATOM      2  F   UNL     1      17.672   5.265  18.870  0.00  0.00    -0.205 F 
ATOM     21  C   UNL     1      17.253   8.148  21.050  0.00  0.00    +0.108 A 
ATOM     22  C   UNL     1      16.988   7.186  20.075  0.00  0.00    +0.066 A 
ATOM     23  C   UNL     1      18.457   8.112  21.755  0.00  0.00    +0.029 A 
ATOM     24  C   UNL     1      17.926   6.189  19.806  0.00  0.00    +0.125 A 
ATOM     25  C   UNL     1      19.394   7.116  21.486  0.00  0.00    +0.005 A 
ATOM     26  C   UNL     1      19.129   6.154  20.511  0.00  0.00    +0.038 A 
ENDBRANCH   1  21
ENDBRANCH   7   1
ENDBRANCH  15   7
ENDBRANCH   9  15
BRANCH  11  16
ATOM     16  C   UNL     1      11.731   7.796  21.669  0.00  0.00    +0.128 C 
BRANCH  16  20
ATOM      4  O   UNL     1      11.063   5.480  21.307  0.00  0.00    -0.251 OA
ATOM     20  C   UNL     1      10.795   6.622  21.650  0.00  0.00    +0.305 C 
BRANCH  20   3
ATOM      3  O   UNL     1       9.567   7.012  22.082  0.00  0.00    -0.481 OA
ATOM     28  H   UNL     1       8.868   6.381  21.811  0.00  0.00    +0.295 HD
ENDBRANCH  20   3
ENDBRANCH  16  20
ENDBRANCH  11  16
TORSDOF 8
ENDMDL
MODEL 2
REMARK VINA RESULT:      -6.7      2.564      5.069
REMARK  Name = 38029578
REMARK  11 active torsions:
REMARK  status: ('A' for Active; 'I' for Inactive)
REMARK    1  A    between atoms: S_1  and  N_7
REMARK    2  A    between atoms: S_1  and  C_21
REMARK    3  A    between atoms: O_3  and  C_20
REMARK    4  A    between atoms: N_7  and  C_15
REMARK    5  A    between atoms: C_8  and  C_12
REMARK    6  A    between atoms: C_9  and  C_15
REMARK    7  A    between atoms: C_11  and  C_16
REMARK    8  A    between atoms: C_12  and  C_17
REMARK    9  A    between atoms: C_12  and  C_18
REMARK   10  A    between atoms: C_13  and  C_19
REMARK   11  A    between atoms: C_16  and  C_20
REMARK                            x       y       z     vdW  Elec       q    Type
REMARK                         _______ _______ _______ _____ _____    ______ ____
ROOT
ATOM      8  C   UNL     1      15.265   7.674  20.196  0.00  0.00    +0.000 C 
ATOM      9  C   UNL     1      15.065   8.986  19.395  0.00  0.00    +0.030 C 
ATOM     10  C   UNL     1      14.239   6.618  19.760  0.00  0.00    +0.012 C 
ATOM     11  C   UNL     1      12.788   7.096  19.961  0.00  0.00    +0.025 C 
ATOM     13  C   UNL     1      12.580   8.501  19.432  0.00  0.00    -0.073 C 
ATOM     14  C   UNL     1      13.610   9.326  19.172  0.00  0.00    -0.023 C 
ATOM     19  C   UNL     1      11.162   8.920  19.165  0.00  0.00    +0.039 C 
ENDROOT
BRANCH   8  12
ATOM     12  C   UNL     1      16.684   7.119  20.032  0.00  0.00    -0.013 C 
ATOM     17  C   UNL     1      16.703   6.012  18.983  0.00  0.00    +0.007 C 
ATOM     18  C   UNL     1      17.213   6.607  21.368  0.00  0.00    +0.007 C 
ENDBRANCH   8  12
BRANCH   9  15
ATOM     15  C   UNL     1      15.766  10.164  20.080  0.00  0.00    +0.113 C 
BRANCH  15   7
ATOM      7  N   UNL     1      15.247  10.302  21.450  0.00  0.00    -0.189 NA
ATOM     27  H   UNL     1      14.685   9.518  21.803  0.00  0.00    +0.148 HD
BRANCH   7   1
ATOM      1  S   UNL     1      14.921  11.846  22.092  0.00  0.00    +0.059 S 
ATOM      5  O   UNL     1      14.627  12.763  21.007  0.00  0.00    -0.153 OA
ATOM      6  O   UNL     1      15.936  12.178  23.073  0.00  0.00    -0.153 OA
BRANCH   1  21
ATOM      2  F   UNL     1      10.233   9.857  22.543  0.00  0.00    -0.205 F 
ATOM     21  C   UNL     1      13.420  11.556  22.981  0.00  0.00    +0.108 A 
ATOM     22  C   UNL     1      12.399  10.805  22.399  0.00  0.00    +0.066 A 
ATOM     23  C   UNL     1      13.257  12.078  24.265  0.00  0.00    +0.029 A 
ATOM     24  C   UNL     1      11.214  10.577  23.101  0.00  0.00    +0.125 A 
ATOM     25  C   UNL     1      12.074  11.851  24.965  0.00  0.00    +0.005 A 
ATOM     26  C   UNL     1      11.053  11.100  24.384  0.00  0.00    +0.038 A 
ENDBRANCH   1  21
ENDBRANCH   7   1
ENDBRANCH  15   7
ENDBRANCH   9  15
BRANCH  11  16
ATOM     16  C   UNL     1      12.374   6.996  21.433  0.00  0.00    +0.128 C 
BRANCH  16  20
ATOM      4  O   UNL     1      11.046   4.959  21.585  0.00  0.00    -0.251 OA
ATOM     20  C   UNL     1      11.126   6.178  21.599  0.00  0.00    +0.305 C 
BRANCH  20   3
ATOM      3  O   UNL     1      10.061   7.002  21.777  0.00  0.00    -0.481 OA
ATOM     28  H   UNL     1      10.159   7.559  22.578  0.00  0.00    +0.295 HD
ENDBRANCH  20   3
ENDBRANCH  16  20
ENDBRANCH  11  16
TORSDOF 8
ENDMDL
MODEL 3
REMARK VINA RESULT:      -6.3     16.565     19.355
REMARK  Name = 38029578
REMARK  11 active torsions:
REMARK  status: ('A' for Active; 'I' for Inactive)
REMARK    1  A    between atoms: S_1  and  N_7
REMARK    2  A    between atoms: S_1  and  C_21
REMARK    3  A    between atoms: O_3  and  C_20
REMARK    4  A    between atoms: N_7  and  C_15
REMARK    5  A    between atoms: C_8  and  C_12
REMARK    6  A    between atoms: C_9  and  C_15
REMARK    7  A    between atoms: C_11  and  C_16
REMARK    8  A    between atoms: C_12  and  C_17
REMARK    9  A    between atoms: C_12  and  C_18
REMARK   10  A    between atoms: C_13  and  C_19
REMARK   11  A    between atoms: C_16  and  C_20
REMARK                            x       y       z     vdW  Elec       q    Type
REMARK                         _______ _______ _______ _____ _____    ______ ____
ROOT
ATOM      8  C   UNL     1      -2.822  -0.928  24.817  0.00  0.00    +0.000 C 
ATOM      9  C   UNL     1      -1.714  -0.294  23.938  0.00  0.00    +0.030 C 
ATOM     10  C   UNL     1      -4.209  -0.640  24.222  0.00  0.00    +0.012 C 
ATOM     11  C   UNL     1      -4.488   0.870  24.099  0.00  0.00    +0.025 C 
ATOM     13  C   UNL     1      -3.319   1.611  23.481  0.00  0.00    -0.073 C 
ATOM     14  C   UNL     1      -2.090   1.069  23.405  0.00  0.00    -0.023 C 
ATOM     19  C   UNL     1      -3.605   2.971  22.909  0.00  0.00    +0.039 C 
ENDROOT
BRANCH   8  12
ATOM     12  C   UNL     1      -2.629  -2.440  24.972  0.00  0.00    -0.013 C 
ATOM     17  C   UNL     1      -1.341  -2.884  24.286  0.00  0.00    +0.007 C 
ATOM     18  C   UNL     1      -3.830  -3.191  24.407  0.00  0.00    +0.007 C 
ENDBRANCH   8  12
BRANCH   9  15
ATOM     15  C   UNL     1      -0.390  -0.196  24.705  0.00  0.00    +0.113 C 
BRANCH  15   7
ATOM      7  N   UNL     1      -0.511   0.839  25.743  0.00  0.00    -0.189 NA
ATOM     27  H   UNL     1      -1.421   0.903  26.216  0.00  0.00    +0.148 HD
BRANCH   7   1
ATOM      1  S   UNL     1       0.419   2.263  25.646  0.00  0.00    +0.059 S 
ATOM      5  O   UNL     1       1.136   2.282  24.385  0.00  0.00    -0.153 OA
ATOM      6  O   UNL     1       1.133   2.451  26.894  0.00  0.00    -0.153 OA
BRANCH   1  21
ATOM      2  F   UNL     1      -4.186   4.128  26.849  0.00  0.00    -0.205 F 
ATOM     21  C   UNL     1      -0.835   3.508  25.576  0.00  0.00    +0.108 A 
ATOM     22  C   UNL     1      -2.040   3.323  26.254  0.00  0.00    +0.066 A 
ATOM     23  C   UNL     1      -0.620   4.675  24.843  0.00  0.00    +0.029 A 
ATOM     24  C   UNL     1      -3.030   4.305  26.198  0.00  0.00    +0.125 A 
ATOM     25  C   UNL     1      -1.608   5.656  24.787  0.00  0.00    +0.005 A 
ATOM     26  C   UNL     1      -2.813   5.471  25.465  0.00  0.00    +0.038 A 
ENDBRANCH   1  21
ENDBRANCH   7   1
ENDBRANCH  15   7
ENDBRANCH   9  15
BRANCH  11  16
ATOM     16  C   UNL     1      -4.864   1.474  25.456  0.00  0.00    +0.128 C 
BRANCH  16  20
ATOM      4  O   UNL     1      -7.088   1.913  24.561  0.00  0.00    -0.251 OA
ATOM     20  C   UNL     1      -6.316   1.856  25.506  0.00  0.00    +0.305 C 
BRANCH  20   3
ATOM      3  O   UNL     1      -6.669   2.136  26.787  0.00  0.00    -0.481 OA
ATOM     28  H   UNL     1      -5.888   2.330  27.347  0.00  0.00    +0.295 HD
ENDBRANCH  20   3
ENDBRANCH  16  20
ENDBRANCH  11  16
TORSDOF 8
ENDMDL
MODEL 4
REMARK VINA RESULT:      -6.2     27.310     29.871
REMARK  Name = 38029578
REMARK  11 active torsions:
REMARK  status: ('A' for Active; 'I' for Inactive)
REMARK    1  A    between atoms: S_1  and  N_7
REMARK    2  A    between atoms: S_1  and  C_21
REMARK    3  A    between atoms: O_3  and  C_20
REMARK    4  A    between atoms: N_7  and  C_15
REMARK    5  A    between atoms: C_8  and  C_12
REMARK    6  A    between atoms: C_9  and  C_15
REMARK    7  A    between atoms: C_11  and  C_16
REMARK    8  A    between atoms: C_12  and  C_17
REMARK    9  A    between atoms: C_12  and  C_18
REMARK   10  A    between atoms: C_13  and  C_19
REMARK   11  A    between atoms: C_16  and  C_20
REMARK                            x       y       z     vdW  Elec       q    Type
REMARK                         _______ _______ _______ _____ _____    ______ ____
ROOT
ATOM      8  C   UNL     1     -11.689  -9.623  18.646  0.00  0.00    +0.000 C 
ATOM      9  C   UNL     1     -10.620 -10.692  18.306  0.00  0.00    +0.030 C 
ATOM     10  C   UNL     1     -12.349  -9.098  17.362  0.00  0.00    +0.012 C 
ATOM     11  C   UNL     1     -11.327  -8.475  16.392  0.00  0.00    +0.025 C 
ATOM     13  C   UNL     1     -10.108  -9.359  16.215  0.00  0.00    -0.073 C 
ATOM     14  C   UNL     1      -9.817 -10.354  17.072  0.00  0.00    -0.023 C 
ATOM     19  C   UNL     1      -9.258  -9.104  15.002  0.00  0.00    +0.039 C 
ENDROOT
BRANCH   8  12
ATOM     12  C   UNL     1     -12.761 -10.171  19.593  0.00  0.00    -0.013 C 
ATOM     17  C   UNL     1     -14.142 -10.059  18.956  0.00  0.00    +0.007 C 
ATOM     18  C   UNL     1     -12.719  -9.433  20.928  0.00  0.00    +0.007 C 
ENDBRANCH   8  12
BRANCH   9  15
ATOM     15  C   UNL     1      -9.671 -10.919  19.488  0.00  0.00    +0.113 C 
BRANCH  15   7
ATOM      7  N   UNL     1      -8.322 -10.465  19.115  0.00  0.00    -0.189 NA
ATOM     27  H   UNL     1      -8.266  -9.803  18.332  0.00  0.00    +0.148 HD
BRANCH   7   1
ATOM      1  S   UNL     1      -6.975 -11.475  19.379  0.00  0.00    +0.059 S 
ATOM      5  O   UNL     1      -7.369 -12.858  19.188  0.00  0.00    -0.153 OA
ATOM      6  O   UNL     1      -6.307 -11.068  20.600  0.00  0.00    -0.153 OA
BRANCH   1  21
ATOM      2  F   UNL     1      -2.395 -11.135  17.133  0.00  0.00    -0.205 F 
ATOM     21  C   UNL     1      -5.917 -11.021  18.037  0.00  0.00    +0.108 A 
ATOM     22  C   UNL     1      -4.546 -11.262  18.116  0.00  0.00    +0.066 A 
ATOM     23  C   UNL     1      -6.455 -10.421  16.897  0.00  0.00    +0.029 A 
ATOM     24  C   UNL     1      -3.712 -10.903  17.057  0.00  0.00    +0.125 A 
ATOM     25  C   UNL     1      -5.621 -10.062  15.839  0.00  0.00    +0.005 A 
ATOM     26  C   UNL     1      -4.250 -10.304  15.918  0.00  0.00    +0.038 A 
ENDBRANCH   1  21
ENDBRANCH   7   1
ENDBRANCH  15   7
ENDBRANCH   9  15
BRANCH  11  16
ATOM     16  C   UNL     1     -10.922  -7.069  16.846  0.00  0.00    +0.128 C 
BRANCH  16  20
ATOM      4  O   UNL     1     -12.043  -5.672  15.193  0.00  0.00    -0.251 OA
ATOM     20  C   UNL     1     -11.019  -6.078  15.722  0.00  0.00    +0.305 C 
BRANCH  20   3
ATOM      3  O   UNL     1      -9.773  -5.678  15.359  0.00  0.00    -0.481 OA
ATOM     28  H   UNL     1      -9.784  -4.801  14.921  0.00  0.00    +0.295 HD
ENDBRANCH  20   3
ENDBRANCH  16  20
ENDBRANCH  11  16
TORSDOF 8
ENDMDL
MODEL 5
REMARK VINA RESULT:      -6.1     26.664     28.389
REMARK  Name = 38029578
REMARK  11 active torsions:
REMARK  status: ('A' for Active; 'I' for Inactive)
REMARK    1  A    between atoms: S_1  and  N_7
REMARK    2  A    between atoms: S_1  and  C_21
REMARK    3  A    between atoms: O_3  and  C_20
REMARK    4  A    between atoms: N_7  and  C_15
REMARK    5  A    between atoms: C_8  and  C_12
REMARK    6  A    between atoms: C_9  and  C_15
REMARK    7  A    between atoms: C_11  and  C_16
REMARK    8  A    between atoms: C_12  and  C_17
REMARK    9  A    between atoms: C_12  and  C_18
REMARK   10  A    between atoms: C_13  and  C_19
REMARK   11  A    between atoms: C_16  and  C_20
REMARK                            x       y       z     vdW  Elec       q    Type
REMARK                         _______ _______ _______ _____ _____    ______ ____
ROOT
ATOM      8  C   UNL     1      -7.798 -10.372  17.032  0.00  0.00    +0.000 C 
ATOM      9  C   UNL     1      -7.133  -9.718  15.794  0.00  0.00    +0.030 C 
ATOM     10  C   UNL     1      -6.940 -10.143  18.285  0.00  0.00    +0.012 C 
ATOM     11  C   UNL     1      -5.519 -10.719  18.133  0.00  0.00    +0.025 C 
ATOM     13  C   UNL     1      -4.896 -10.336  16.806  0.00  0.00    -0.073 C 
ATOM     14  C   UNL     1      -5.631  -9.877  15.777  0.00  0.00    -0.023 C 
ATOM     19  C   UNL     1      -3.400 -10.447  16.703  0.00  0.00    +0.039 C 
ENDROOT
BRANCH   8  12
ATOM     12  C   UNL     1      -9.214  -9.835  17.267  0.00  0.00    -0.013 C 
ATOM     17  C   UNL     1      -9.218  -8.311  17.223  0.00  0.00    +0.007 C 
ATOM     18  C   UNL     1      -9.759 -10.339  18.599  0.00  0.00    +0.007 C 
ENDBRANCH   8  12
BRANCH   9  15
ATOM     15  C   UNL     1      -7.721 -10.275  14.492  0.00  0.00    +0.113 C 
BRANCH  15   7
ATOM      7  N   UNL     1      -6.629 -10.796  13.656  0.00  0.00    -0.189 NA
ATOM     27  H   UNL     1      -5.761 -11.044  14.146  0.00  0.00    +0.148 HD
BRANCH   7   1
ATOM      1  S   UNL     1      -6.495 -10.317  12.026  0.00  0.00    +0.059 S 
ATOM      5  O   UNL     1      -7.067  -8.994  11.868  0.00  0.00    -0.153 OA
ATOM      6  O   UNL     1      -6.928 -11.407  11.173  0.00  0.00    -0.153 OA
BRANCH   1  21
ATOM      2  F   UNL     1      -1.692 -11.000  13.641  0.00  0.00    -0.205 F 
ATOM     21  C   UNL     1      -4.742 -10.178  11.835  0.00  0.00    +0.108 A 
ATOM     22  C   UNL     1      -3.892 -10.654  12.833  0.00  0.00    +0.066 A 
ATOM     23  C   UNL     1      -4.210  -9.593  10.686  0.00  0.00    +0.029 A 
ATOM     24  C   UNL     1      -2.509 -10.544  12.683  0.00  0.00    +0.125 A 
ATOM     25  C   UNL     1      -2.828  -9.482  10.536  0.00  0.00    +0.005 A 
ATOM     26  C   UNL     1      -1.978  -9.958  11.534  0.00  0.00    +0.038 A 
ENDBRANCH   1  21
ENDBRANCH   7   1
ENDBRANCH  15   7
ENDBRANCH   9  15
BRANCH  11  16
ATOM     16  C   UNL     1      -5.518 -12.240  18.321  0.00  0.00    +0.128 C 
BRANCH  16  20
ATOM      4  O   UNL     1      -3.638 -12.080  19.864  0.00  0.00    -0.251 OA
ATOM     20  C   UNL     1      -4.281 -12.705  19.034  0.00  0.00    +0.305 C 
BRANCH  20   3
ATOM      3  O   UNL     1      -3.962 -13.959  18.621  0.00  0.00    -0.481 OA
ATOM     28  H   UNL     1      -3.072 -13.993  18.211  0.00  0.00    +0.295 HD
ENDBRANCH  20   3
ENDBRANCH  16  20
ENDBRANCH  11  16
TORSDOF 8
ENDMDL
MODEL 6
REMARK VINA RESULT:      -6.1     25.690     28.499
REMARK  Name = 38029578
REMARK  11 active torsions:
REMARK  status: ('A' for Active; 'I' for Inactive)
REMARK    1  A    between atoms: S_1  and  N_7
REMARK    2  A    between atoms: S_1  and  C_21
REMARK    3  A    between atoms: O_3  and  C_20
REMARK    4  A    between atoms: N_7  and  C_15
REMARK    5  A    between atoms: C_8  and  C_12
REMARK    6  A    between atoms: C_9  and  C_15
REMARK    7  A    between atoms: C_11  and  C_16
REMARK    8  A    between atoms: C_12  and  C_17
REMARK    9  A    between atoms: C_12  and  C_18
REMARK   10  A    between atoms: C_13  and  C_19
REMARK   11  A    between atoms: C_16  and  C_20
REMARK                            x       y       z     vdW  Elec       q    Type
REMARK                         _______ _______ _______ _____ _____    ______ ____
ROOT
ATOM      8  C   UNL     1      -4.049 -10.683  11.573  0.00  0.00    +0.000 C 
ATOM      9  C   UNL     1      -4.115 -12.165  11.126  0.00  0.00    +0.030 C 
ATOM     10  C   UNL     1      -2.604 -10.289  11.914  0.00  0.00    +0.012 C 
ATOM     11  C   UNL     1      -2.010 -11.164  13.035  0.00  0.00    +0.025 C 
ATOM     13  C   UNL     1      -2.273 -12.637  12.798  0.00  0.00    -0.073 C 
ATOM     14  C   UNL     1      -3.207 -13.066  11.930  0.00  0.00    -0.023 C 
ATOM     19  C   UNL     1      -1.403 -13.609  13.546  0.00  0.00    +0.039 C 
ENDROOT
BRANCH   8  12
ATOM     12  C   UNL     1      -4.604  -9.740  10.501  0.00  0.00    -0.013 C 
ATOM     17  C   UNL     1      -3.465  -9.078   9.733  0.00  0.00    +0.007 C 
ATOM     18  C   UNL     1      -5.512  -8.690  11.133  0.00  0.00    +0.007 C 
ENDBRANCH   8  12
BRANCH   9  15
ATOM     15  C   UNL     1      -5.551 -12.698  11.189  0.00  0.00    +0.113 C 
BRANCH  15   7
ATOM      7  N   UNL     1      -6.251 -12.061  12.314  0.00  0.00    -0.189 NA
ATOM     27  H   UNL     1      -6.090 -11.054  12.438  0.00  0.00    +0.148 HD
BRANCH   7   1
ATOM      1  S   UNL     1      -6.637 -12.964  13.706  0.00  0.00    +0.059 S 
ATOM      5  O   UNL     1      -5.859 -14.189  13.712  0.00  0.00    -0.153 OA
ATOM      6  O   UNL     1      -8.078 -13.015  13.857  0.00  0.00    -0.153 OA
BRANCH   1  21
ATOM      2  F   UNL     1      -4.189 -12.189  18.127  0.00  0.00    -0.205 F 
ATOM     21  C   UNL     1      -6.019 -11.922  14.994  0.00  0.00    +0.108 A 
ATOM     22  C   UNL     1      -5.334 -12.478  16.074  0.00  0.00    +0.066 A 
ATOM     23  C   UNL     1      -6.217 -10.542  14.930  0.00  0.00    +0.029 A 
ATOM     24  C   UNL     1      -4.847 -11.655  17.090  0.00  0.00    +0.125 A 
ATOM     25  C   UNL     1      -5.731  -9.720  15.946  0.00  0.00    +0.005 A 
ATOM     26  C   UNL     1      -5.046 -10.276  17.026  0.00  0.00    +0.038 A 
ENDBRANCH   1  21
ENDBRANCH   7   1
ENDBRANCH  15   7
ENDBRANCH   9  15
BRANCH  11  16
ATOM     16  C   UNL     1      -2.531 -10.728  14.409  0.00  0.00    +0.128 C 
BRANCH  16  20
ATOM      4  O   UNL     1      -0.706  -9.291  15.145  0.00  0.00    -0.251 OA
ATOM     20  C   UNL     1      -1.413 -10.275  15.303  0.00  0.00    +0.305 C 
BRANCH  20   3
ATOM      3  O   UNL     1      -1.289 -11.133  16.349  0.00  0.00    -0.481 OA
ATOM     28  H   UNL     1      -0.454 -10.989  16.842  0.00  0.00    +0.295 HD
ENDBRANCH  20   3
ENDBRANCH  16  20
ENDBRANCH  11  16
TORSDOF 8
ENDMDL
MODEL 7
REMARK VINA RESULT:      -6.0     26.333     28.409
REMARK  Name = 38029578
REMARK  11 active torsions:
REMARK  status: ('A' for Active; 'I' for Inactive)
REMARK    1  A    between atoms: S_1  and  N_7
REMARK    2  A    between atoms: S_1  and  C_21
REMARK    3  A    between atoms: O_3  and  C_20
REMARK    4  A    between atoms: N_7  and  C_15
REMARK    5  A    between atoms: C_8  and  C_12
REMARK    6  A    between atoms: C_9  and  C_15
REMARK    7  A    between atoms: C_11  and  C_16
REMARK    8  A    between atoms: C_12  and  C_17
REMARK    9  A    between atoms: C_12  and  C_18
REMARK   10  A    between atoms: C_13  and  C_19
REMARK   11  A    between atoms: C_16  and  C_20
REMARK                            x       y       z     vdW  Elec       q    Type
REMARK                         _______ _______ _______ _____ _____    ______ ____
ROOT
ATOM      8  C   UNL     1      -6.314 -10.733  15.709  0.00  0.00    +0.000 C 
ATOM      9  C   UNL     1      -5.543 -10.505  14.383  0.00  0.00    +0.030 C 
ATOM     10  C   UNL     1      -5.566 -10.083  16.883  0.00  0.00    +0.012 C 
ATOM     11  C   UNL     1      -4.140 -10.641  17.046  0.00  0.00    +0.025 C 
ATOM     13  C   UNL     1      -3.403 -10.699  15.722  0.00  0.00    -0.073 C 
ATOM     14  C   UNL     1      -4.046 -10.622  14.543  0.00  0.00    -0.023 C 
ATOM     19  C   UNL     1      -1.904 -10.799  15.786  0.00  0.00    +0.039 C 
ENDROOT
BRANCH   8  12
ATOM     12  C   UNL     1      -7.743 -10.186  15.637  0.00  0.00    -0.013 C 
ATOM     17  C   UNL     1      -7.979  -9.169  16.749  0.00  0.00    +0.007 C 
ATOM     18  C   UNL     1      -8.754 -11.325  15.722  0.00  0.00    +0.007 C 
ENDBRANCH   8  12
BRANCH   9  15
ATOM     15  C   UNL     1      -6.019 -11.473  13.294  0.00  0.00    +0.113 C 
BRANCH  15   7
ATOM      7  N   UNL     1      -5.011 -12.530  13.117  0.00  0.00    -0.189 NA
ATOM     27  H   UNL     1      -4.324 -12.634  13.874  0.00  0.00    +0.148 HD
BRANCH   7   1
ATOM      1  S   UNL     1      -4.521 -12.993  11.552  0.00  0.00    +0.059 S 
ATOM      5  O   UNL     1      -5.642 -13.598  10.859  0.00  0.00    -0.153 OA
ATOM      6  O   UNL     1      -3.252 -13.691  11.638  0.00  0.00    -0.153 OA
BRANCH   1  21
ATOM      2  F   UNL     1      -1.597  -8.884  10.712  0.00  0.00    -0.205 F 
ATOM     21  C   UNL     1      -4.198 -11.426  10.798  0.00  0.00    +0.108 A 
ATOM     22  C   UNL     1      -3.000 -10.760  11.058  0.00  0.00    +0.066 A 
ATOM     23  C   UNL     1      -5.142 -10.856   9.943  0.00  0.00    +0.029 A 
ATOM     24  C   UNL     1      -2.746  -9.524  10.463  0.00  0.00    +0.125 A 
ATOM     25  C   UNL     1      -4.888  -9.620   9.349  0.00  0.00    +0.005 A 
ATOM     26  C   UNL     1      -3.690  -8.955   9.609  0.00  0.00    +0.038 A 
ENDBRANCH   1  21
ENDBRANCH   7   1
ENDBRANCH  15   7
ENDBRANCH   9  15
BRANCH  11  16
ATOM     16  C   UNL     1      -4.158 -12.015  17.723  0.00  0.00    +0.128 C 
BRANCH  16  20
ATOM      4  O   UNL     1      -4.959 -11.603  19.988  0.00  0.00    -0.251 OA
ATOM     20  C   UNL     1      -4.057 -11.895  19.217  0.00  0.00    +0.305 C 
BRANCH  20   3
ATOM      3  O   UNL     1      -2.785 -12.164  19.610  0.00  0.00    -0.481 OA
ATOM     28  H   UNL     1      -2.513 -13.074  19.369  0.00  0.00    +0.295 HD
ENDBRANCH  20   3
ENDBRANCH  16  20
ENDBRANCH  11  16
TORSDOF 8
ENDMDL
MODEL 8
REMARK VINA RESULT:      -6.0     26.192     28.314
REMARK  Name = 38029578
REMARK  11 active torsions:
REMARK  status: ('A' for Active; 'I' for Inactive)
REMARK    1  A    between atoms: S_1  and  N_7
REMARK    2  A    between atoms: S_1  and  C_21
REMARK    3  A    between atoms: O_3  and  C_20
REMARK    4  A    between atoms: N_7  and  C_15
REMARK    5  A    between atoms: C_8  and  C_12
REMARK    6  A    between atoms: C_9  and  C_15
REMARK    7  A    between atoms: C_11  and  C_16
REMARK    8  A    between atoms: C_12  and  C_17
REMARK    9  A    between atoms: C_12  and  C_18
REMARK   10  A    between atoms: C_13  and  C_19
REMARK   11  A    between atoms: C_16  and  C_20
REMARK                            x       y       z     vdW  Elec       q    Type
REMARK                         _______ _______ _______ _____ _____    ______ ____
ROOT
ATOM      8  C   UNL     1      -7.505 -10.101  16.877  0.00  0.00    +0.000 C 
ATOM      9  C   UNL     1      -6.012  -9.750  16.659  0.00  0.00    +0.030 C 
ATOM     10  C   UNL     1      -7.808 -10.254  18.375  0.00  0.00    +0.012 C 
ATOM     11  C   UNL     1      -6.948 -11.348  19.035  0.00  0.00    +0.025 C 
ATOM     13  C   UNL     1      -5.487 -11.227  18.648  0.00  0.00    -0.073 C 
ATOM     14  C   UNL     1      -5.087 -10.496  17.592  0.00  0.00    -0.023 C 
ATOM     19  C   UNL     1      -4.492 -11.926  19.532  0.00  0.00    +0.039 C 
ENDROOT
BRANCH   8  12
ATOM     12  C   UNL     1      -8.433  -9.047  16.265  0.00  0.00    -0.013 C 
ATOM     17  C   UNL     1      -9.317  -8.427  17.343  0.00  0.00    +0.007 C 
ATOM     18  C   UNL     1      -9.282  -9.662  15.158  0.00  0.00    +0.007 C 
ENDBRANCH   8  12
BRANCH   9  15
ATOM     15  C   UNL     1      -5.590 -10.005  15.208  0.00  0.00    +0.113 C 
BRANCH  15   7
ATOM      7  N   UNL     1      -4.152 -10.312  15.173  0.00  0.00    -0.189 NA
ATOM     27  H   UNL     1      -3.516  -9.536  15.393  0.00  0.00    +0.148 HD
BRANCH   7   1
ATOM      1  S   UNL     1      -3.561 -11.533  14.141  0.00  0.00    +0.059 S 
ATOM      5  O   UNL     1      -4.632 -12.465  13.841  0.00  0.00    -0.153 OA
ATOM      6  O   UNL     1      -2.295 -12.018  14.654  0.00  0.00    -0.153 OA
BRANCH   1  21
ATOM      2  F   UNL     1      -0.368  -9.101  10.975  0.00  0.00    -0.205 F 
ATOM     21  C   UNL     1      -3.207 -10.620  12.669  0.00  0.00    +0.108 A 
ATOM     22  C   UNL     1      -1.901 -10.213  12.398  0.00  0.00    +0.066 A 
ATOM     23  C   UNL     1      -4.234 -10.307  11.778  0.00  0.00    +0.029 A 
ATOM     24  C   UNL     1      -1.622  -9.492  11.236  0.00  0.00    +0.125 A 
ATOM     25  C   UNL     1      -3.956  -9.587  10.617  0.00  0.00    +0.005 A 
ATOM     26  C   UNL     1      -2.650  -9.180  10.346  0.00  0.00    +0.038 A 
ENDBRANCH   1  21
ENDBRANCH   7   1
ENDBRANCH  15   7
ENDBRANCH   9  15
BRANCH  11  16
ATOM     16  C   UNL     1      -7.487 -12.745  18.710  0.00  0.00    +0.128 C 
BRANCH  16  20
ATOM      4  O   UNL     1      -9.830 -12.687  19.376  0.00  0.00    -0.251 OA
ATOM     20  C   UNL     1      -8.687 -13.082  19.548  0.00  0.00    +0.305 C 
BRANCH  20   3
ATOM      3  O   UNL     1      -8.319 -13.913  20.557  0.00  0.00    -0.481 OA
ATOM     28  H   UNL     1      -9.037 -14.535  20.798  0.00  0.00    +0.295 HD
ENDBRANCH  20   3
ENDBRANCH  16  20
ENDBRANCH  11  16
TORSDOF 8
ENDMDL
MODEL 9
REMARK VINA RESULT:      -6.0     26.174     28.430
REMARK  Name = 38029578
REMARK  11 active torsions:
REMARK  status: ('A' for Active; 'I' for Inactive)
REMARK    1  A    between atoms: S_1  and  N_7
REMARK    2  A    between atoms: S_1  and  C_21
REMARK    3  A    between atoms: O_3  and  C_20
REMARK    4  A    between atoms: N_7  and  C_15
REMARK    5  A    between atoms: C_8  and  C_12
REMARK    6  A    between atoms: C_9  and  C_15
REMARK    7  A    between atoms: C_11  and  C_16
REMARK    8  A    between atoms: C_12  and  C_17
REMARK    9  A    between atoms: C_12  and  C_18
REMARK   10  A    between atoms: C_13  and  C_19
REMARK   11  A    between atoms: C_16  and  C_20
REMARK                            x       y       z     vdW  Elec       q    Type
REMARK                         _______ _______ _______ _____ _____    ______ ____
ROOT
ATOM      8  C   UNL     1      -3.945 -10.147  11.359  0.00  0.00    +0.000 C 
ATOM      9  C   UNL     1      -5.014  -9.548  12.308  0.00  0.00    +0.030 C 
ATOM     10  C   UNL     1      -3.861  -9.330  10.061  0.00  0.00    +0.012 C 
ATOM     11  C   UNL     1      -5.207  -9.284   9.313  0.00  0.00    +0.025 C 
ATOM     13  C   UNL     1      -6.358  -8.960  10.243  0.00  0.00    -0.073 C 
ATOM     14  C   UNL     1      -6.249  -9.070  11.580  0.00  0.00    -0.023 C 
ATOM     19  C   UNL     1      -7.625  -8.461   9.606  0.00  0.00    +0.039 C 
ENDROOT
BRANCH   8  12
ATOM     12  C   UNL     1      -2.566 -10.208  12.023  0.00  0.00    -0.013 C 
ATOM     17  C   UNL     1      -1.543  -9.434  11.198  0.00  0.00    +0.007 C 
ATOM     18  C   UNL     1      -2.127 -11.658  12.206  0.00  0.00    +0.007 C 
ENDBRANCH   8  12
BRANCH   9  15
ATOM     15  C   UNL     1      -5.416 -10.553  13.392  0.00  0.00    +0.113 C 
BRANCH  15   7
ATOM      7  N   UNL     1      -4.887 -10.100  14.688  0.00  0.00    -0.189 NA
ATOM     27  H   UNL     1      -4.727  -9.089  14.784  0.00  0.00    +0.148 HD
BRANCH   7   1
ATOM      1  S   UNL     1      -3.912 -11.136  15.626  0.00  0.00    +0.059 S 
ATOM      5  O   UNL     1      -2.617 -10.517  15.832  0.00  0.00    -0.153 OA
ATOM      6  O   UNL     1      -4.002 -12.483  15.096  0.00  0.00    -0.153 OA
BRANCH   1  21
ATOM      2  F   UNL     1      -7.974 -10.107  18.555  0.00  0.00    -0.205 F 
ATOM     21  C   UNL     1      -4.768 -11.132  17.173  0.00  0.00    +0.108 A 
ATOM     22  C   UNL     1      -6.059 -10.611  17.255  0.00  0.00    +0.066 A 
ATOM     23  C   UNL     1      -4.152 -11.651  18.313  0.00  0.00    +0.029 A 
ATOM     24  C   UNL     1      -6.734 -10.607  18.476  0.00  0.00    +0.125 A 
ATOM     25  C   UNL     1      -4.826 -11.647  19.533  0.00  0.00    +0.005 A 
ATOM     26  C   UNL     1      -6.117 -11.126  19.615  0.00  0.00    +0.038 A 
ENDBRANCH   1  21
ENDBRANCH   7   1
ENDBRANCH  15   7
ENDBRANCH   9  15
BRANCH  11  16
ATOM     16  C   UNL     1      -5.463 -10.593   8.558  0.00  0.00    +0.128 C 
BRANCH  16  20
ATOM      4  O   UNL     1      -4.742 -11.157   6.300  0.00  0.00    -0.251 OA
ATOM     20  C   UNL     1      -5.321 -10.410   7.074  0.00  0.00    +0.305 C 
BRANCH  20   3
ATOM      3  O   UNL     1      -5.946  -9.266   6.694  0.00  0.00    -0.481 OA
ATOM     28  H   UNL     1      -5.314  -8.526   6.576  0.00  0.00    +0.295 HD
ENDBRANCH  20   3
ENDBRANCH  16  20
ENDBRANCH  11  16
TORSDOF 8
ENDMDL
MODEL 10
REMARK VINA RESULT:      -5.9     22.447     25.202
REMARK  Name = 38029578
REMARK  11 active torsions:
REMARK  status: ('A' for Active; 'I' for Inactive)
REMARK    1  A    between atoms: S_1  and  N_7
REMARK    2  A    between atoms: S_1  and  C_21
REMARK    3  A    between atoms: O_3  and  C_20
REMARK    4  A    between atoms: N_7  and  C_15
REMARK    5  A    between atoms: C_8  and  C_12
REMARK    6  A    between atoms: C_9  and  C_15
REMARK    7  A    between atoms: C_11  and  C_16
REMARK    8  A    between atoms: C_12  and  C_17
REMARK    9  A    between atoms: C_12  and  C_18
REMARK   10  A    between atoms: C_13  and  C_19
REMARK   11  A    between atoms: C_16  and  C_20
REMARK                            x       y       z     vdW  Elec       q    Type
REMARK                         _______ _______ _______ _____ _____    ______ ____
ROOT
ATOM      8  C   UNL     1       5.103 -11.537  34.545  0.00  0.00    +0.000 C 
ATOM      9  C   UNL     1       4.960  -9.994  34.565  0.00  0.00    +0.030 C 
ATOM     10  C   UNL     1       3.735 -12.200  34.324  0.00  0.00    +0.012 C 
ATOM     11  C   UNL     1       2.719 -11.818  35.416  0.00  0.00    +0.025 C 
ATOM     13  C   UNL     1       2.713 -10.326  35.683  0.00  0.00    -0.073 C 
ATOM     14  C   UNL     1       3.717  -9.525  35.283  0.00  0.00    -0.023 C 
ATOM     19  C   UNL     1       1.504  -9.768  36.380  0.00  0.00    +0.039 C 
ENDROOT
BRANCH   8  12
ATOM     12  C   UNL     1       6.087 -12.003  33.467  0.00  0.00    -0.013 C 
ATOM     17  C   UNL     1       5.373 -12.875  32.438  0.00  0.00    +0.007 C 
ATOM     18  C   UNL     1       7.252 -12.757  34.099  0.00  0.00    +0.007 C 
ENDBRANCH   8  12
BRANCH   9  15
ATOM     15  C   UNL     1       6.193  -9.333  35.191  0.00  0.00    +0.113 C 
BRANCH  15   7
ATOM      7  N   UNL     1       6.216  -7.909  34.818  0.00  0.00    -0.189 NA
ATOM     27  H   UNL     1       5.304  -7.440  34.764  0.00  0.00    +0.148 HD
BRANCH   7   1
ATOM      1  S   UNL     1       7.465  -7.302  33.832  0.00  0.00    +0.059 S 
ATOM      5  O   UNL     1       8.722  -7.375  34.552  0.00  0.00    -0.153 OA
ATOM      6  O   UNL     1       7.036  -6.051  33.237  0.00  0.00    -0.153 OA
BRANCH   1  21
ATOM      2  F   UNL     1       9.547 -11.315  31.444  0.00  0.00    -0.205 F 
ATOM     21  C   UNL     1       7.513  -8.502  32.533  0.00  0.00    +0.108 A 
ATOM     22  C   UNL     1       8.532  -9.454  32.501  0.00  0.00    +0.066 A 
ATOM     23  C   UNL     1       6.532  -8.496  31.541  0.00  0.00    +0.029 A 
ATOM     24  C   UNL     1       8.569 -10.400  31.476  0.00  0.00    +0.125 A 
ATOM     25  C   UNL     1       6.570  -9.440  30.517  0.00  0.00    +0.005 A 
ATOM     26  C   UNL     1       7.588 -10.393  30.484  0.00  0.00    +0.038 A 
ENDBRANCH   1  21
ENDBRANCH   7   1
ENDBRANCH  15   7
ENDBRANCH   9  15
BRANCH  11  16
ATOM     16  C   UNL     1       2.973 -12.605  36.706  0.00  0.00    +0.128 C 
BRANCH  16  20
ATOM      4  O   UNL     1       1.374 -13.453  38.338  0.00  0.00    -0.251 OA
ATOM     20  C   UNL     1       1.731 -13.304  37.179  0.00  0.00    +0.305 C 
BRANCH  20   3
ATOM      3  O   UNL     1       1.032 -13.764  36.109  0.00  0.00    -0.481 OA
ATOM     28  H   UNL     1       1.191 -14.718  35.951  0.00  0.00    +0.295 HD
ENDBRANCH  20   3
ENDBRANCH  16  20
ENDBRANCH  11  16
TORSDOF 8
ENDMDL
