MODEL 1
REMARK VINA RESULT:      -6.9      0.000      0.000
REMARK  Name = 44716695
REMARK  11 active torsions:
REMARK  status: ('A' for Active; 'I' for Inactive)
REMARK    1  A    between atoms: O_3  and  C_11
REMARK    2  A    between atoms: C_9  and  C_17
REMARK    3  A    between atoms: C_12  and  C_18
REMARK    4  A    between atoms: C_14  and  C_21
REMARK    5  A    between atoms: C_18  and  C_22
REMARK    6  A    between atoms: C_18  and  C_23
REMARK    7  A    between atoms: C_29  and  C_30
REMARK    8  A    between atoms: C_30  and  C_31
REMARK    9  A    between atoms: C_31  and  C_32
REMARK   10  A    between atoms: C_31  and  C_33
REMARK   11  A    between atoms: C_31  and  C_34
REMARK                            x       y       z     vdW  Elec       q    Type
REMARK                         _______ _______ _______ _____ _____    ______ ____
ROOT
ATOM      1  S   UNL     1      -5.207 -10.648   7.039  0.00  0.00    -0.057 S 
ATOM      5  O   UNL     1      -8.343  -7.185   6.685  0.00  0.00    -0.275 OA
ATOM      6  N   UNL     1      -6.571  -8.925   8.402  0.00  0.00    -0.229 NA
ATOM      8  N   UNL     1      -6.890  -8.918   6.014  0.00  0.00    -0.265 N 
ATOM      9  C   UNL     1      -3.748 -10.923  10.875  0.00  0.00    -0.022 C 
ATOM     10  C   UNL     1      -5.090 -10.493  11.590  0.00  0.00    +0.033 C 
ATOM     11  C   UNL     1      -4.843 -10.123  13.080  0.00  0.00    +0.123 C 
ATOM     12  C   UNL     1      -4.076 -11.221  13.850  0.00  0.00    +0.029 C 
ATOM     13  C   UNL     1      -3.055 -12.037  11.693  0.00  0.00    +0.008 C 
ATOM     14  C   UNL     1      -5.859  -9.370  10.781  0.00  0.00    +0.042 C 
ATOM     15  C   UNL     1      -2.789 -11.641  13.139  0.00  0.00    +0.007 C 
ATOM     16  C   UNL     1      -4.067 -11.509   9.464  0.00  0.00    +0.051 C 
ATOM     17  C   UNL     1      -2.767  -9.732  10.714  0.00  0.00    +0.012 C 
ATOM     19  C   UNL     1      -5.819  -9.662   9.301  0.00  0.00    +0.057 A 
ATOM     20  C   UNL     1      -5.003 -10.617   8.729  0.00  0.00    +0.015 A 
ATOM     21  C   UNL     1      -7.313  -9.182  11.238  0.00  0.00    +0.014 C 
ATOM     24  C   UNL     1      -6.339  -9.365   7.185  0.00  0.00    +0.165 A 
ATOM     29  C   UNL     1      -7.837  -7.883   5.812  0.00  0.00    +0.219 C 
ATOM     36  H   UNL     1      -6.559  -9.410   5.187  0.00  0.00    +0.157 HD
ENDROOT
BRANCH  11   3
ATOM      3  O   UNL     1      -6.097  -9.943  13.738  0.00  0.00    -0.391 OA
ATOM     35  H   UNL     1      -6.276  -8.989  13.787  0.00  0.00    +0.210 HD
ENDBRANCH  11   3
BRANCH  12  18
ATOM     18  C   UNL     1      -3.752 -10.791  15.286  0.00  0.00    +0.078 C 
ATOM     22  C   UNL     1      -2.253 -10.674  15.498  0.00  0.00    +0.017 C 
BRANCH  18  23
ATOM      2  S   UNL     1      -8.047 -10.727  18.272  0.00  0.00    -0.158 S 
ATOM      4  O   UNL     1      -4.082 -13.004  16.065  0.00  0.00    -0.275 OA
ATOM      7  N   UNL     1      -5.130 -11.314  17.269  0.00  0.00    -0.300 N 
ATOM     23  C   UNL     1      -4.331 -11.807  16.236  0.00  0.00    +0.219 C 
ATOM     25  C   UNL     1      -5.539  -9.913  17.428  0.00  0.00    +0.118 C 
ATOM     26  C   UNL     1      -5.727 -12.241  18.231  0.00  0.00    +0.118 C 
ATOM     27  C   UNL     1      -7.025  -9.738  17.134  0.00  0.00    +0.088 C 
ATOM     28  C   UNL     1      -7.236 -12.342  18.040  0.00  0.00    +0.088 C 
ENDBRANCH  18  23
ENDBRANCH  12  18
BRANCH  29  30
ATOM     30  C   UNL     1      -8.205  -7.671   4.348  0.00  0.00    +0.102 C 
BRANCH  30  31
ATOM     31  C   UNL     1      -9.642  -8.103   3.973  0.00  0.00    -0.029 C 
ATOM     32  C   UNL     1     -10.139  -9.231   4.893  0.00  0.00    +0.011 C 
ATOM     33  C   UNL     1     -10.624  -6.922   4.042  0.00  0.00    +0.011 C 
ATOM     34  C   UNL     1      -9.619  -8.632   2.525  0.00  0.00    +0.011 C 
ENDBRANCH  30  31
ENDBRANCH  29  30
TORSDOF 5
ENDMDL
MODEL 2
REMARK VINA RESULT:      -6.3      6.192      8.234
REMARK  Name = 44716695
REMARK  11 active torsions:
REMARK  status: ('A' for Active; 'I' for Inactive)
REMARK    1  A    between atoms: O_3  and  C_11
REMARK    2  A    between atoms: C_9  and  C_17
REMARK    3  A    between atoms: C_12  and  C_18
REMARK    4  A    between atoms: C_14  and  C_21
REMARK    5  A    between atoms: C_18  and  C_22
REMARK    6  A    between atoms: C_18  and  C_23
REMARK    7  A    between atoms: C_29  and  C_30
REMARK    8  A    between atoms: C_30  and  C_31
REMARK    9  A    between atoms: C_31  and  C_32
REMARK   10  A    between atoms: C_31  and  C_33
REMARK   11  A    between atoms: C_31  and  C_34
REMARK                            x       y       z     vdW  Elec       q    Type
REMARK                         _______ _______ _______ _____ _____    ______ ____
ROOT
ATOM      1  S   UNL     1     -13.848  -7.204  15.909  0.00  0.00    -0.057 S 
ATOM      5  O   UNL     1     -12.335  -6.715  11.502  0.00  0.00    -0.275 OA
ATOM      6  N   UNL     1     -11.986  -7.901  14.257  0.00  0.00    -0.229 NA
ATOM      8  N   UNL     1     -13.699  -6.435  13.406  0.00  0.00    -0.265 N 
ATOM      9  C   UNL     1     -11.659 -10.056  17.906  0.00  0.00    -0.022 C 
ATOM     10  C   UNL     1     -10.292  -9.754  17.174  0.00  0.00    +0.033 C 
ATOM     11  C   UNL     1      -9.261 -10.895  17.405  0.00  0.00    +0.123 C 
ATOM     12  C   UNL     1      -9.080 -11.242  18.900  0.00  0.00    +0.029 C 
ATOM     13  C   UNL     1     -11.393 -10.371  19.396  0.00  0.00    +0.008 C 
ATOM     14  C   UNL     1     -10.504  -9.397  15.646  0.00  0.00    +0.042 C 
ATOM     15  C   UNL     1     -10.411 -11.516  19.601  0.00  0.00    +0.007 C 
ATOM     16  C   UNL     1     -12.577  -8.795  17.851  0.00  0.00    +0.051 C 
ATOM     17  C   UNL     1     -12.410 -11.252  17.264  0.00  0.00    +0.012 C 
ATOM     19  C   UNL     1     -11.702  -8.494  15.474  0.00  0.00    +0.057 A 
ATOM     20  C   UNL     1     -12.624  -8.244  16.470  0.00  0.00    +0.015 A 
ATOM     21  C   UNL     1      -9.269  -8.757  14.996  0.00  0.00    +0.014 C 
ATOM     24  C   UNL     1     -13.084  -7.188  14.371  0.00  0.00    +0.165 A 
ATOM     29  C   UNL     1     -13.318  -6.232  12.056  0.00  0.00    +0.219 C 
ATOM     36  H   UNL     1     -14.545  -5.968  13.723  0.00  0.00    +0.157 HD
ENDROOT
BRANCH  11   3
ATOM      3  O   UNL     1      -7.987 -10.491  16.908  0.00  0.00    -0.391 OA
ATOM     35  H   UNL     1      -7.755 -11.075  16.166  0.00  0.00    +0.210 HD
ENDBRANCH  11   3
BRANCH  12  18
ATOM     18  C   UNL     1      -8.141 -12.439  19.097  0.00  0.00    +0.078 C 
ATOM     22  C   UNL     1      -8.583 -13.295  20.270  0.00  0.00    +0.017 C 
BRANCH  18  23
ATOM      2  S   UNL     1      -3.972 -12.101  15.954  0.00  0.00    -0.158 S 
ATOM      4  O   UNL     1      -6.555 -11.068  20.201  0.00  0.00    -0.275 OA
ATOM      7  N   UNL     1      -5.737 -12.457  18.527  0.00  0.00    -0.300 N 
ATOM     23  C   UNL     1      -6.745 -11.922  19.331  0.00  0.00    +0.219 C 
ATOM     25  C   UNL     1      -5.948 -13.384  17.409  0.00  0.00    +0.118 C 
ATOM     26  C   UNL     1      -4.355 -12.005  18.696  0.00  0.00    +0.118 C 
ATOM     27  C   UNL     1      -5.689 -12.699  16.071  0.00  0.00    +0.088 C 
ATOM     28  C   UNL     1      -3.901 -11.159  17.512  0.00  0.00    +0.088 C 
ENDBRANCH  18  23
ENDBRANCH  12  18
BRANCH  29  30
ATOM     30  C   UNL     1     -14.270  -5.327  11.284  0.00  0.00    +0.102 C 
BRANCH  30  31
ATOM     31  C   UNL     1     -13.989  -3.813  11.436  0.00  0.00    -0.029 C 
ATOM     32  C   UNL     1     -14.941  -3.172  12.459  0.00  0.00    +0.011 C 
ATOM     33  C   UNL     1     -12.535  -3.548  11.860  0.00  0.00    +0.011 C 
ATOM     34  C   UNL     1     -14.225  -3.144  10.067  0.00  0.00    +0.011 C 
ENDBRANCH  30  31
ENDBRANCH  29  30
TORSDOF 5
ENDMDL
MODEL 3
REMARK VINA RESULT:      -6.1      2.452     10.005
REMARK  Name = 44716695
REMARK  11 active torsions:
REMARK  status: ('A' for Active; 'I' for Inactive)
REMARK    1  A    between atoms: O_3  and  C_11
REMARK    2  A    between atoms: C_9  and  C_17
REMARK    3  A    between atoms: C_12  and  C_18
REMARK    4  A    between atoms: C_14  and  C_21
REMARK    5  A    between atoms: C_18  and  C_22
REMARK    6  A    between atoms: C_18  and  C_23
REMARK    7  A    between atoms: C_29  and  C_30
REMARK    8  A    between atoms: C_30  and  C_31
REMARK    9  A    between atoms: C_31  and  C_32
REMARK   10  A    between atoms: C_31  and  C_33
REMARK   11  A    between atoms: C_31  and  C_34
REMARK                            x       y       z     vdW  Elec       q    Type
REMARK                         _______ _______ _______ _____ _____    ______ ____
ROOT
ATOM      1  S   UNL     1      -3.085 -11.616  12.727  0.00  0.00    -0.057 S 
ATOM      5  O   UNL     1      -5.967  -9.750  15.914  0.00  0.00    -0.275 OA
ATOM      6  N   UNL     1      -5.360 -10.428  13.035  0.00  0.00    -0.229 NA
ATOM      8  N   UNL     1      -4.061 -10.819  15.027  0.00  0.00    -0.265 N 
ATOM      9  C   UNL     1      -4.891 -11.790   9.036  0.00  0.00    -0.022 C 
ATOM     10  C   UNL     1      -5.734 -10.464   9.205  0.00  0.00    +0.033 C 
ATOM     11  C   UNL     1      -6.852 -10.363   8.129  0.00  0.00    +0.123 C 
ATOM     12  C   UNL     1      -6.318 -10.558   6.692  0.00  0.00    +0.029 C 
ATOM     13  C   UNL     1      -4.376 -11.898   7.582  0.00  0.00    +0.008 C 
ATOM     14  C   UNL     1      -6.266 -10.285  10.685  0.00  0.00    +0.042 C 
ATOM     15  C   UNL     1      -5.490 -11.835   6.546  0.00  0.00    +0.007 C 
ATOM     16  C   UNL     1      -3.642 -11.745   9.971  0.00  0.00    +0.051 C 
ATOM     17  C   UNL     1      -5.724 -13.056   9.371  0.00  0.00    +0.012 C 
ATOM     19  C   UNL     1      -5.199 -10.668  11.682  0.00  0.00    +0.057 A 
ATOM     20  C   UNL     1      -4.035 -11.329  11.344  0.00  0.00    +0.015 A 
ATOM     21  C   UNL     1      -6.772  -8.865  10.980  0.00  0.00    +0.014 C 
ATOM     24  C   UNL     1      -4.304 -10.873  13.680  0.00  0.00    +0.165 A 
ATOM     29  C   UNL     1      -4.870 -10.280  16.058  0.00  0.00    +0.219 C 
ATOM     36  H   UNL     1      -3.172 -11.230  15.303  0.00  0.00    +0.157 HD
ENDROOT
BRANCH  11   3
ATOM      3  O   UNL     1      -7.449  -9.069   8.186  0.00  0.00    -0.391 OA
ATOM     35  H   UNL     1      -7.028  -8.513   7.508  0.00  0.00    +0.210 HD
ENDBRANCH  11   3
BRANCH  12  18
ATOM     18  C   UNL     1      -7.451 -10.560   5.659  0.00  0.00    +0.078 C 
ATOM     22  C   UNL     1      -7.028 -11.268   4.384  0.00  0.00    +0.017 C 
BRANCH  18  23
ATOM      2  S   UNL     1     -11.624  -7.700   6.992  0.00  0.00    -0.158 S 
ATOM      4  O   UNL     1      -6.942  -8.308   5.126  0.00  0.00    -0.275 OA
ATOM      7  N   UNL     1      -9.193  -8.834   5.358  0.00  0.00    -0.300 N 
ATOM     23  C   UNL     1      -7.830  -9.133   5.356  0.00  0.00    +0.219 C 
ATOM     25  C   UNL     1     -10.263  -9.763   5.743  0.00  0.00    +0.118 C 
ATOM     26  C   UNL     1      -9.639  -7.470   5.073  0.00  0.00    +0.118 C 
ATOM     27  C   UNL     1     -10.885  -9.363   7.077  0.00  0.00    +0.088 C 
ATOM     28  C   UNL     1     -10.191  -6.795   6.324  0.00  0.00    +0.088 C 
ENDBRANCH  18  23
ENDBRANCH  12  18
BRANCH  29  30
ATOM     30  C   UNL     1      -4.256 -10.416  17.447  0.00  0.00    +0.102 C 
BRANCH  30  31
ATOM     31  C   UNL     1      -4.937 -11.467  18.355  0.00  0.00    -0.029 C 
ATOM     32  C   UNL     1      -6.056 -10.831  19.197  0.00  0.00    +0.011 C 
ATOM     33  C   UNL     1      -5.518 -12.631  17.535  0.00  0.00    +0.011 C 
ATOM     34  C   UNL     1      -3.870 -12.033  19.313  0.00  0.00    +0.011 C 
ENDBRANCH  30  31
ENDBRANCH  29  30
TORSDOF 5
ENDMDL
MODEL 4
REMARK VINA RESULT:      -6.1     29.382     33.026
REMARK  Name = 44716695
REMARK  11 active torsions:
REMARK  status: ('A' for Active; 'I' for Inactive)
REMARK    1  A    between atoms: O_3  and  C_11
REMARK    2  A    between atoms: C_9  and  C_17
REMARK    3  A    between atoms: C_12  and  C_18
REMARK    4  A    between atoms: C_14  and  C_21
REMARK    5  A    between atoms: C_18  and  C_22
REMARK    6  A    between atoms: C_18  and  C_23
REMARK    7  A    between atoms: C_29  and  C_30
REMARK    8  A    between atoms: C_30  and  C_31
REMARK    9  A    between atoms: C_31  and  C_32
REMARK   10  A    between atoms: C_31  and  C_33
REMARK   11  A    between atoms: C_31  and  C_34
REMARK                            x       y       z     vdW  Elec       q    Type
REMARK                         _______ _______ _______ _____ _____    ______ ____
ROOT
ATOM      1  S   UNL     1      22.038   7.889  23.071  0.00  0.00    -0.057 S 
ATOM      5  O   UNL     1      22.363   3.977  20.514  0.00  0.00    -0.275 OA
ATOM      6  N   UNL     1      20.804   6.432  21.328  0.00  0.00    -0.229 NA
ATOM      8  N   UNL     1      22.968   5.658  22.055  0.00  0.00    -0.265 N 
ATOM      9  C   UNL     1      18.746  10.096  21.969  0.00  0.00    -0.022 C 
ATOM     10  C   UNL     1      17.830   8.857  21.620  0.00  0.00    +0.033 C 
ATOM     11  C   UNL     1      16.578   9.290  20.805  0.00  0.00    +0.123 C 
ATOM     12  C   UNL     1      15.800  10.445  21.474  0.00  0.00    +0.029 C 
ATOM     13  C   UNL     1      17.899  11.194  22.653  0.00  0.00    +0.008 C 
ATOM     14  C   UNL     1      18.651   7.686  20.940  0.00  0.00    +0.042 C 
ATOM     15  C   UNL     1      16.700  11.631  21.823  0.00  0.00    +0.007 C 
ATOM     16  C   UNL     1      19.855   9.664  22.979  0.00  0.00    +0.051 C 
ATOM     17  C   UNL     1      19.422  10.694  20.707  0.00  0.00    +0.012 C 
ATOM     19  C   UNL     1      19.984   7.507  21.623  0.00  0.00    +0.057 A 
ATOM     20  C   UNL     1      20.510   8.408  22.527  0.00  0.00    +0.015 A 
ATOM     21  C   UNL     1      17.892   6.351  20.912  0.00  0.00    +0.014 C 
ATOM     24  C   UNL     1      21.906   6.523  22.040  0.00  0.00    +0.165 A 
ATOM     29  C   UNL     1      23.152   4.461  21.320  0.00  0.00    +0.219 C 
ATOM     36  H   UNL     1      23.716   5.933  22.687  0.00  0.00    +0.157 HD
ENDROOT
BRANCH  11   3
ATOM      3  O   UNL     1      15.682   8.187  20.690  0.00  0.00    -0.391 OA
ATOM     35  H   UNL     1      15.215   8.266  19.841  0.00  0.00    +0.210 HD
ENDBRANCH  11   3
BRANCH  12  18
ATOM     18  C   UNL     1      14.633  10.926  20.603  0.00  0.00    +0.078 C 
ATOM     22  C   UNL     1      14.933  12.280  19.984  0.00  0.00    +0.017 C 
BRANCH  18  23
ATOM      2  S   UNL     1      10.814   7.483  21.566  0.00  0.00    -0.158 S 
ATOM      4  O   UNL     1      13.381  11.779  22.424  0.00  0.00    -0.275 OA
ATOM      7  N   UNL     1      12.324  10.195  21.091  0.00  0.00    -0.300 N 
ATOM     23  C   UNL     1      13.395  11.011  21.458  0.00  0.00    +0.219 C 
ATOM     25  C   UNL     1      12.353   9.190  20.022  0.00  0.00    +0.118 C 
ATOM     26  C   UNL     1      11.088  10.222  21.874  0.00  0.00    +0.118 C 
ATOM     27  C   UNL     1      12.327   7.777  20.595  0.00  0.00    +0.088 C 
ATOM     28  C   UNL     1      10.905   8.933  22.665  0.00  0.00    +0.088 C 
ENDBRANCH  18  23
ENDBRANCH  12  18
BRANCH  29  30
ATOM     30  C   UNL     1      24.482   3.771  21.604  0.00  0.00    +0.102 C 
BRANCH  30  31
ATOM     31  C   UNL     1      24.361   2.399  22.309  0.00  0.00    -0.029 C 
ATOM     32  C   UNL     1      23.194   2.391  23.310  0.00  0.00    +0.011 C 
ATOM     33  C   UNL     1      24.169   1.258  21.296  0.00  0.00    +0.011 C 
ATOM     34  C   UNL     1      25.669   2.145  23.085  0.00  0.00    +0.011 C 
ENDBRANCH  30  31
ENDBRANCH  29  30
TORSDOF 5
ENDMDL
MODEL 5
REMARK VINA RESULT:      -6.0      5.873     11.810
REMARK  Name = 44716695
REMARK  11 active torsions:
REMARK  status: ('A' for Active; 'I' for Inactive)
REMARK    1  A    between atoms: O_3  and  C_11
REMARK    2  A    between atoms: C_9  and  C_17
REMARK    3  A    between atoms: C_12  and  C_18
REMARK    4  A    between atoms: C_14  and  C_21
REMARK    5  A    between atoms: C_18  and  C_22
REMARK    6  A    between atoms: C_18  and  C_23
REMARK    7  A    between atoms: C_29  and  C_30
REMARK    8  A    between atoms: C_30  and  C_31
REMARK    9  A    between atoms: C_31  and  C_32
REMARK   10  A    between atoms: C_31  and  C_33
REMARK   11  A    between atoms: C_31  and  C_34
REMARK                            x       y       z     vdW  Elec       q    Type
REMARK                         _______ _______ _______ _____ _____    ______ ____
ROOT
ATOM      1  S   UNL     1     -10.886 -11.058  19.793  0.00  0.00    -0.057 S 
ATOM      5  O   UNL     1     -11.523 -15.491  21.168  0.00  0.00    -0.275 OA
ATOM      6  N   UNL     1      -9.879 -13.437  19.685  0.00  0.00    -0.229 NA
ATOM      8  N   UNL     1     -11.938 -13.183  20.913  0.00  0.00    -0.265 N 
ATOM      9  C   UNL     1      -7.202 -10.583  18.025  0.00  0.00    -0.022 C 
ATOM     10  C   UNL     1      -7.149 -12.021  17.372  0.00  0.00    +0.033 C 
ATOM     11  C   UNL     1      -5.712 -12.372  16.892  0.00  0.00    +0.123 C 
ATOM     12  C   UNL     1      -5.099 -11.278  15.990  0.00  0.00    +0.029 C 
ATOM     13  C   UNL     1      -6.593  -9.546  17.052  0.00  0.00    +0.008 C 
ATOM     14  C   UNL     1      -7.786 -13.123  18.313  0.00  0.00    +0.042 C 
ATOM     15  C   UNL     1      -5.172  -9.889  16.625  0.00  0.00    +0.007 C 
ATOM     16  C   UNL     1      -8.687 -10.172  18.275  0.00  0.00    +0.051 C 
ATOM     17  C   UNL     1      -6.432 -10.526  19.370  0.00  0.00    +0.012 C 
ATOM     19  C   UNL     1      -9.046 -12.602  18.961  0.00  0.00    +0.057 A 
ATOM     20  C   UNL     1      -9.428 -11.276  18.941  0.00  0.00    +0.015 A 
ATOM     21  C   UNL     1      -8.078 -14.445  17.588  0.00  0.00    +0.014 C 
ATOM     24  C   UNL     1     -10.886 -12.736  20.157  0.00  0.00    +0.165 A 
ATOM     29  C   UNL     1     -12.209 -14.495  21.375  0.00  0.00    +0.219 C 
ATOM     36  H   UNL     1     -12.602 -12.456  21.168  0.00  0.00    +0.157 HD
ENDROOT
BRANCH  11   3
ATOM      3  O   UNL     1      -5.748 -13.577  16.130  0.00  0.00    -0.391 OA
ATOM     35  H   UNL     1      -5.096 -13.499  15.413  0.00  0.00    +0.210 HD
ENDBRANCH  11   3
BRANCH  12  18
ATOM     18  C   UNL     1      -3.646 -11.595  15.616  0.00  0.00    +0.078 C 
ATOM     22  C   UNL     1      -2.681 -10.673  16.339  0.00  0.00    +0.017 C 
BRANCH  18  23
ATOM      2  S   UNL     1      -2.935 -15.110  11.807  0.00  0.00    -0.158 S 
ATOM      4  O   UNL     1      -3.981 -10.462  13.562  0.00  0.00    -0.275 OA
ATOM      7  N   UNL     1      -2.778 -12.449  13.466  0.00  0.00    -0.300 N 
ATOM     23  C   UNL     1      -3.488 -11.444  14.125  0.00  0.00    +0.219 C 
ATOM     25  C   UNL     1      -2.283 -13.682  14.088  0.00  0.00    +0.118 C 
ATOM     26  C   UNL     1      -2.582 -12.371  12.018  0.00  0.00    +0.118 C 
ATOM     27  C   UNL     1      -3.076 -14.894  13.611  0.00  0.00    +0.088 C 
ATOM     28  C   UNL     1      -3.405 -13.428  11.291  0.00  0.00    +0.088 C 
ENDBRANCH  18  23
ENDBRANCH  12  18
BRANCH  29  30
ATOM     30  C   UNL     1     -13.484 -14.597  22.204  0.00  0.00    +0.102 C 
BRANCH  30  31
ATOM     31  C   UNL     1     -13.342 -14.125  23.670  0.00  0.00    -0.029 C 
ATOM     32  C   UNL     1     -11.934 -14.422  24.213  0.00  0.00    +0.011 C 
ATOM     33  C   UNL     1     -13.634 -12.622  23.811  0.00  0.00    +0.011 C 
ATOM     34  C   UNL     1     -14.365 -14.901  24.522  0.00  0.00    +0.011 C 
ENDBRANCH  30  31
ENDBRANCH  29  30
TORSDOF 5
ENDMDL
MODEL 6
REMARK VINA RESULT:      -5.8      5.065      7.447
REMARK  Name = 44716695
REMARK  11 active torsions:
REMARK  status: ('A' for Active; 'I' for Inactive)
REMARK    1  A    between atoms: O_3  and  C_11
REMARK    2  A    between atoms: C_9  and  C_17
REMARK    3  A    between atoms: C_12  and  C_18
REMARK    4  A    between atoms: C_14  and  C_21
REMARK    5  A    between atoms: C_18  and  C_22
REMARK    6  A    between atoms: C_18  and  C_23
REMARK    7  A    between atoms: C_29  and  C_30
REMARK    8  A    between atoms: C_30  and  C_31
REMARK    9  A    between atoms: C_31  and  C_32
REMARK   10  A    between atoms: C_31  and  C_33
REMARK   11  A    between atoms: C_31  and  C_34
REMARK                            x       y       z     vdW  Elec       q    Type
REMARK                         _______ _______ _______ _____ _____    ______ ____
ROOT
ATOM      1  S   UNL     1     -11.875  -6.558  15.923  0.00  0.00    -0.057 S 
ATOM      5  O   UNL     1     -13.668  -7.415  11.680  0.00  0.00    -0.275 OA
ATOM      6  N   UNL     1     -11.608  -8.016  13.805  0.00  0.00    -0.229 NA
ATOM      8  N   UNL     1     -13.409  -6.414  13.800  0.00  0.00    -0.265 N 
ATOM      9  C   UNL     1      -8.999  -9.334  16.890  0.00  0.00    -0.022 C 
ATOM     10  C   UNL     1      -8.458  -9.527  15.418  0.00  0.00    +0.033 C 
ATOM     11  C   UNL     1      -7.570 -10.798  15.304  0.00  0.00    +0.123 C 
ATOM     12  C   UNL     1      -6.449 -10.842  16.367  0.00  0.00    +0.029 C 
ATOM     13  C   UNL     1      -7.817  -9.367  17.888  0.00  0.00    +0.008 C 
ATOM     14  C   UNL     1      -9.623  -9.475  14.348  0.00  0.00    +0.042 C 
ATOM     15  C   UNL     1      -6.983 -10.637  17.786  0.00  0.00    +0.007 C 
ATOM     16  C   UNL     1      -9.682  -7.936  17.022  0.00  0.00    +0.051 C 
ATOM     17  C   UNL     1     -10.021 -10.432  17.284  0.00  0.00    +0.012 C 
ATOM     19  C   UNL     1     -10.604  -8.377  14.685  0.00  0.00    +0.057 A 
ATOM     20  C   UNL     1     -10.619  -7.707  15.891  0.00  0.00    +0.015 A 
ATOM     21  C   UNL     1      -9.116  -9.300  12.909  0.00  0.00    +0.014 C 
ATOM     24  C   UNL     1     -12.330  -7.059  14.345  0.00  0.00    +0.165 A 
ATOM     29  C   UNL     1     -14.017  -6.607  12.535  0.00  0.00    +0.219 C 
ATOM     36  H   UNL     1     -13.814  -5.704  14.405  0.00  0.00    +0.157 HD
ENDROOT
BRANCH  11   3
ATOM      3  O   UNL     1      -6.939 -10.823  14.025  0.00  0.00    -0.391 OA
ATOM     35  H   UNL     1      -6.150 -10.255  14.067  0.00  0.00    +0.210 HD
ENDBRANCH  11   3
BRANCH  12  18
ATOM     18  C   UNL     1      -5.654 -12.152  16.304  0.00  0.00    +0.078 C 
ATOM     22  C   UNL     1      -6.042 -13.085  17.436  0.00  0.00    +0.017 C 
BRANCH  18  23
ATOM      2  S   UNL     1      -2.207 -10.672  12.656  0.00  0.00    -0.158 S 
ATOM      4  O   UNL     1      -3.711 -11.422  17.447  0.00  0.00    -0.275 OA
ATOM      7  N   UNL     1      -3.440 -12.011  15.215  0.00  0.00    -0.300 N 
ATOM     23  C   UNL     1      -4.184 -11.827  16.382  0.00  0.00    +0.219 C 
ATOM     25  C   UNL     1      -3.994 -12.378  13.907  0.00  0.00    +0.118 C 
ATOM     26  C   UNL     1      -2.006 -11.717  15.214  0.00  0.00    +0.118 C 
ATOM     27  C   UNL     1      -3.927 -11.206  12.933  0.00  0.00    +0.088 C 
ATOM     28  C   UNL     1      -1.698 -10.470  14.393  0.00  0.00    +0.088 C 
ENDBRANCH  18  23
ENDBRANCH  12  18
BRANCH  29  30
ATOM     30  C   UNL     1     -15.214  -5.695  12.290  0.00  0.00    +0.102 C 
BRANCH  30  31
ATOM     31  C   UNL     1     -14.872  -4.345  11.616  0.00  0.00    -0.029 C 
ATOM     32  C   UNL     1     -15.807  -4.067  10.428  0.00  0.00    +0.011 C 
ATOM     33  C   UNL     1     -14.957  -3.178  12.614  0.00  0.00    +0.011 C 
ATOM     34  C   UNL     1     -13.426  -4.429  11.088  0.00  0.00    +0.011 C 
ENDBRANCH  30  31
ENDBRANCH  29  30
TORSDOF 5
ENDMDL
MODEL 7
REMARK VINA RESULT:      -5.7     24.149     26.286
REMARK  Name = 44716695
REMARK  11 active torsions:
REMARK  status: ('A' for Active; 'I' for Inactive)
REMARK    1  A    between atoms: O_3  and  C_11
REMARK    2  A    between atoms: C_9  and  C_17
REMARK    3  A    between atoms: C_12  and  C_18
REMARK    4  A    between atoms: C_14  and  C_21
REMARK    5  A    between atoms: C_18  and  C_22
REMARK    6  A    between atoms: C_18  and  C_23
REMARK    7  A    between atoms: C_29  and  C_30
REMARK    8  A    between atoms: C_30  and  C_31
REMARK    9  A    between atoms: C_31  and  C_32
REMARK   10  A    between atoms: C_31  and  C_33
REMARK   11  A    between atoms: C_31  and  C_34
REMARK                            x       y       z     vdW  Elec       q    Type
REMARK                         _______ _______ _______ _____ _____    ______ ____
ROOT
ATOM      1  S   UNL     1      10.327   4.432   3.842  0.00  0.00    -0.057 S 
ATOM      5  O   UNL     1      13.484   5.415   0.523  0.00  0.00    -0.275 OA
ATOM      6  N   UNL     1      11.892   6.281   2.938  0.00  0.00    -0.229 NA
ATOM      8  N   UNL     1      11.907   4.176   1.764  0.00  0.00    -0.265 N 
ATOM      9  C   UNL     1      10.131   7.455   6.624  0.00  0.00    -0.022 C 
ATOM     10  C   UNL     1      10.421   8.629   5.609  0.00  0.00    +0.033 C 
ATOM     11  C   UNL     1      10.789   9.944   6.354  0.00  0.00    +0.123 C 
ATOM     12  C   UNL     1       9.756  10.326   7.437  0.00  0.00    +0.029 C 
ATOM     13  C   UNL     1       9.074   7.909   7.658  0.00  0.00    +0.008 C 
ATOM     14  C   UNL     1      11.479   8.212   4.507  0.00  0.00    +0.042 C 
ATOM     15  C   UNL     1       9.470   9.176   8.403  0.00  0.00    +0.007 C 
ATOM     16  C   UNL     1       9.539   6.230   5.859  0.00  0.00    +0.051 C 
ATOM     17  C   UNL     1      11.411   7.006   7.377  0.00  0.00    +0.012 C 
ATOM     19  C   UNL     1      11.215   6.807   4.024  0.00  0.00    +0.057 A 
ATOM     20  C   UNL     1      10.350   5.931   4.649  0.00  0.00    +0.015 A 
ATOM     21  C   UNL     1      11.521   9.177   3.312  0.00  0.00    +0.014 C 
ATOM     24  C   UNL     1      11.495   5.043   2.741  0.00  0.00    +0.165 A 
ATOM     29  C   UNL     1      12.851   4.384   0.728  0.00  0.00    +0.219 C 
ATOM     36  H   UNL     1      11.462   3.263   1.808  0.00  0.00    +0.157 HD
ENDROOT
BRANCH  11   3
ATOM      3  O   UNL     1      10.839  11.021   5.419  0.00  0.00    -0.391 OA
ATOM     35  H   UNL     1      10.439  10.715   4.587  0.00  0.00    +0.210 HD
ENDBRANCH  11   3
BRANCH  12  18
ATOM     18  C   UNL     1      10.192  11.565   8.229  0.00  0.00    +0.078 C 
ATOM     22  C   UNL     1      11.032  11.178   9.432  0.00  0.00    +0.017 C 
BRANCH  18  23
ATOM      2  S   UNL     1       6.704  14.442   5.596  0.00  0.00    -0.158 S 
ATOM      4  O   UNL     1       8.361  11.934   9.688  0.00  0.00    -0.275 OA
ATOM      7  N   UNL     1       8.571  13.400   7.897  0.00  0.00    -0.300 N 
ATOM     23  C   UNL     1       8.960  12.310   8.676  0.00  0.00    +0.219 C 
ATOM     25  C   UNL     1       9.192  13.798   6.628  0.00  0.00    +0.118 C 
ATOM     26  C   UNL     1       7.385  14.173   8.268  0.00  0.00    +0.118 C 
ATOM     27  C   UNL     1       8.266  13.515   5.450  0.00  0.00    +0.088 C 
ATOM     28  C   UNL     1       6.243  13.940   7.285  0.00  0.00    +0.088 C 
ENDBRANCH  18  23
ENDBRANCH  12  18
BRANCH  29  30
ATOM     30  C   UNL     1      13.050   3.167  -0.167  0.00  0.00    +0.102 C 
BRANCH  30  31
ATOM     31  C   UNL     1      12.424   3.291  -1.576  0.00  0.00    -0.029 C 
ATOM     32  C   UNL     1      12.017   1.913  -2.125  0.00  0.00    +0.011 C 
ATOM     33  C   UNL     1      11.196   4.217  -1.570  0.00  0.00    +0.011 C 
ATOM     34  C   UNL     1      13.484   3.896  -2.518  0.00  0.00    +0.011 C 
ENDBRANCH  30  31
ENDBRANCH  29  30
TORSDOF 5
ENDMDL
MODEL 8
REMARK VINA RESULT:      -5.7     24.680     27.786
REMARK  Name = 44716695
REMARK  11 active torsions:
REMARK  status: ('A' for Active; 'I' for Inactive)
REMARK    1  A    between atoms: O_3  and  C_11
REMARK    2  A    between atoms: C_9  and  C_17
REMARK    3  A    between atoms: C_12  and  C_18
REMARK    4  A    between atoms: C_14  and  C_21
REMARK    5  A    between atoms: C_18  and  C_22
REMARK    6  A    between atoms: C_18  and  C_23
REMARK    7  A    between atoms: C_29  and  C_30
REMARK    8  A    between atoms: C_30  and  C_31
REMARK    9  A    between atoms: C_31  and  C_32
REMARK   10  A    between atoms: C_31  and  C_33
REMARK   11  A    between atoms: C_31  and  C_34
REMARK                            x       y       z     vdW  Elec       q    Type
REMARK                         _______ _______ _______ _____ _____    ______ ____
ROOT
ATOM      1  S   UNL     1       9.874   6.788   7.075  0.00  0.00    -0.057 S 
ATOM      5  O   UNL     1      11.778  11.031   7.638  0.00  0.00    -0.275 OA
ATOM      6  N   UNL     1      11.526   8.484   6.036  0.00  0.00    -0.229 NA
ATOM      8  N   UNL     1      10.443   9.140   8.087  0.00  0.00    -0.265 N 
ATOM      9  C   UNL     1      10.876   5.202   3.414  0.00  0.00    -0.022 C 
ATOM     10  C   UNL     1      12.317   5.847   3.347  0.00  0.00    +0.033 C 
ATOM     11  C   UNL     1      12.905   5.769   1.910  0.00  0.00    +0.123 C 
ATOM     12  C   UNL     1      12.856   4.342   1.320  0.00  0.00    +0.029 C 
ATOM     13  C   UNL     1      10.918   3.771   2.828  0.00  0.00    +0.008 C 
ATOM     14  C   UNL     1      12.342   7.306   3.960  0.00  0.00    +0.042 C 
ATOM     15  C   UNL     1      11.461   3.722   1.407  0.00  0.00    +0.007 C 
ATOM     16  C   UNL     1      10.420   5.083   4.903  0.00  0.00    +0.051 C 
ATOM     17  C   UNL     1       9.828   6.036   2.633  0.00  0.00    +0.012 C 
ATOM     19  C   UNL     1      11.515   7.366   5.222  0.00  0.00    +0.057 A 
ATOM     20  C   UNL     1      10.654   6.364   5.622  0.00  0.00    +0.015 A 
ATOM     21  C   UNL     1      13.761   7.822   4.240  0.00  0.00    +0.014 C 
ATOM     24  C   UNL     1      10.711   8.287   7.049  0.00  0.00    +0.165 A 
ATOM     29  C   UNL     1      10.965  10.433   8.336  0.00  0.00    +0.219 C 
ATOM     36  H   UNL     1       9.772   8.774   8.759  0.00  0.00    +0.157 HD
ENDROOT
BRANCH  11   3
ATOM      3  O   UNL     1      14.274   6.169   1.935  0.00  0.00    -0.391 OA
ATOM     35  H   UNL     1      14.307   7.137   1.836  0.00  0.00    +0.210 HD
ENDBRANCH  11   3
BRANCH  12  18
ATOM     18  C   UNL     1      13.342   4.309  -0.134  0.00  0.00    +0.078 C 
ATOM     22  C   UNL     1      12.656   3.204  -0.916  0.00  0.00    +0.017 C 
BRANCH  18  23
ATOM      2  S   UNL     1      17.212   6.765  -2.658  0.00  0.00    -0.158 S 
ATOM      4  O   UNL     1      15.374   3.583   0.846  0.00  0.00    -0.275 OA
ATOM      7  N   UNL     1      15.521   4.503  -1.283  0.00  0.00    -0.300 N 
ATOM     23  C   UNL     1      14.835   4.096  -0.139  0.00  0.00    +0.219 C 
ATOM     25  C   UNL     1      14.926   5.221  -2.417  0.00  0.00    +0.118 C 
ATOM     26  C   UNL     1      16.972   4.328  -1.362  0.00  0.00    +0.118 C 
ATOM     27  C   UNL     1      15.403   6.668  -2.462  0.00  0.00    +0.088 C 
ATOM     28  C   UNL     1      17.696   5.668  -1.286  0.00  0.00    +0.088 C 
ENDBRANCH  18  23
ENDBRANCH  12  18
BRANCH  29  30
ATOM     30  C   UNL     1      10.414  11.078   9.602  0.00  0.00    +0.102 C 
BRANCH  30  31
ATOM     31  C   UNL     1       9.481  12.288   9.358  0.00  0.00    -0.029 C 
ATOM     32  C   UNL     1       8.893  12.257   7.937  0.00  0.00    +0.011 C 
ATOM     33  C   UNL     1       8.335  12.334  10.381  0.00  0.00    +0.011 C 
ATOM     34  C   UNL     1      10.319  13.574   9.509  0.00  0.00    +0.011 C 
ENDBRANCH  30  31
ENDBRANCH  29  30
TORSDOF 5
ENDMDL
MODEL 9
REMARK VINA RESULT:      -5.6     26.834     29.642
REMARK  Name = 44716695
REMARK  11 active torsions:
REMARK  status: ('A' for Active; 'I' for Inactive)
REMARK    1  A    between atoms: O_3  and  C_11
REMARK    2  A    between atoms: C_9  and  C_17
REMARK    3  A    between atoms: C_12  and  C_18
REMARK    4  A    between atoms: C_14  and  C_21
REMARK    5  A    between atoms: C_18  and  C_22
REMARK    6  A    between atoms: C_18  and  C_23
REMARK    7  A    between atoms: C_29  and  C_30
REMARK    8  A    between atoms: C_30  and  C_31
REMARK    9  A    between atoms: C_31  and  C_32
REMARK   10  A    between atoms: C_31  and  C_33
REMARK   11  A    between atoms: C_31  and  C_34
REMARK                            x       y       z     vdW  Elec       q    Type
REMARK                         _______ _______ _______ _____ _____    ______ ____
ROOT
ATOM      1  S   UNL     1      18.315   9.753   2.611  0.00  0.00    -0.057 S 
ATOM      5  O   UNL     1      20.405   8.157   6.488  0.00  0.00    -0.275 OA
ATOM      6  N   UNL     1      17.971   8.276   4.704  0.00  0.00    -0.229 NA
ATOM      8  N   UNL     1      20.123   9.336   4.464  0.00  0.00    -0.265 N 
ATOM      9  C   UNL     1      14.678   7.918   2.040  0.00  0.00    -0.022 C 
ATOM     10  C   UNL     1      14.327   7.774   3.574  0.00  0.00    +0.033 C 
ATOM     11  C   UNL     1      13.151   6.781   3.794  0.00  0.00    +0.123 C 
ATOM     12  C   UNL     1      11.918   7.111   2.923  0.00  0.00    +0.029 C 
ATOM     13  C   UNL     1      13.400   8.270   1.244  0.00  0.00    +0.008 C 
ATOM     14  C   UNL     1      15.605   7.440   4.446  0.00  0.00    +0.042 C 
ATOM     15  C   UNL     1      12.274   7.265   1.444  0.00  0.00    +0.007 C 
ATOM     16  C   UNL     1      15.691   9.089   1.838  0.00  0.00    +0.051 C 
ATOM     17  C   UNL     1      15.292   6.617   1.459  0.00  0.00    +0.012 C 
ATOM     19  C   UNL     1      16.789   8.257   3.986  0.00  0.00    +0.057 A 
ATOM     20  C   UNL     1      16.811   8.981   2.811  0.00  0.00    +0.015 A 
ATOM     21  C   UNL     1      15.382   7.644   5.952  0.00  0.00    +0.014 C 
ATOM     24  C   UNL     1      18.841   9.041   4.082  0.00  0.00    +0.165 A 
ATOM     29  C   UNL     1      20.833   8.900   5.610  0.00  0.00    +0.219 C 
ATOM     36  H   UNL     1      20.614   9.952   3.822  0.00  0.00    +0.157 HD
ENDROOT
BRANCH  11   3
ATOM      3  O   UNL     1      12.732   6.837   5.157  0.00  0.00    -0.391 OA
ATOM     35  H   UNL     1      13.179   7.592   5.578  0.00  0.00    +0.210 HD
ENDBRANCH  11   3
BRANCH  12  18
ATOM     18  C   UNL     1      10.813   6.060   3.077  0.00  0.00    +0.078 C 
ATOM     22  C   UNL     1      10.461   5.434   1.740  0.00  0.00    +0.017 C 
BRANCH  18  23
ATOM      2  S   UNL     1       9.123   6.458   8.013  0.00  0.00    -0.158 S 
ATOM      4  O   UNL     1       9.078   7.674   3.084  0.00  0.00    -0.275 OA
ATOM      7  N   UNL     1       9.132   6.204   4.883  0.00  0.00    -0.300 N 
ATOM     23  C   UNL     1       9.598   6.723   3.674  0.00  0.00    +0.219 C 
ATOM     25  C   UNL     1       9.796   5.154   5.665  0.00  0.00    +0.118 C 
ATOM     26  C   UNL     1       7.956   6.795   5.523  0.00  0.00    +0.118 C 
ATOM     27  C   UNL     1      10.401   5.721   6.944  0.00  0.00    +0.088 C 
ATOM     28  C   UNL     1       8.338   7.555   6.789  0.00  0.00    +0.088 C 
ENDBRANCH  18  23
ENDBRANCH  12  18
BRANCH  29  30
ATOM     30  C   UNL     1      22.256   9.441   5.685  0.00  0.00    +0.102 C 
BRANCH  30  31
ATOM     31  C   UNL     1      23.262   8.748   4.736  0.00  0.00    -0.029 C 
ATOM     32  C   UNL     1      22.813   7.315   4.403  0.00  0.00    +0.011 C 
ATOM     33  C   UNL     1      23.444   9.539   3.430  0.00  0.00    +0.011 C 
ATOM     34  C   UNL     1      24.624   8.676   5.454  0.00  0.00    +0.011 C 
ENDBRANCH  30  31
ENDBRANCH  29  30
TORSDOF 5
ENDMDL
MODEL 10
REMARK VINA RESULT:      -5.6     28.793     30.797
REMARK  Name = 44716695
REMARK  11 active torsions:
REMARK  status: ('A' for Active; 'I' for Inactive)
REMARK    1  A    between atoms: O_3  and  C_11
REMARK    2  A    between atoms: C_9  and  C_17
REMARK    3  A    between atoms: C_12  and  C_18
REMARK    4  A    between atoms: C_14  and  C_21
REMARK    5  A    between atoms: C_18  and  C_22
REMARK    6  A    between atoms: C_18  and  C_23
REMARK    7  A    between atoms: C_29  and  C_30
REMARK    8  A    between atoms: C_30  and  C_31
REMARK    9  A    between atoms: C_31  and  C_32
REMARK   10  A    between atoms: C_31  and  C_33
REMARK   11  A    between atoms: C_31  and  C_34
REMARK                            x       y       z     vdW  Elec       q    Type
REMARK                         _______ _______ _______ _____ _____    ______ ____
ROOT
ATOM      1  S   UNL     1      14.759  12.715  12.787  0.00  0.00    -0.057 S 
ATOM      5  O   UNL     1      18.915  14.537  13.955  0.00  0.00    -0.275 OA
ATOM      6  N   UNL     1      16.513  12.857  14.682  0.00  0.00    -0.229 NA
ATOM      8  N   UNL     1      17.011  14.054  12.649  0.00  0.00    -0.265 N 
ATOM      9  C   UNL     1      13.470  10.049  15.641  0.00  0.00    -0.022 C 
ATOM     10  C   UNL     1      14.098  10.813  16.873  0.00  0.00    +0.033 C 
ATOM     11  C   UNL     1      14.132   9.912  18.140  0.00  0.00    +0.123 C 
ATOM     12  C   UNL     1      12.760   9.280  18.461  0.00  0.00    +0.029 C 
ATOM     13  C   UNL     1      12.093   9.467  16.036  0.00  0.00    +0.008 C 
ATOM     14  C   UNL     1      15.501  11.455  16.518  0.00  0.00    +0.042 C 
ATOM     15  C   UNL     1      12.154   8.558  17.256  0.00  0.00    +0.007 C 
ATOM     16  C   UNL     1      13.234  11.048  14.465  0.00  0.00    +0.051 C 
ATOM     17  C   UNL     1      14.381   8.895  15.145  0.00  0.00    +0.012 C 
ATOM     19  C   UNL     1      15.466  12.079  15.144  0.00  0.00    +0.057 A 
ATOM     20  C   UNL     1      14.447  11.877  14.235  0.00  0.00    +0.015 A 
ATOM     21  C   UNL     1      15.972  12.490  17.551  0.00  0.00    +0.014 C 
ATOM     24  C   UNL     1      16.244  13.258  13.459  0.00  0.00    +0.165 A 
ATOM     29  C   UNL     1      18.271  14.643  12.915  0.00  0.00    +0.219 C 
ATOM     36  H   UNL     1      16.600  14.232  11.736  0.00  0.00    +0.157 HD
ENDROOT
BRANCH  11   3
ATOM      3  O   UNL     1      14.510  10.698  19.269  0.00  0.00    -0.391 OA
ATOM     35  H   UNL     1      14.358  10.166  20.070  0.00  0.00    +0.210 HD
ENDBRANCH  11   3
BRANCH  12  18
ATOM     18  C   UNL     1      12.841   8.314  19.649  0.00  0.00    +0.078 C 
ATOM     22  C   UNL     1      12.810   6.869  19.184  0.00  0.00    +0.017 C 
BRANCH  18  23
ATOM      2  S   UNL     1      12.310  11.530  23.742  0.00  0.00    -0.158 S 
ATOM      4  O   UNL     1      10.529   8.398  20.164  0.00  0.00    -0.275 OA
ATOM      7  N   UNL     1      11.992   9.041  21.852  0.00  0.00    -0.300 N 
ATOM     23  C   UNL     1      11.680   8.585  20.571  0.00  0.00    +0.219 C 
ATOM     25  C   UNL     1      13.339   9.385  22.324  0.00  0.00    +0.118 C 
ATOM     26  C   UNL     1      10.917   9.327  22.804  0.00  0.00    +0.118 C 
ATOM     27  C   UNL     1      13.489  10.891  22.508  0.00  0.00    +0.088 C 
ATOM     28  C   UNL     1      10.779  10.825  23.051  0.00  0.00    +0.088 C 
ENDBRANCH  18  23
ENDBRANCH  12  18
BRANCH  29  30
ATOM     30  C   UNL     1      18.817  15.464  11.753  0.00  0.00    +0.102 C 
BRANCH  30  31
ATOM     31  C   UNL     1      19.966  14.788  10.967  0.00  0.00    -0.029 C 
ATOM     32  C   UNL     1      21.336  15.165  11.556  0.00  0.00    +0.011 C 
ATOM     33  C   UNL     1      19.822  13.258  10.958  0.00  0.00    +0.011 C 
ATOM     34  C   UNL     1      19.908  15.291   9.511  0.00  0.00    +0.011 C 
ENDBRANCH  30  31
ENDBRANCH  29  30
TORSDOF 5
ENDMDL
