MODEL 1
REMARK VINA RESULT:      -7.6      0.000      0.000
REMARK  Name = 51137368
REMARK  5 active torsions:
REMARK  status: ('A' for Active; 'I' for Inactive)
REMARK    1  A    between atoms: N_2  and  C_7
REMARK    2  A    between atoms: N_3  and  C_17
REMARK    3  A    between atoms: C_9  and  C_16
REMARK    4  A    between atoms: C_18  and  C_19
REMARK    5  A    between atoms: C_19  and  C_20
REMARK                            x       y       z     vdW  Elec       q    Type
REMARK                         _______ _______ _______ _____ _____    ______ ____
ROOT
ATOM      1  O   UNL     1      13.510   7.999  20.240  0.00  0.00    -0.424 OA
ATOM      4  N   UNL     1      13.123   9.250  18.426  0.00  0.00    -0.112 NA
ATOM      5  N   UNL     1      14.250   8.485  18.185  0.00  0.00    -0.112 NA
ATOM     16  C   UNL     1      12.725   8.933  19.636  0.00  0.00    +0.222 A 
ATOM     18  C   UNL     1      14.439   7.771  19.271  0.00  0.00    +0.222 A 
ENDROOT
BRANCH  16   9
ATOM      2  N   UNL     1      10.938  10.307  22.525  0.00  0.00    -0.299 NA
ATOM      8  C   UNL     1      11.943  10.497  21.478  0.00  0.00    +0.097 C 
ATOM      9  C   UNL     1      11.547   9.449  20.429  0.00  0.00    +0.092 C 
ATOM     10  C   UNL     1      10.811   8.856  22.666  0.00  0.00    +0.085 C 
ATOM     11  C   UNL     1      10.781   8.374  21.222  0.00  0.00    +0.029 C 
BRANCH   2   7
ATOM      3  N   UNL     1      12.328  13.309  25.192  0.00  0.00    -0.305 NA
ATOM      7  C   UNL     1      11.309  10.958  23.779  0.00  0.00    +0.059 C 
ATOM     12  C   UNL     1      10.459  12.213  23.995  0.00  0.00    +0.034 C 
ATOM     13  C   UNL     1      12.795  11.327  23.787  0.00  0.00    +0.034 C 
ATOM     14  C   UNL     1      10.900  12.964  25.254  0.00  0.00    +0.085 C 
ATOM     15  C   UNL     1      13.160  12.107  25.052  0.00  0.00    +0.085 C 
ATOM     17  C   UNL     1      12.722  14.069  26.377  0.00  0.00    +0.104 C 
ENDBRANCH   2   7
ENDBRANCH  16   9
BRANCH  18  19
ATOM     19  C   UNL     1      15.484   6.786  19.571  0.00  0.00    +0.135 C 
BRANCH  19  20
ATOM      6  N   UNL     1      17.697   8.492  21.996  0.00  0.00    -0.360 N 
ATOM     20  C   UNL     1      16.592   7.292  20.490  0.00  0.00    -0.013 A 
ATOM     21  C   UNL     1      17.905   6.756  20.610  0.00  0.00    +0.003 A 
ATOM     22  C   UNL     1      16.495   8.358  21.354  0.00  0.00    +0.087 A 
ATOM     23  C   UNL     1      18.576   7.527  21.561  0.00  0.00    +0.047 A 
ATOM     24  C   UNL     1      18.587   5.685  19.999  0.00  0.00    +0.010 A 
ATOM     25  C   UNL     1      19.903   7.280  21.933  0.00  0.00    +0.026 A 
ATOM     26  C   UNL     1      19.914   5.426  20.361  0.00  0.00    +0.001 A 
ATOM     27  C   UNL     1      20.560   6.212  21.314  0.00  0.00    +0.002 A 
ATOM     28  H   UNL     1      17.909   9.197  22.688  0.00  0.00    +0.165 HD
ENDBRANCH  19  20
ENDBRANCH  18  19
TORSDOF 4
ENDMDL
MODEL 2
REMARK VINA RESULT:      -7.5     27.389     30.597
REMARK  Name = 51137368
REMARK  5 active torsions:
REMARK  status: ('A' for Active; 'I' for Inactive)
REMARK    1  A    between atoms: N_2  and  C_7
REMARK    2  A    between atoms: N_3  and  C_17
REMARK    3  A    between atoms: C_9  and  C_16
REMARK    4  A    between atoms: C_18  and  C_19
REMARK    5  A    between atoms: C_19  and  C_20
REMARK                            x       y       z     vdW  Elec       q    Type
REMARK                         _______ _______ _______ _____ _____    ______ ____
ROOT
ATOM      1  O   UNL     1     -15.772   4.090  24.822  0.00  0.00    -0.424 OA
ATOM      4  N   UNL     1     -16.537   2.566  23.374  0.00  0.00    -0.112 NA
ATOM      5  N   UNL     1     -15.701   3.426  22.687  0.00  0.00    -0.112 NA
ATOM     16  C   UNL     1     -16.549   2.991  24.616  0.00  0.00    +0.222 A 
ATOM     18  C   UNL     1     -15.278   4.299  23.571  0.00  0.00    +0.222 A 
ENDROOT
BRANCH  16   9
ATOM      2  N   UNL     1     -17.084   2.074  28.123  0.00  0.00    -0.299 NA
ATOM      8  C   UNL     1     -16.891   3.131  27.129  0.00  0.00    +0.097 C 
ATOM      9  C   UNL     1     -17.285   2.441  25.816  0.00  0.00    +0.092 C 
ATOM     10  C   UNL     1     -16.529   0.869  27.506  0.00  0.00    +0.085 C 
ATOM     11  C   UNL     1     -17.060   0.942  26.081  0.00  0.00    +0.029 C 
BRANCH   2   7
ATOM      3  N   UNL     1     -14.033   2.553  31.042  0.00  0.00    -0.305 NA
ATOM      7  C   UNL     1     -16.450   2.388  29.401  0.00  0.00    +0.059 C 
ATOM     12  C   UNL     1     -15.413   3.500  29.219  0.00  0.00    +0.034 C 
ATOM     13  C   UNL     1     -15.785   1.148  30.004  0.00  0.00    +0.034 C 
ATOM     14  C   UNL     1     -14.667   3.775  30.527  0.00  0.00    +0.085 C 
ATOM     15  C   UNL     1     -15.027   1.499  31.286  0.00  0.00    +0.085 C 
ATOM     17  C   UNL     1     -13.283   2.842  32.264  0.00  0.00    +0.104 C 
ENDBRANCH   2   7
ENDBRANCH  16   9
BRANCH  18  19
ATOM     19  C   UNL     1     -14.367   5.437  23.399  0.00  0.00    +0.135 C 
BRANCH  19  20
ATOM      6  N   UNL     1     -15.584   7.387  20.501  0.00  0.00    -0.360 N 
ATOM     20  C   UNL     1     -14.590   6.246  22.125  0.00  0.00    -0.013 A 
ATOM     21  C   UNL     1     -13.594   6.654  21.194  0.00  0.00    +0.003 A 
ATOM     22  C   UNL     1     -15.802   6.711  21.671  0.00  0.00    +0.087 A 
ATOM     23  C   UNL     1     -14.244   7.367  20.186  0.00  0.00    +0.047 A 
ATOM     24  C   UNL     1     -12.198   6.483  21.114  0.00  0.00    +0.010 A 
ATOM     25  C   UNL     1     -13.564   7.921  19.095  0.00  0.00    +0.026 A 
ATOM     26  C   UNL     1     -11.504   7.031  20.029  0.00  0.00    +0.001 A 
ATOM     27  C   UNL     1     -12.179   7.740  19.035  0.00  0.00    +0.002 A 
ATOM     28  H   UNL     1     -16.301   7.834  19.947  0.00  0.00    +0.165 HD
ENDBRANCH  19  20
ENDBRANCH  18  19
TORSDOF 4
ENDMDL
MODEL 3
REMARK VINA RESULT:      -7.5      1.598      7.578
REMARK  Name = 51137368
REMARK  5 active torsions:
REMARK  status: ('A' for Active; 'I' for Inactive)
REMARK    1  A    between atoms: N_2  and  C_7
REMARK    2  A    between atoms: N_3  and  C_17
REMARK    3  A    between atoms: C_9  and  C_16
REMARK    4  A    between atoms: C_18  and  C_19
REMARK    5  A    between atoms: C_19  and  C_20
REMARK                            x       y       z     vdW  Elec       q    Type
REMARK                         _______ _______ _______ _____ _____    ______ ____
ROOT
ATOM      1  O   UNL     1      13.365   7.317  20.140  0.00  0.00    -0.424 OA
ATOM      4  N   UNL     1      14.513   7.922  18.318  0.00  0.00    -0.112 NA
ATOM      5  N   UNL     1      13.281   8.549  18.274  0.00  0.00    -0.112 NA
ATOM     16  C   UNL     1      14.518   7.215  19.423  0.00  0.00    +0.222 A 
ATOM     18  C   UNL     1      12.645   8.166  19.357  0.00  0.00    +0.222 A 
ENDROOT
BRANCH  16   9
ATOM      2  N   UNL     1      17.718   6.375  21.001  0.00  0.00    -0.299 NA
ATOM      8  C   UNL     1      16.399   7.002  21.116  0.00  0.00    +0.097 C 
ATOM      9  C   UNL     1      15.600   6.327  19.993  0.00  0.00    +0.092 C 
ATOM     10  C   UNL     1      17.991   6.334  19.564  0.00  0.00    +0.085 C 
ATOM     11  C   UNL     1      16.664   5.871  18.978  0.00  0.00    +0.029 C 
BRANCH   2   7
ATOM      3  N   UNL     1      20.848   9.134  21.805  0.00  0.00    -0.305 NA
ATOM      7  C   UNL     1      18.746   7.100  21.743  0.00  0.00    +0.059 C 
ATOM     12  C   UNL     1      18.432   8.598  21.758  0.00  0.00    +0.034 C 
ATOM     13  C   UNL     1      20.131   6.862  21.135  0.00  0.00    +0.034 C 
ATOM     14  C   UNL     1      19.550   9.386  22.446  0.00  0.00    +0.085 C 
ATOM     15  C   UNL     1      21.193   7.706  21.843  0.00  0.00    +0.085 C 
ATOM     17  C   UNL     1      21.896   9.931  22.441  0.00  0.00    +0.104 C 
ENDBRANCH   2   7
ENDBRANCH  16   9
BRANCH  18  19
ATOM     19  C   UNL     1      11.301   8.522  19.826  0.00  0.00    +0.135 C 
BRANCH  19  20
ATOM      6  N   UNL     1      10.962   9.193  23.449  0.00  0.00    -0.360 N 
ATOM     20  C   UNL     1      11.246   9.066  21.250  0.00  0.00    -0.013 A 
ATOM     21  C   UNL     1      11.554  10.393  21.664  0.00  0.00    +0.003 A 
ATOM     22  C   UNL     1      10.885   8.353  22.370  0.00  0.00    +0.087 A 
ATOM     23  C   UNL     1      11.367  10.445  23.046  0.00  0.00    +0.047 A 
ATOM     24  C   UNL     1      11.975  11.557  20.991  0.00  0.00    +0.010 A 
ATOM     25  C   UNL     1      11.581  11.609  23.793  0.00  0.00    +0.026 A 
ATOM     26  C   UNL     1      12.193  12.728  21.725  0.00  0.00    +0.001 A 
ATOM     27  C   UNL     1      11.999  12.752  23.105  0.00  0.00    +0.002 A 
ATOM     28  H   UNL     1      10.750   8.932  24.402  0.00  0.00    +0.165 HD
ENDBRANCH  19  20
ENDBRANCH  18  19
TORSDOF 4
ENDMDL
MODEL 4
REMARK VINA RESULT:      -7.4     26.816     28.994
REMARK  Name = 51137368
REMARK  5 active torsions:
REMARK  status: ('A' for Active; 'I' for Inactive)
REMARK    1  A    between atoms: N_2  and  C_7
REMARK    2  A    between atoms: N_3  and  C_17
REMARK    3  A    between atoms: C_9  and  C_16
REMARK    4  A    between atoms: C_18  and  C_19
REMARK    5  A    between atoms: C_19  and  C_20
REMARK                            x       y       z     vdW  Elec       q    Type
REMARK                         _______ _______ _______ _____ _____    ______ ____
ROOT
ATOM      1  O   UNL     1      -3.255 -10.880  14.793  0.00  0.00    -0.424 OA
ATOM      4  N   UNL     1      -1.888 -10.827  16.563  0.00  0.00    -0.112 NA
ATOM      5  N   UNL     1      -1.187 -10.358  15.467  0.00  0.00    -0.112 NA
ATOM     16  C   UNL     1      -3.089 -11.119  16.123  0.00  0.00    +0.222 A 
ATOM     18  C   UNL     1      -2.024 -10.407  14.457  0.00  0.00    +0.222 A 
ENDROOT
BRANCH  16   9
ATOM      2  N   UNL     1      -6.328 -11.052  17.837  0.00  0.00    -0.299 NA
ATOM      8  C   UNL     1      -5.575 -10.892  16.591  0.00  0.00    +0.097 C 
ATOM      9  C   UNL     1      -4.282 -11.670  16.871  0.00  0.00    +0.092 C 
ATOM     10  C   UNL     1      -5.341 -10.858  18.900  0.00  0.00    +0.085 C 
ATOM     11  C   UNL     1      -4.144 -11.657  18.404  0.00  0.00    +0.029 C 
BRANCH   2   7
ATOM      3  N   UNL     1     -10.127  -9.296  17.101  0.00  0.00    -0.305 NA
ATOM      7  C   UNL     1      -7.445 -10.117  17.936  0.00  0.00    +0.059 C 
ATOM     12  C   UNL     1      -8.706 -10.846  18.407  0.00  0.00    +0.034 C 
ATOM     13  C   UNL     1      -7.709  -9.432  16.592  0.00  0.00    +0.034 C 
ATOM     14  C   UNL     1      -9.912  -9.903  18.423  0.00  0.00    +0.085 C 
ATOM     15  C   UNL     1      -8.948  -8.536  16.666  0.00  0.00    +0.085 C 
ATOM     17  C   UNL     1     -11.311  -8.439  17.119  0.00  0.00    +0.104 C 
ENDBRANCH   2   7
ENDBRANCH  16   9
BRANCH  18  19
ATOM     19  C   UNL     1      -1.818 -10.029  13.054  0.00  0.00    +0.135 C 
BRANCH  19  20
ATOM      6  N   UNL     1      -3.211 -12.780  11.011  0.00  0.00    -0.360 N 
ATOM     20  C   UNL     1      -2.489 -10.951  12.041  0.00  0.00    -0.013 A 
ATOM     21  C   UNL     1      -3.194 -10.553  10.870  0.00  0.00    +0.003 A 
ATOM     22  C   UNL     1      -2.517 -12.325  12.099  0.00  0.00    +0.087 A 
ATOM     23  C   UNL     1      -3.637 -11.720  10.243  0.00  0.00    +0.047 A 
ATOM     24  C   UNL     1      -3.500  -9.309  10.283  0.00  0.00    +0.010 A 
ATOM     25  C   UNL     1      -4.372 -11.704   9.052  0.00  0.00    +0.026 A 
ATOM     26  C   UNL     1      -4.234  -9.278   9.093  0.00  0.00    +0.001 A 
ATOM     27  C   UNL     1      -4.663 -10.459   8.488  0.00  0.00    +0.002 A 
ATOM     28  H   UNL     1      -3.386 -13.753  10.800  0.00  0.00    +0.165 HD
ENDBRANCH  19  20
ENDBRANCH  18  19
TORSDOF 4
ENDMDL
MODEL 5
REMARK VINA RESULT:      -7.4     27.068     29.511
REMARK  Name = 51137368
REMARK  5 active torsions:
REMARK  status: ('A' for Active; 'I' for Inactive)
REMARK    1  A    between atoms: N_2  and  C_7
REMARK    2  A    between atoms: N_3  and  C_17
REMARK    3  A    between atoms: C_9  and  C_16
REMARK    4  A    between atoms: C_18  and  C_19
REMARK    5  A    between atoms: C_19  and  C_20
REMARK                            x       y       z     vdW  Elec       q    Type
REMARK                         _______ _______ _______ _____ _____    ______ ____
ROOT
ATOM      1  O   UNL     1      -2.970 -11.351  14.580  0.00  0.00    -0.424 OA
ATOM      4  N   UNL     1      -1.273  -9.903  14.418  0.00  0.00    -0.112 NA
ATOM      5  N   UNL     1      -1.686  -9.932  15.737  0.00  0.00    -0.112 NA
ATOM     16  C   UNL     1      -2.049 -10.746  13.779  0.00  0.00    +0.222 A 
ATOM     18  C   UNL     1      -2.678 -10.790  15.785  0.00  0.00    +0.222 A 
ENDROOT
BRANCH  16   9
ATOM      2  N   UNL     1      -3.169 -10.723  10.290  0.00  0.00    -0.299 NA
ATOM      8  C   UNL     1      -2.561  -9.998  11.407  0.00  0.00    +0.097 C 
ATOM      9  C   UNL     1      -2.061 -11.128  12.317  0.00  0.00    +0.092 C 
ATOM     10  C   UNL     1      -3.922 -11.812  10.914  0.00  0.00    +0.085 C 
ATOM     11  C   UNL     1      -2.956 -12.331  11.970  0.00  0.00    +0.029 C 
BRANCH   2   7
ATOM      3  N   UNL     1      -6.665  -9.169   8.440  0.00  0.00    -0.305 NA
ATOM      7  C   UNL     1      -4.014  -9.865   9.463  0.00  0.00    +0.059 C 
ATOM     12  C   UNL     1      -5.063  -9.162  10.327  0.00  0.00    +0.034 C 
ATOM     13  C   UNL     1      -4.702 -10.673   8.359  0.00  0.00    +0.034 C 
ATOM     14  C   UNL     1      -6.020  -8.335   9.464  0.00  0.00    +0.085 C 
ATOM     15  C   UNL     1      -5.670  -9.797   7.561  0.00  0.00    +0.085 C 
ATOM     17  C   UNL     1      -7.613  -8.376   7.657  0.00  0.00    +0.104 C 
ENDBRANCH   2   7
ENDBRANCH  16   9
BRANCH  18  19
ATOM     19  C   UNL     1      -3.491 -11.217  16.930  0.00  0.00    +0.135 C 
BRANCH  19  20
ATOM      6  N   UNL     1      -6.673  -9.381  16.493  0.00  0.00    -0.360 N 
ATOM     20  C   UNL     1      -4.894 -10.620  16.973  0.00  0.00    -0.013 A 
ATOM     21  C   UNL     1      -5.934 -10.964  17.881  0.00  0.00    +0.003 A 
ATOM     22  C   UNL     1      -5.378  -9.644  16.132  0.00  0.00    +0.087 A 
ATOM     23  C   UNL     1      -7.038 -10.173  17.558  0.00  0.00    +0.047 A 
ATOM     24  C   UNL     1      -6.042 -11.876  18.950  0.00  0.00    +0.010 A 
ATOM     25  C   UNL     1      -8.250 -10.248  18.254  0.00  0.00    +0.026 A 
ATOM     26  C   UNL     1      -7.247 -11.962  19.655  0.00  0.00    +0.001 A 
ATOM     27  C   UNL     1      -8.334 -11.160  19.311  0.00  0.00    +0.002 A 
ATOM     28  H   UNL     1      -7.273  -8.704  16.044  0.00  0.00    +0.165 HD
ENDBRANCH  19  20
ENDBRANCH  18  19
TORSDOF 4
ENDMDL
MODEL 6
REMARK VINA RESULT:      -7.1     27.061     30.777
REMARK  Name = 51137368
REMARK  5 active torsions:
REMARK  status: ('A' for Active; 'I' for Inactive)
REMARK    1  A    between atoms: N_2  and  C_7
REMARK    2  A    between atoms: N_3  and  C_17
REMARK    3  A    between atoms: C_9  and  C_16
REMARK    4  A    between atoms: C_18  and  C_19
REMARK    5  A    between atoms: C_19  and  C_20
REMARK                            x       y       z     vdW  Elec       q    Type
REMARK                         _______ _______ _______ _____ _____    ______ ____
ROOT
ATOM      1  O   UNL     1      -8.173 -10.382  17.798  0.00  0.00    -0.424 OA
ATOM      4  N   UNL     1      -8.272 -11.015  19.941  0.00  0.00    -0.112 NA
ATOM      5  N   UNL     1      -9.564 -10.956  19.453  0.00  0.00    -0.112 NA
ATOM     16  C   UNL     1      -7.494 -10.672  18.942  0.00  0.00    +0.222 A 
ATOM     18  C   UNL     1      -9.458 -10.583  18.199  0.00  0.00    +0.222 A 
ENDROOT
BRANCH  16   9
ATOM      2  N   UNL     1      -4.128 -11.022  17.536  0.00  0.00    -0.299 NA
ATOM      8  C   UNL     1      -5.450 -10.397  17.460  0.00  0.00    +0.097 C 
ATOM      9  C   UNL     1      -5.988 -10.560  18.888  0.00  0.00    +0.092 C 
ATOM     10  C   UNL     1      -4.333 -12.243  18.315  0.00  0.00    +0.085 C 
ATOM     11  C   UNL     1      -5.229 -11.774  19.453  0.00  0.00    +0.029 C 
BRANCH   2   7
ATOM      3  N   UNL     1      -2.420 -10.297  13.713  0.00  0.00    -0.305 NA
ATOM      7  C   UNL     1      -3.562 -11.291  16.216  0.00  0.00    +0.059 C 
ATOM     12  C   UNL     1      -2.135 -10.745  16.130  0.00  0.00    +0.034 C 
ATOM     13  C   UNL     1      -4.425 -10.673  15.113  0.00  0.00    +0.034 C 
ATOM     14  C   UNL     1      -1.560 -10.930  14.723  0.00  0.00    +0.085 C 
ATOM     15  C   UNL     1      -3.776 -10.859  13.739  0.00  0.00    +0.085 C 
ATOM     17  C   UNL     1      -1.832 -10.438  12.381  0.00  0.00    +0.104 C 
ENDBRANCH   2   7
ENDBRANCH  16   9
BRANCH  18  19
ATOM     19  C   UNL     1     -10.508 -10.361  17.198  0.00  0.00    +0.135 C 
BRANCH  19  20
ATOM      6  N   UNL     1     -10.700  -6.678  16.897  0.00  0.00    -0.360 N 
ATOM     20  C   UNL     1     -10.830  -8.894  16.926  0.00  0.00    -0.013 A 
ATOM     21  C   UNL     1     -11.954  -8.391  16.211  0.00  0.00    +0.003 A 
ATOM     22  C   UNL     1     -10.079  -7.817  17.335  0.00  0.00    +0.087 A 
ATOM     23  C   UNL     1     -11.847  -6.999  16.208  0.00  0.00    +0.047 A 
ATOM     24  C   UNL     1     -13.053  -8.990  15.565  0.00  0.00    +0.010 A 
ATOM     25  C   UNL     1     -12.790  -6.172  15.588  0.00  0.00    +0.026 A 
ATOM     26  C   UNL     1     -14.004  -8.175  14.940  0.00  0.00    +0.001 A 
ATOM     27  C   UNL     1     -13.873  -6.787  14.953  0.00  0.00    +0.002 A 
ATOM     28  H   UNL     1     -10.365  -5.738  17.057  0.00  0.00    +0.165 HD
ENDBRANCH  19  20
ENDBRANCH  18  19
TORSDOF 4
ENDMDL
MODEL 7
REMARK VINA RESULT:      -7.0     17.517     21.270
REMARK  Name = 51137368
REMARK  5 active torsions:
REMARK  status: ('A' for Active; 'I' for Inactive)
REMARK    1  A    between atoms: N_2  and  C_7
REMARK    2  A    between atoms: N_3  and  C_17
REMARK    3  A    between atoms: C_9  and  C_16
REMARK    4  A    between atoms: C_18  and  C_19
REMARK    5  A    between atoms: C_19  and  C_20
REMARK                            x       y       z     vdW  Elec       q    Type
REMARK                         _______ _______ _______ _____ _____    ______ ____
ROOT
ATOM      1  O   UNL     1      11.540   5.855   2.657  0.00  0.00    -0.424 OA
ATOM      4  N   UNL     1      13.215   6.923   3.686  0.00  0.00    -0.112 NA
ATOM      5  N   UNL     1      12.078   7.064   4.461  0.00  0.00    -0.112 NA
ATOM     16  C   UNL     1      12.854   6.211   2.644  0.00  0.00    +0.222 A 
ATOM     18  C   UNL     1      11.126   6.425   3.822  0.00  0.00    +0.222 A 
ENDROOT
BRANCH  16   9
ATOM      2  N   UNL     1      13.519   4.649  -0.603  0.00  0.00    -0.299 NA
ATOM      8  C   UNL     1      12.884   5.731   0.150  0.00  0.00    +0.097 C 
ATOM      9  C   UNL     1      13.675   5.743   1.465  0.00  0.00    +0.092 C 
ATOM     10  C   UNL     1      13.714   3.575   0.371  0.00  0.00    +0.085 C 
ATOM     11  C   UNL     1      14.237   4.316   1.594  0.00  0.00    +0.029 C 
BRANCH   2   7
ATOM      3  N   UNL     1      10.208   3.168  -2.818  0.00  0.00    -0.305 NA
ATOM      7  C   UNL     1      12.719   4.223  -1.749  0.00  0.00    +0.059 C 
ATOM     12  C   UNL     1      11.455   5.080  -1.861  0.00  0.00    +0.034 C 
ATOM     13  C   UNL     1      12.339   2.744  -1.634  0.00  0.00    +0.034 C 
ATOM     14  C   UNL     1      10.556   4.585  -2.996  0.00  0.00    +0.085 C 
ATOM     15  C   UNL     1      11.411   2.326  -2.776  0.00  0.00    +0.085 C 
ATOM     17  C   UNL     1       9.308   2.725  -3.881  0.00  0.00    +0.104 C 
ENDBRANCH   2   7
ENDBRANCH  16   9
BRANCH  18  19
ATOM     19  C   UNL     1       9.715   6.246   4.184  0.00  0.00    +0.135 C 
BRANCH  19  20
ATOM      6  N   UNL     1       8.725   7.829   7.378  0.00  0.00    -0.360 N 
ATOM     20  C   UNL     1       9.369   6.641   5.616  0.00  0.00    -0.013 A 
ATOM     21  C   UNL     1       9.450   5.809   6.768  0.00  0.00    +0.003 A 
ATOM     22  C   UNL     1       8.920   7.876   6.023  0.00  0.00    +0.087 A 
ATOM     23  C   UNL     1       9.041   6.579   7.859  0.00  0.00    +0.047 A 
ATOM     24  C   UNL     1       9.834   4.471   6.987  0.00  0.00    +0.010 A 
ATOM     25  C   UNL     1       8.997   6.075   9.164  0.00  0.00    +0.026 A 
ATOM     26  C   UNL     1       9.795   3.954   8.287  0.00  0.00    +0.001 A 
ATOM     27  C   UNL     1       9.382   4.745   9.358  0.00  0.00    +0.002 A 
ATOM     28  H   UNL     1       8.398   8.600   7.942  0.00  0.00    +0.165 HD
ENDBRANCH  19  20
ENDBRANCH  18  19
TORSDOF 4
ENDMDL
MODEL 8
REMARK VINA RESULT:      -6.9     29.984     31.887
REMARK  Name = 51137368
REMARK  5 active torsions:
REMARK  status: ('A' for Active; 'I' for Inactive)
REMARK    1  A    between atoms: N_2  and  C_7
REMARK    2  A    between atoms: N_3  and  C_17
REMARK    3  A    between atoms: C_9  and  C_16
REMARK    4  A    between atoms: C_18  and  C_19
REMARK    5  A    between atoms: C_19  and  C_20
REMARK                            x       y       z     vdW  Elec       q    Type
REMARK                         _______ _______ _______ _____ _____    ______ ____
ROOT
ATOM      1  O   UNL     1     -12.003  -4.765  12.482  0.00  0.00    -0.424 OA
ATOM      4  N   UNL     1     -13.815  -3.726  13.282  0.00  0.00    -0.112 NA
ATOM      5  N   UNL     1     -13.461  -3.113  12.094  0.00  0.00    -0.112 NA
ATOM     16  C   UNL     1     -12.938  -4.683  13.469  0.00  0.00    +0.222 A 
ATOM     18  C   UNL     1     -12.399  -3.753  11.663  0.00  0.00    +0.222 A 
ENDROOT
BRANCH  16   9
ATOM      2  N   UNL     1     -11.398  -7.290  15.535  0.00  0.00    -0.299 NA
ATOM      8  C   UNL     1     -11.379  -5.905  15.060  0.00  0.00    +0.097 C 
ATOM      9  C   UNL     1     -12.826  -5.681  14.598  0.00  0.00    +0.092 C 
ATOM     10  C   UNL     1     -12.175  -8.021  14.533  0.00  0.00    +0.085 C 
ATOM     11  C   UNL     1     -13.351  -7.091  14.269  0.00  0.00    +0.029 C 
BRANCH   2   7
ATOM      3  N   UNL     1      -8.324 -10.086  16.419  0.00  0.00    -0.305 NA
ATOM      7  C   UNL     1     -10.056  -7.838  15.708  0.00  0.00    +0.059 C 
ATOM     12  C   UNL     1      -9.848  -9.035  14.777  0.00  0.00    +0.034 C 
ATOM     13  C   UNL     1      -9.818  -8.259  17.161  0.00  0.00    +0.034 C 
ATOM     14  C   UNL     1      -8.482  -9.684  15.014  0.00  0.00    +0.085 C 
ATOM     15  C   UNL     1      -8.454  -8.934  17.321  0.00  0.00    +0.085 C 
ATOM     17  C   UNL     1      -7.036 -10.750  16.619  0.00  0.00    +0.104 C 
ENDBRANCH   2   7
ENDBRANCH  16   9
BRANCH  18  19
ATOM     19  C   UNL     1     -11.603  -3.531  10.450  0.00  0.00    +0.135 C 
BRANCH  19  20
ATOM      6  N   UNL     1     -12.832  -5.883   7.873  0.00  0.00    -0.360 N 
ATOM     20  C   UNL     1     -11.829  -4.556   9.343  0.00  0.00    -0.013 A 
ATOM     21  C   UNL     1     -10.825  -5.271   8.631  0.00  0.00    +0.003 A 
ATOM     22  C   UNL     1     -13.052  -4.954   8.854  0.00  0.00    +0.087 A 
ATOM     23  C   UNL     1     -11.482  -6.096   7.715  0.00  0.00    +0.047 A 
ATOM     24  C   UNL     1      -9.417  -5.294   8.678  0.00  0.00    +0.010 A 
ATOM     25  C   UNL     1     -10.797  -6.948   6.842  0.00  0.00    +0.026 A 
ATOM     26  C   UNL     1      -8.719  -6.140   7.810  0.00  0.00    +0.001 A 
ATOM     27  C   UNL     1      -9.400  -6.954   6.906  0.00  0.00    +0.002 A 
ATOM     28  H   UNL     1     -13.556  -6.347   7.342  0.00  0.00    +0.165 HD
ENDBRANCH  19  20
ENDBRANCH  18  19
TORSDOF 4
ENDMDL
MODEL 9
REMARK VINA RESULT:      -6.9     27.327     29.576
REMARK  Name = 51137368
REMARK  5 active torsions:
REMARK  status: ('A' for Active; 'I' for Inactive)
REMARK    1  A    between atoms: N_2  and  C_7
REMARK    2  A    between atoms: N_3  and  C_17
REMARK    3  A    between atoms: C_9  and  C_16
REMARK    4  A    between atoms: C_18  and  C_19
REMARK    5  A    between atoms: C_19  and  C_20
REMARK                            x       y       z     vdW  Elec       q    Type
REMARK                         _______ _______ _______ _____ _____    ______ ____
ROOT
ATOM      1  O   UNL     1      -3.453 -11.805  15.230  0.00  0.00    -0.424 OA
ATOM      4  N   UNL     1      -1.863 -10.636  16.283  0.00  0.00    -0.112 NA
ATOM      5  N   UNL     1      -1.261 -11.360  15.271  0.00  0.00    -0.112 NA
ATOM     16  C   UNL     1      -3.141 -10.926  16.222  0.00  0.00    +0.222 A 
ATOM     18  C   UNL     1      -2.227 -12.027  14.683  0.00  0.00    +0.222 A 
ENDROOT
BRANCH  16   9
ATOM      2  N   UNL     1      -6.402 -11.025  17.892  0.00  0.00    -0.299 NA
ATOM      8  C   UNL     1      -5.046 -11.566  17.776  0.00  0.00    +0.097 C 
ATOM      9  C   UNL     1      -4.284 -10.431  17.079  0.00  0.00    +0.092 C 
ATOM     10  C   UNL     1      -6.665 -10.386  16.602  0.00  0.00    +0.085 C 
ATOM     11  C   UNL     1      -5.367  -9.643  16.318  0.00  0.00    +0.029 C 
BRANCH   2   7
ATOM      3  N   UNL     1      -9.883 -12.828  19.531  0.00  0.00    -0.305 NA
ATOM      7  C   UNL     1      -7.386 -12.053  18.217  0.00  0.00    +0.059 C 
ATOM     12  C   UNL     1      -8.758 -11.671  17.655  0.00  0.00    +0.034 C 
ATOM     13  C   UNL     1      -7.482 -12.263  19.731  0.00  0.00    +0.034 C 
ATOM     14  C   UNL     1      -9.824 -12.688  18.068  0.00  0.00    +0.085 C 
ATOM     15  C   UNL     1      -8.590 -13.260  20.077  0.00  0.00    +0.085 C 
ATOM     17  C   UNL     1     -10.940 -13.764  19.913  0.00  0.00    +0.104 C 
ENDBRANCH   2   7
ENDBRANCH  16   9
BRANCH  18  19
ATOM     19  C   UNL     1      -2.166 -12.953  13.546  0.00  0.00    +0.135 C 
BRANCH  19  20
ATOM      6  N   UNL     1      -4.611 -12.640  10.787  0.00  0.00    -0.360 N 
ATOM     20  C   UNL     1      -3.048 -12.568  12.362  0.00  0.00    -0.013 A 
ATOM     21  C   UNL     1      -2.972 -11.366  11.604  0.00  0.00    +0.003 A 
ATOM     22  C   UNL     1      -4.064 -13.331  11.835  0.00  0.00    +0.087 A 
ATOM     23  C   UNL     1      -3.963 -11.437  10.623  0.00  0.00    +0.047 A 
ATOM     24  C   UNL     1      -2.153 -10.220  11.660  0.00  0.00    +0.010 A 
ATOM     25  C   UNL     1      -4.176 -10.416   9.690  0.00  0.00    +0.026 A 
ATOM     26  C   UNL     1      -2.355  -9.191  10.733  0.00  0.00    +0.001 A 
ATOM     27  C   UNL     1      -3.352  -9.289   9.764  0.00  0.00    +0.002 A 
ATOM     28  H   UNL     1      -5.377 -12.967  10.215  0.00  0.00    +0.165 HD
ENDBRANCH  19  20
ENDBRANCH  18  19
TORSDOF 4
ENDMDL
MODEL 10
REMARK VINA RESULT:      -6.6     27.311     30.935
REMARK  Name = 51137368
REMARK  5 active torsions:
REMARK  status: ('A' for Active; 'I' for Inactive)
REMARK    1  A    between atoms: N_2  and  C_7
REMARK    2  A    between atoms: N_3  and  C_17
REMARK    3  A    between atoms: C_9  and  C_16
REMARK    4  A    between atoms: C_18  and  C_19
REMARK    5  A    between atoms: C_19  and  C_20
REMARK                            x       y       z     vdW  Elec       q    Type
REMARK                         _______ _______ _______ _____ _____    ______ ____
ROOT
ATOM      1  O   UNL     1      -8.120 -10.544  19.604  0.00  0.00    -0.424 OA
ATOM      4  N   UNL     1      -8.043 -12.688  18.970  0.00  0.00    -0.112 NA
ATOM      5  N   UNL     1      -9.355 -12.381  19.278  0.00  0.00    -0.112 NA
ATOM     16  C   UNL     1      -7.358 -11.587  19.174  0.00  0.00    +0.222 A 
ATOM     18  C   UNL     1      -9.353 -11.120  19.643  0.00  0.00    +0.222 A 
ENDROOT
BRANCH  16   9
ATOM      2  N   UNL     1      -4.234 -10.901  17.384  0.00  0.00    -0.299 NA
ATOM      8  C   UNL     1      -5.565 -10.441  17.787  0.00  0.00    +0.097 C 
ATOM      9  C   UNL     1      -5.879 -11.326  19.001  0.00  0.00    +0.092 C 
ATOM     10  C   UNL     1      -4.296 -12.360  17.477  0.00  0.00    +0.085 C 
ATOM     11  C   UNL     1      -5.020 -12.587  18.797  0.00  0.00    +0.029 C 
BRANCH   2   7
ATOM      3  N   UNL     1      -2.949 -11.052  13.337  0.00  0.00    -0.305 NA
ATOM      7  C   UNL     1      -3.868 -10.442  16.047  0.00  0.00    +0.059 C 
ATOM     12  C   UNL     1      -4.783 -11.080  14.999  0.00  0.00    +0.034 C 
ATOM     13  C   UNL     1      -2.406 -10.773  15.735  0.00  0.00    +0.034 C 
ATOM     14  C   UNL     1      -4.352 -10.689  13.583  0.00  0.00    +0.085 C 
ATOM     15  C   UNL     1      -2.052 -10.393  14.295  0.00  0.00    +0.085 C 
ATOM     17  C   UNL     1      -2.567 -10.719  11.965  0.00  0.00    +0.104 C 
ENDBRANCH   2   7
ENDBRANCH  16   9
BRANCH  18  19
ATOM     19  C   UNL     1     -10.469 -10.270  20.074  0.00  0.00    +0.135 C 
BRANCH  19  20
ATOM      6  N   UNL     1     -13.250  -9.744  17.692  0.00  0.00    -0.360 N 
ATOM     20  C   UNL     1     -11.433  -9.870  18.961  0.00  0.00    -0.013 A 
ATOM     21  C   UNL     1     -11.174  -8.955  17.902  0.00  0.00    +0.003 A 
ATOM     22  C   UNL     1     -12.717 -10.338  18.804  0.00  0.00    +0.087 A 
ATOM     23  C   UNL     1     -12.330  -8.894  17.121  0.00  0.00    +0.047 A 
ATOM     24  C   UNL     1     -10.063  -8.170  17.534  0.00  0.00    +0.010 A 
ATOM     25  C   UNL     1     -12.430  -8.085  15.984  0.00  0.00    +0.026 A 
ATOM     26  C   UNL     1     -10.149  -7.356  16.399  0.00  0.00    +0.001 A 
ATOM     27  C   UNL     1     -11.316  -7.314  15.637  0.00  0.00    +0.002 A 
ATOM     28  H   UNL     1     -14.183  -9.905  17.340  0.00  0.00    +0.165 HD
ENDBRANCH  19  20
ENDBRANCH  18  19
TORSDOF 4
ENDMDL
