MODEL 1
REMARK VINA RESULT:      -7.1      0.000      0.000
REMARK  Name = 51137928
REMARK  4 active torsions:
REMARK  status: ('A' for Active; 'I' for Inactive)
REMARK    1  A    between atoms: C_7  and  C_11
REMARK    2  A    between atoms: C_14  and  C_16
REMARK    3  A    between atoms: C_18  and  C_24
REMARK    4  A    between atoms: C_21  and  C_25
REMARK                            x       y       z     vdW  Elec       q    Type
REMARK                         _______ _______ _______ _____ _____    ______ ____
ROOT
ATOM      2  N   UNL     1     -16.959   3.458  26.193  0.00  0.00    -0.314 N 
ATOM      4  N   UNL     1     -15.927   3.731  28.286  0.00  0.00    -0.239 NA
ATOM      7  C   UNL     1     -17.235   4.943  24.359  0.00  0.00    +0.095 C 
ATOM      8  C   UNL     1     -18.174   3.745  24.197  0.00  0.00    +0.033 C 
ATOM      9  C   UNL     1     -16.880   4.880  25.858  0.00  0.00    +0.119 C 
ATOM     10  C   UNL     1     -17.593   2.683  25.131  0.00  0.00    +0.107 C 
ATOM     12  C   UNL     1     -16.497   2.914  27.373  0.00  0.00    +0.121 A 
ATOM     13  C   UNL     1     -16.652   1.548  27.544  0.00  0.00    +0.045 A 
ATOM     15  C   UNL     1     -16.192   0.985  28.729  0.00  0.00    +0.024 A 
ATOM     17  C   UNL     1     -15.490   3.148  29.425  0.00  0.00    +0.131 A 
ATOM     18  C   UNL     1     -15.599   1.793  29.692  0.00  0.00    +0.070 A 
ENDROOT
BRANCH   7  11
ATOM      1  O   UNL     1     -15.476   6.062  23.062  0.00  0.00    -0.420 OA
ATOM      3  N   UNL     1     -15.541   3.843  22.781  0.00  0.00    -0.112 NA
ATOM      5  N   UNL     1     -14.515   4.343  22.002  0.00  0.00    -0.107 NA
ATOM     11  C   UNL     1     -16.074   4.882  23.382  0.00  0.00    +0.222 A 
ATOM     14  C   UNL     1     -14.513   5.640  22.196  0.00  0.00    +0.248 A 
BRANCH  14  16
ATOM     16  C   UNL     1     -13.670   6.664  21.649  0.00  0.00    +0.038 A 
ATOM     19  C   UNL     1     -12.413   6.334  21.142  0.00  0.00    +0.013 A 
ATOM     20  C   UNL     1     -14.107   7.988  21.623  0.00  0.00    +0.013 A 
ATOM     21  C   UNL     1     -12.029   8.653  20.585  0.00  0.00    -0.050 A 
ATOM     22  C   UNL     1     -11.593   7.328  20.611  0.00  0.00    +0.004 A 
ATOM     23  C   UNL     1     -13.287   8.983  21.091  0.00  0.00    +0.004 A 
ATOM     25  C   UNL     1     -11.152   9.717  20.016  0.00  0.00    +0.044 C 
ENDBRANCH  14  16
ENDBRANCH   7  11
BRANCH  18  24
ATOM      6  N   UNL     1     -14.724   0.797  31.914  0.00  0.00    -0.191 NA
ATOM     24  C   UNL     1     -15.117   1.244  30.917  0.00  0.00    +0.101 C 
ENDBRANCH  18  24
TORSDOF 3
ENDMDL
MODEL 2
REMARK VINA RESULT:      -6.9     20.282     21.702
REMARK  Name = 51137928
REMARK  4 active torsions:
REMARK  status: ('A' for Active; 'I' for Inactive)
REMARK    1  A    between atoms: C_7  and  C_11
REMARK    2  A    between atoms: C_14  and  C_16
REMARK    3  A    between atoms: C_18  and  C_24
REMARK    4  A    between atoms: C_21  and  C_25
REMARK                            x       y       z     vdW  Elec       q    Type
REMARK                         _______ _______ _______ _____ _____    ______ ____
ROOT
ATOM      2  N   UNL     1      -3.423 -11.597  15.852  0.00  0.00    -0.314 N 
ATOM      4  N   UNL     1      -5.501 -12.491  16.488  0.00  0.00    -0.239 NA
ATOM      7  C   UNL     1      -2.041 -11.997  13.961  0.00  0.00    +0.095 C 
ATOM      8  C   UNL     1      -1.239 -11.264  15.040  0.00  0.00    +0.033 C 
ATOM      9  C   UNL     1      -3.233 -12.556  14.763  0.00  0.00    +0.119 C 
ATOM     10  C   UNL     1      -2.304 -10.667  15.959  0.00  0.00    +0.107 C 
ATOM     12  C   UNL     1      -4.524 -11.577  16.682  0.00  0.00    +0.121 A 
ATOM     13  C   UNL     1      -4.553 -10.610  17.672  0.00  0.00    +0.045 A 
ATOM     15  C   UNL     1      -5.656 -10.577  18.519  0.00  0.00    +0.024 A 
ATOM     17  C   UNL     1      -6.559 -12.428  17.329  0.00  0.00    +0.131 A 
ATOM     18  C   UNL     1      -6.682 -11.500  18.350  0.00  0.00    +0.070 A 
ENDROOT
BRANCH   7  11
ATOM      1  O   UNL     1      -3.695 -10.858  12.548  0.00  0.00    -0.420 OA
ATOM      3  N   UNL     1      -1.572 -10.462  11.962  0.00  0.00    -0.112 NA
ATOM      5  N   UNL     1      -2.392  -9.767  11.094  0.00  0.00    -0.107 NA
ATOM     11  C   UNL     1      -2.375 -11.085  12.794  0.00  0.00    +0.222 A 
ATOM     14  C   UNL     1      -3.621 -10.026  11.472  0.00  0.00    +0.248 A 
BRANCH  14  16
ATOM     16  C   UNL     1      -4.875  -9.579  10.939  0.00  0.00    +0.038 A 
ATOM     19  C   UNL     1      -4.936  -9.057   9.647  0.00  0.00    +0.013 A 
ATOM     20  C   UNL     1      -6.033  -9.666  11.711  0.00  0.00    +0.013 A 
ATOM     21  C   UNL     1      -7.312  -8.707   9.899  0.00  0.00    -0.050 A 
ATOM     22  C   UNL     1      -6.153  -8.620   9.127  0.00  0.00    +0.004 A 
ATOM     23  C   UNL     1      -7.252  -9.229  11.191  0.00  0.00    +0.004 A 
ATOM     25  C   UNL     1      -8.615  -8.241   9.344  0.00  0.00    +0.044 C 
ENDBRANCH  14  16
ENDBRANCH   7  11
BRANCH  18  24
ATOM      6  N   UNL     1      -8.758 -11.484  19.894  0.00  0.00    -0.191 NA
ATOM     24  C   UNL     1      -7.826 -11.491  19.201  0.00  0.00    +0.101 C 
ENDBRANCH  18  24
TORSDOF 3
ENDMDL
MODEL 3
REMARK VINA RESULT:      -6.9     20.416     23.026
REMARK  Name = 51137928
REMARK  4 active torsions:
REMARK  status: ('A' for Active; 'I' for Inactive)
REMARK    1  A    between atoms: C_7  and  C_11
REMARK    2  A    between atoms: C_14  and  C_16
REMARK    3  A    between atoms: C_18  and  C_24
REMARK    4  A    between atoms: C_21  and  C_25
REMARK                            x       y       z     vdW  Elec       q    Type
REMARK                         _______ _______ _______ _____ _____    ______ ____
ROOT
ATOM      2  N   UNL     1      -3.718 -10.899  11.531  0.00  0.00    -0.314 N 
ATOM      4  N   UNL     1      -4.301  -8.895  10.450  0.00  0.00    -0.239 NA
ATOM      7  C   UNL     1      -1.812 -11.508  12.811  0.00  0.00    +0.095 C 
ATOM      8  C   UNL     1      -2.589 -12.766  12.412  0.00  0.00    +0.033 C 
ATOM      9  C   UNL     1      -2.351 -10.462  11.816  0.00  0.00    +0.119 C 
ATOM     10  C   UNL     1      -3.974 -12.246  12.028  0.00  0.00    +0.107 C 
ATOM     12  C   UNL     1      -4.653 -10.132  10.866  0.00  0.00    +0.121 A 
ATOM     13  C   UNL     1      -5.904 -10.691  10.667  0.00  0.00    +0.045 A 
ATOM     15  C   UNL     1      -6.857  -9.932   9.997  0.00  0.00    +0.024 A 
ATOM     17  C   UNL     1      -5.254  -8.185   9.804  0.00  0.00    +0.131 A 
ATOM     18  C   UNL     1      -6.533  -8.654   9.554  0.00  0.00    +0.070 A 
ENDROOT
BRANCH   7  11
ATOM      1  O   UNL     1      -3.242 -11.253  14.792  0.00  0.00    -0.420 OA
ATOM      3  N   UNL     1      -1.074 -10.860  15.179  0.00  0.00    -0.112 NA
ATOM      5  N   UNL     1      -1.759 -10.684  16.366  0.00  0.00    -0.107 NA
ATOM     11  C   UNL     1      -1.979 -11.192  14.288  0.00  0.00    +0.222 A 
ATOM     14  C   UNL     1      -3.020 -10.923  16.094  0.00  0.00    +0.248 A 
BRANCH  14  16
ATOM     16  C   UNL     1      -4.178 -10.891  16.939  0.00  0.00    +0.038 A 
ATOM     19  C   UNL     1      -4.171 -11.571  18.157  0.00  0.00    +0.013 A 
ATOM     20  C   UNL     1      -5.311 -10.181  16.543  0.00  0.00    +0.013 A 
ATOM     21  C   UNL     1      -6.430 -10.831  18.584  0.00  0.00    -0.050 A 
ATOM     22  C   UNL     1      -5.296 -11.541  18.979  0.00  0.00    +0.004 A 
ATOM     23  C   UNL     1      -6.438 -10.152  17.366  0.00  0.00    +0.004 A 
ATOM     25  C   UNL     1      -7.635 -10.799  19.463  0.00  0.00    +0.044 C 
ENDBRANCH  14  16
ENDBRANCH   7  11
BRANCH  18  24
ATOM      6  N   UNL     1      -8.268  -7.196   8.305  0.00  0.00    -0.191 NA
ATOM     24  C   UNL     1      -7.489  -7.850   8.866  0.00  0.00    +0.101 C 
ENDBRANCH  18  24
TORSDOF 3
ENDMDL
MODEL 4
REMARK VINA RESULT:      -6.7     30.766     36.096
REMARK  Name = 51137928
REMARK  4 active torsions:
REMARK  status: ('A' for Active; 'I' for Inactive)
REMARK    1  A    between atoms: C_7  and  C_11
REMARK    2  A    between atoms: C_14  and  C_16
REMARK    3  A    between atoms: C_18  and  C_24
REMARK    4  A    between atoms: C_21  and  C_25
REMARK                            x       y       z     vdW  Elec       q    Type
REMARK                         _______ _______ _______ _____ _____    ______ ____
ROOT
ATOM      2  N   UNL     1      12.693   4.615   0.317  0.00  0.00    -0.314 N 
ATOM      4  N   UNL     1      14.934   3.909   0.280  0.00  0.00    -0.239 NA
ATOM      7  C   UNL     1      10.895   4.094   1.780  0.00  0.00    +0.095 C 
ATOM      8  C   UNL     1      10.351   4.753   0.509  0.00  0.00    +0.033 C 
ATOM      9  C   UNL     1      12.301   3.643   1.338  0.00  0.00    +0.119 C 
ATOM     10  C   UNL     1      11.568   5.442  -0.107  0.00  0.00    +0.107 C 
ATOM     12  C   UNL     1      13.971   4.732  -0.190  0.00  0.00    +0.121 A 
ATOM     13  C   UNL     1      14.180   5.698  -1.160  0.00  0.00    +0.045 A 
ATOM     15  C   UNL     1      15.463   5.828  -1.682  0.00  0.00    +0.024 A 
ATOM     17  C   UNL     1      16.169   4.065  -0.250  0.00  0.00    +0.131 A 
ATOM     18  C   UNL     1      16.481   5.000  -1.223  0.00  0.00    +0.070 A 
ENDROOT
BRANCH   7  11
ATOM      1  O   UNL     1      10.402   4.501   4.151  0.00  0.00    -0.420 OA
ATOM      3  N   UNL     1      11.117   6.311   3.048  0.00  0.00    -0.112 NA
ATOM      5  N   UNL     1      10.878   6.676   4.359  0.00  0.00    -0.107 NA
ATOM     11  C   UNL     1      10.825   5.033   2.972  0.00  0.00    +0.222 A 
ATOM     14  C   UNL     1      10.463   5.590   4.966  0.00  0.00    +0.248 A 
BRANCH  14  16
ATOM     16  C   UNL     1      10.071   5.375   6.329  0.00  0.00    +0.038 A 
ATOM     19  C   UNL     1      10.039   4.082   6.849  0.00  0.00    +0.013 A 
ATOM     20  C   UNL     1       9.722   6.459   7.133  0.00  0.00    +0.013 A 
ATOM     21  C   UNL     1       9.308   4.956   8.979  0.00  0.00    -0.050 A 
ATOM     22  C   UNL     1       9.657   3.872   8.174  0.00  0.00    +0.004 A 
ATOM     23  C   UNL     1       9.340   6.250   8.459  0.00  0.00    +0.004 A 
ATOM     25  C   UNL     1       8.899   4.732  10.396  0.00  0.00    +0.044 C 
ENDBRANCH  14  16
ENDBRANCH   7  11
BRANCH  18  24
ATOM      6  N   UNL     1      18.886   5.200  -2.158  0.00  0.00    -0.191 NA
ATOM     24  C   UNL     1      17.807   5.110  -1.738  0.00  0.00    +0.101 C 
ENDBRANCH  18  24
TORSDOF 3
ENDMDL
MODEL 5
REMARK VINA RESULT:      -6.7     34.680     35.887
REMARK  Name = 51137928
REMARK  4 active torsions:
REMARK  status: ('A' for Active; 'I' for Inactive)
REMARK    1  A    between atoms: C_7  and  C_11
REMARK    2  A    between atoms: C_14  and  C_16
REMARK    3  A    between atoms: C_18  and  C_24
REMARK    4  A    between atoms: C_21  and  C_25
REMARK                            x       y       z     vdW  Elec       q    Type
REMARK                         _______ _______ _______ _____ _____    ______ ____
ROOT
ATOM      2  N   UNL     1       3.896   5.714  -5.366  0.00  0.00    -0.314 N 
ATOM      4  N   UNL     1       6.228   5.704  -5.077  0.00  0.00    -0.239 NA
ATOM      7  C   UNL     1       2.491   4.601  -6.925  0.00  0.00    +0.095 C 
ATOM      8  C   UNL     1       1.708   5.721  -6.233  0.00  0.00    +0.033 C 
ATOM      9  C   UNL     1       3.952   5.001  -6.642  0.00  0.00    +0.119 C 
ATOM     10  C   UNL     1       2.525   6.032  -4.980  0.00  0.00    +0.107 C 
ATOM     12  C   UNL     1       5.005   6.052  -4.619  0.00  0.00    +0.121 A 
ATOM     13  C   UNL     1       4.786   6.734  -3.434  0.00  0.00    +0.045 A 
ATOM     15  C   UNL     1       5.894   7.083  -2.669  0.00  0.00    +0.024 A 
ATOM     17  C   UNL     1       7.282   6.059  -4.307  0.00  0.00    +0.131 A 
ATOM     18  C   UNL     1       7.169   6.742  -3.108  0.00  0.00    +0.070 A 
ENDROOT
BRANCH   7  11
ATOM      1  O   UNL     1       0.887   2.741  -6.940  0.00  0.00    -0.420 OA
ATOM      3  N   UNL     1       2.640   2.419  -5.587  0.00  0.00    -0.112 NA
ATOM      5  N   UNL     1       1.824   1.307  -5.502  0.00  0.00    -0.107 NA
ATOM     11  C   UNL     1       2.054   3.230  -6.438  0.00  0.00    +0.222 A 
ATOM     14  C   UNL     1       0.815   1.537  -6.307  0.00  0.00    +0.248 A 
BRANCH  14  16
ATOM     16  C   UNL     1      -0.332   0.734  -6.618  0.00  0.00    +0.038 A 
ATOM     19  C   UNL     1      -1.279   1.196  -7.533  0.00  0.00    +0.013 A 
ATOM     20  C   UNL     1      -0.501  -0.508  -6.006  0.00  0.00    +0.013 A 
ATOM     21  C   UNL     1      -2.564  -0.826  -7.224  0.00  0.00    -0.050 A 
ATOM     22  C   UNL     1      -2.395   0.416  -7.835  0.00  0.00    +0.004 A 
ATOM     23  C   UNL     1      -1.618  -1.288  -6.309  0.00  0.00    +0.004 A 
ATOM     25  C   UNL     1      -3.757  -1.660  -7.547  0.00  0.00    +0.044 C 
ENDBRANCH  14  16
ENDBRANCH   7  11
BRANCH  18  24
ATOM      6  N   UNL     1       9.266   7.364  -1.725  0.00  0.00    -0.191 NA
ATOM     24  C   UNL     1       8.325   7.085  -2.346  0.00  0.00    +0.101 C 
ENDBRANCH  18  24
TORSDOF 3
ENDMDL
MODEL 6
REMARK VINA RESULT:      -6.6     20.064     21.557
REMARK  Name = 51137928
REMARK  4 active torsions:
REMARK  status: ('A' for Active; 'I' for Inactive)
REMARK    1  A    between atoms: C_7  and  C_11
REMARK    2  A    between atoms: C_14  and  C_16
REMARK    3  A    between atoms: C_18  and  C_24
REMARK    4  A    between atoms: C_21  and  C_25
REMARK                            x       y       z     vdW  Elec       q    Type
REMARK                         _______ _______ _______ _____ _____    ______ ____
ROOT
ATOM      2  N   UNL     1      -5.586 -10.877  16.207  0.00  0.00    -0.314 N 
ATOM      4  N   UNL     1      -7.826 -11.381  15.708  0.00  0.00    -0.239 NA
ATOM      7  C   UNL     1      -3.545 -11.850  15.476  0.00  0.00    +0.095 C 
ATOM      8  C   UNL     1      -3.286 -10.967  16.699  0.00  0.00    +0.033 C 
ATOM      9  C   UNL     1      -5.067 -12.081  15.556  0.00  0.00    +0.119 C 
ATOM     10  C   UNL     1      -4.517 -10.065  16.779  0.00  0.00    +0.107 C 
ATOM     12  C   UNL     1      -6.924 -10.550  16.277  0.00  0.00    +0.121 A 
ATOM     13  C   UNL     1      -7.255  -9.378  16.935  0.00  0.00    +0.045 A 
ATOM     15  C   UNL     1      -8.601  -9.035  17.015  0.00  0.00    +0.024 A 
ATOM     17  C   UNL     1      -9.124 -11.015  15.805  0.00  0.00    +0.131 A 
ATOM     18  C   UNL     1      -9.559  -9.864  16.442  0.00  0.00    +0.070 A 
ENDROOT
BRANCH   7  11
ATOM      1  O   UNL     1      -3.830 -11.263  13.108  0.00  0.00    -0.420 OA
ATOM      3  N   UNL     1      -1.880 -10.600  13.981  0.00  0.00    -0.112 NA
ATOM      5  N   UNL     1      -1.910 -10.209  12.656  0.00  0.00    -0.107 NA
ATOM     11  C   UNL     1      -3.020 -11.211  14.202  0.00  0.00    +0.222 A 
ATOM     14  C   UNL     1      -3.065 -10.616  12.186  0.00  0.00    +0.248 A 
BRANCH  14  16
ATOM     16  C   UNL     1      -3.636 -10.488  10.877  0.00  0.00    +0.038 A 
ATOM     19  C   UNL     1      -4.013 -11.628  10.166  0.00  0.00    +0.013 A 
ATOM     20  C   UNL     1      -3.815  -9.225  10.314  0.00  0.00    +0.013 A 
ATOM     21  C   UNL     1      -4.747 -10.241   8.329  0.00  0.00    -0.050 A 
ATOM     22  C   UNL     1      -4.568 -11.505   8.893  0.00  0.00    +0.004 A 
ATOM     23  C   UNL     1      -4.370  -9.101   9.040  0.00  0.00    +0.004 A 
ATOM     25  C   UNL     1      -5.340 -10.109   6.968  0.00  0.00    +0.044 C 
ENDBRANCH  14  16
ENDBRANCH   7  11
BRANCH  18  24
ATOM      6  N   UNL     1     -12.075  -9.273  16.560  0.00  0.00    -0.191 NA
ATOM     24  C   UNL     1     -10.946  -9.538  16.507  0.00  0.00    +0.101 C 
ENDBRANCH  18  24
TORSDOF 3
ENDMDL
MODEL 7
REMARK VINA RESULT:      -6.6     18.827     20.736
REMARK  Name = 51137928
REMARK  4 active torsions:
REMARK  status: ('A' for Active; 'I' for Inactive)
REMARK    1  A    between atoms: C_7  and  C_11
REMARK    2  A    between atoms: C_14  and  C_16
REMARK    3  A    between atoms: C_18  and  C_24
REMARK    4  A    between atoms: C_21  and  C_25
REMARK                            x       y       z     vdW  Elec       q    Type
REMARK                         _______ _______ _______ _____ _____    ______ ____
ROOT
ATOM      2  N   UNL     1      -4.623 -11.803  16.622  0.00  0.00    -0.314 N 
ATOM      4  N   UNL     1      -4.260 -10.650  14.607  0.00  0.00    -0.239 NA
ATOM      7  C   UNL     1      -5.157 -11.040  18.807  0.00  0.00    +0.095 C 
ATOM      8  C   UNL     1      -4.688 -12.496  18.871  0.00  0.00    +0.033 C 
ATOM      9  C   UNL     1      -4.629 -10.585  17.433  0.00  0.00    +0.119 C 
ATOM     10  C   UNL     1      -4.827 -12.998  17.434  0.00  0.00    +0.107 C 
ATOM     12  C   UNL     1      -4.440 -11.823  15.255  0.00  0.00    +0.121 A 
ATOM     13  C   UNL     1      -4.454 -13.059  14.632  0.00  0.00    +0.045 A 
ATOM     15  C   UNL     1      -4.270 -13.095  13.254  0.00  0.00    +0.024 A 
ATOM     17  C   UNL     1      -4.085 -10.724  13.268  0.00  0.00    +0.131 A 
ATOM     18  C   UNL     1      -4.082 -11.910  12.552  0.00  0.00    +0.070 A 
ENDROOT
BRANCH   7  11
ATOM      1  O   UNL     1      -7.339 -10.087  18.204  0.00  0.00    -0.420 OA
ATOM      3  N   UNL     1      -7.416 -11.518  19.921  0.00  0.00    -0.112 NA
ATOM      5  N   UNL     1      -8.699 -11.061  19.688  0.00  0.00    -0.107 NA
ATOM     11  C   UNL     1      -6.655 -10.923  19.032  0.00  0.00    +0.222 A 
ATOM     14  C   UNL     1      -8.607 -10.229  18.678  0.00  0.00    +0.248 A 
BRANCH  14  16
ATOM     16  C   UNL     1      -9.616  -9.460  18.009  0.00  0.00    +0.038 A 
ATOM     19  C   UNL     1      -9.248  -8.426  17.148  0.00  0.00    +0.013 A 
ATOM     20  C   UNL     1     -10.965  -9.746  18.219  0.00  0.00    +0.013 A 
ATOM     21  C   UNL     1     -11.578  -7.963  16.707  0.00  0.00    -0.050 A 
ATOM     22  C   UNL     1     -10.228  -7.678  16.498  0.00  0.00    +0.004 A 
ATOM     23  C   UNL     1     -11.946  -8.997  17.569  0.00  0.00    +0.004 A 
ATOM     25  C   UNL     1     -12.626  -7.162  16.012  0.00  0.00    +0.044 C 
ENDBRANCH  14  16
ENDBRANCH   7  11
BRANCH  18  24
ATOM      6  N   UNL     1      -3.737 -11.918   9.987  0.00  0.00    -0.191 NA
ATOM     24  C   UNL     1      -3.891 -11.915  11.138  0.00  0.00    +0.101 C 
ENDBRANCH  18  24
TORSDOF 3
ENDMDL
MODEL 8
REMARK VINA RESULT:      -6.5     15.935     17.396
REMARK  Name = 51137928
REMARK  4 active torsions:
REMARK  status: ('A' for Active; 'I' for Inactive)
REMARK    1  A    between atoms: C_7  and  C_11
REMARK    2  A    between atoms: C_14  and  C_16
REMARK    3  A    between atoms: C_18  and  C_24
REMARK    4  A    between atoms: C_21  and  C_25
REMARK                            x       y       z     vdW  Elec       q    Type
REMARK                         _______ _______ _______ _____ _____    ______ ____
ROOT
ATOM      2  N   UNL     1     -13.091  -4.907  13.681  0.00  0.00    -0.314 N 
ATOM      4  N   UNL     1     -11.263  -5.775  14.875  0.00  0.00    -0.239 NA
ATOM      7  C   UNL     1     -13.211  -3.396  11.851  0.00  0.00    +0.095 C 
ATOM      8  C   UNL     1     -14.594  -3.538  12.493  0.00  0.00    +0.033 C 
ATOM      9  C   UNL     1     -12.280  -3.926  12.958  0.00  0.00    +0.119 C 
ATOM     10  C   UNL     1     -14.499  -4.829  13.306  0.00  0.00    +0.107 C 
ATOM     12  C   UNL     1     -12.588  -5.795  14.608  0.00  0.00    +0.121 A 
ATOM     13  C   UNL     1     -13.488  -6.657  15.211  0.00  0.00    +0.045 A 
ATOM     15  C   UNL     1     -12.996  -7.558  16.150  0.00  0.00    +0.024 A 
ATOM     17  C   UNL     1     -10.821  -6.665  15.791  0.00  0.00    +0.131 A 
ATOM     18  C   UNL     1     -11.639  -7.568  16.451  0.00  0.00    +0.070 A 
ENDROOT
BRANCH   7  11
ATOM      1  O   UNL     1     -11.929  -4.594  10.133  0.00  0.00    -0.420 OA
ATOM      3  N   UNL     1     -14.091  -4.321   9.628  0.00  0.00    -0.112 NA
ATOM      5  N   UNL     1     -13.492  -5.004   8.587  0.00  0.00    -0.107 NA
ATOM     11  C   UNL     1     -13.142  -4.102  10.508  0.00  0.00    +0.222 A 
ATOM     14  C   UNL     1     -12.232  -5.142   8.924  0.00  0.00    +0.248 A 
BRANCH  14  16
ATOM     16  C   UNL     1     -11.144  -5.767   8.229  0.00  0.00    +0.038 A 
ATOM     19  C   UNL     1      -9.830  -5.529   8.633  0.00  0.00    +0.013 A 
ATOM     20  C   UNL     1     -11.399  -6.613   7.150  0.00  0.00    +0.013 A 
ATOM     21  C   UNL     1      -9.027  -6.982   6.879  0.00  0.00    -0.050 A 
ATOM     22  C   UNL     1      -8.772  -6.136   7.958  0.00  0.00    +0.004 A 
ATOM     23  C   UNL     1     -10.340  -7.220   6.475  0.00  0.00    +0.004 A 
ATOM     25  C   UNL     1      -7.895  -7.631   6.156  0.00  0.00    +0.044 C 
ENDBRANCH  14  16
ENDBRANCH   7  11
BRANCH  18  24
ATOM      6  N   UNL     1     -10.670  -9.224  18.187  0.00  0.00    -0.191 NA
ATOM     24  C   UNL     1     -11.105  -8.481  17.408  0.00  0.00    +0.101 C 
ENDBRANCH  18  24
TORSDOF 3
ENDMDL
MODEL 9
REMARK VINA RESULT:      -6.5     30.116     35.553
REMARK  Name = 51137928
REMARK  4 active torsions:
REMARK  status: ('A' for Active; 'I' for Inactive)
REMARK    1  A    between atoms: C_7  and  C_11
REMARK    2  A    between atoms: C_14  and  C_16
REMARK    3  A    between atoms: C_18  and  C_24
REMARK    4  A    between atoms: C_21  and  C_25
REMARK                            x       y       z     vdW  Elec       q    Type
REMARK                         _______ _______ _______ _____ _____    ______ ____
ROOT
ATOM      2  N   UNL     1      11.992   4.729  -0.138  0.00  0.00    -0.314 N 
ATOM      4  N   UNL     1      11.181   5.290  -2.271  0.00  0.00    -0.239 NA
ATOM      7  C   UNL     1      12.424   6.051   1.788  0.00  0.00    +0.095 C 
ATOM      8  C   UNL     1      13.098   4.684   1.940  0.00  0.00    +0.033 C 
ATOM      9  C   UNL     1      12.169   6.123   0.270  0.00  0.00    +0.119 C 
ATOM     10  C   UNL     1      12.387   3.800   0.916  0.00  0.00    +0.107 C 
ATOM     12  C   UNL     1      11.516   4.338  -1.372  0.00  0.00    +0.121 A 
ATOM     13  C   UNL     1      11.413   2.977  -1.608  0.00  0.00    +0.045 A 
ATOM     15  C   UNL     1      10.936   2.567  -2.849  0.00  0.00    +0.024 A 
ATOM     17  C   UNL     1      10.720   4.854  -3.465  0.00  0.00    +0.131 A 
ATOM     18  C   UNL     1      10.580   3.517  -3.799  0.00  0.00    +0.070 A 
ENDROOT
BRANCH   7  11
ATOM      1  O   UNL     1      11.351   5.765   3.978  0.00  0.00    -0.420 OA
ATOM      3  N   UNL     1      10.010   6.640   2.416  0.00  0.00    -0.112 NA
ATOM      5  N   UNL     1       9.287   6.534   3.590  0.00  0.00    -0.107 NA
ATOM     11  C   UNL     1      11.208   6.179   2.690  0.00  0.00    +0.222 A 
ATOM     14  C   UNL     1      10.108   6.019   4.474  0.00  0.00    +0.248 A 
BRANCH  14  16
ATOM     16  C   UNL     1       9.904   5.689   5.854  0.00  0.00    +0.038 A 
ATOM     19  C   UNL     1       9.618   6.695   6.777  0.00  0.00    +0.013 A 
ATOM     20  C   UNL     1       9.990   4.362   6.274  0.00  0.00    +0.013 A 
ATOM     21  C   UNL     1       9.506   5.048   8.540  0.00  0.00    -0.050 A 
ATOM     22  C   UNL     1       9.420   6.375   8.119  0.00  0.00    +0.004 A 
ATOM     23  C   UNL     1       9.792   4.041   7.617  0.00  0.00    +0.004 A 
ATOM     25  C   UNL     1       9.294   4.705   9.976  0.00  0.00    +0.044 C 
ENDBRANCH  14  16
ENDBRANCH   7  11
BRANCH  18  24
ATOM      6  N   UNL     1       9.685   2.810  -6.122  0.00  0.00    -0.191 NA
ATOM     24  C   UNL     1      10.086   3.127  -5.079  0.00  0.00    +0.101 C 
ENDBRANCH  18  24
TORSDOF 3
ENDMDL
MODEL 10
REMARK VINA RESULT:      -6.4     27.093     29.256
REMARK  Name = 51137928
REMARK  4 active torsions:
REMARK  status: ('A' for Active; 'I' for Inactive)
REMARK    1  A    between atoms: C_7  and  C_11
REMARK    2  A    between atoms: C_14  and  C_16
REMARK    3  A    between atoms: C_18  and  C_24
REMARK    4  A    between atoms: C_21  and  C_25
REMARK                            x       y       z     vdW  Elec       q    Type
REMARK                         _______ _______ _______ _____ _____    ______ ____
ROOT
ATOM      2  N   UNL     1       7.799  -8.567  32.696  0.00  0.00    -0.314 N 
ATOM      4  N   UNL     1       8.613 -10.630  31.919  0.00  0.00    -0.239 NA
ATOM      7  C   UNL     1       8.603  -7.075  34.361  0.00  0.00    +0.095 C 
ATOM      8  C   UNL     1       7.158  -6.717  34.003  0.00  0.00    +0.033 C 
ATOM      9  C   UNL     1       8.724  -8.516  33.829  0.00  0.00    +0.119 C 
ATOM     10  C   UNL     1       6.925  -7.399  32.655  0.00  0.00    +0.107 C 
ATOM     12  C   UNL     1       7.752  -9.597  31.780  0.00  0.00    +0.121 A 
ATOM     13  C   UNL     1       6.813  -9.501  30.767  0.00  0.00    +0.045 A 
ATOM     15  C   UNL     1       6.752 -10.533  29.836  0.00  0.00    +0.024 A 
ATOM     17  C   UNL     1       8.526 -11.614  30.995  0.00  0.00    +0.131 A 
ATOM     18  C   UNL     1       7.622 -11.612  29.946  0.00  0.00    +0.070 A 
ENDROOT
BRANCH   7  11
ATOM      1  O   UNL     1      10.590  -6.540  33.022  0.00  0.00    -0.420 OA
ATOM      3  N   UNL     1       9.622  -4.757  33.965  0.00  0.00    -0.112 NA
ATOM      5  N   UNL     1      10.718  -4.318  33.246  0.00  0.00    -0.107 NA
ATOM     11  C   UNL     1       9.586  -6.060  33.806  0.00  0.00    +0.222 A 
ATOM     14  C   UNL     1      11.253  -5.391  32.713  0.00  0.00    +0.248 A 
BRANCH  14  16
ATOM     16  C   UNL     1      12.404  -5.539  31.871  0.00  0.00    +0.038 A 
ATOM     19  C   UNL     1      13.509  -4.706  32.050  0.00  0.00    +0.013 A 
ATOM     20  C   UNL     1      12.421  -6.514  30.875  0.00  0.00    +0.013 A 
ATOM     21  C   UNL     1      14.646  -5.824  30.235  0.00  0.00    -0.050 A 
ATOM     22  C   UNL     1      14.629  -4.848  31.232  0.00  0.00    +0.004 A 
ATOM     23  C   UNL     1      13.541  -6.657  30.057  0.00  0.00    +0.004 A 
ATOM     25  C   UNL     1      15.844  -5.976  29.360  0.00  0.00    +0.044 C 
ENDBRANCH  14  16
ENDBRANCH   7  11
BRANCH  18  24
ATOM      6  N   UNL     1       7.555 -13.557  28.240  0.00  0.00    -0.191 NA
ATOM     24  C   UNL     1       7.585 -12.684  29.006  0.00  0.00    +0.101 C 
ENDBRANCH  18  24
TORSDOF 3
ENDMDL
