MODEL 1
REMARK VINA RESULT:      -7.6      0.000      0.000
REMARK  Name = 75536261
REMARK  8 active torsions:
REMARK  status: ('A' for Active; 'I' for Inactive)
REMARK    1  A    between atoms: O_3  and  C_9
REMARK    2  A    between atoms: N_5  and  C_13
REMARK    3  A    between atoms: N_5  and  C_16
REMARK    4  A    between atoms: C_8  and  C_13
REMARK    5  A    between atoms: C_10  and  C_14
REMARK    6  A    between atoms: C_14  and  C_15
REMARK    7  A    between atoms: C_16  and  C_19
REMARK    8  A    between atoms: C_18  and  C_20
REMARK                            x       y       z     vdW  Elec       q    Type
REMARK                         _______ _______ _______ _____ _____    ______ ____
ROOT
ATOM      2  O   UNL     1      10.684   8.164  19.951  0.00  0.00    -0.369 OA
ATOM      8  C   UNL     1      10.964   7.804  21.309  0.00  0.00    +0.161 C 
ATOM      9  C   UNL     1      11.816   6.531  21.386  0.00  0.00    +0.145 C 
ATOM     10  C   UNL     1      11.833   8.326  19.115  0.00  0.00    +0.125 C 
ATOM     11  C   UNL     1      13.040   6.595  20.477  0.00  0.00    +0.036 C 
ATOM     12  C   UNL     1      12.651   7.036  19.069  0.00  0.00    +0.034 C 
ENDROOT
BRANCH   9   3
ATOM      3  O   UNL     1      11.020   5.419  20.968  0.00  0.00    -0.389 OA
ATOM     31  H   UNL     1      11.626   4.721  20.664  0.00  0.00    +0.210 HD
ENDBRANCH   9   3
BRANCH   8  13
ATOM     13  C   UNL     1      11.575   8.977  22.074  0.00  0.00    +0.115 C 
BRANCH  13   5
ATOM      5  N   UNL     1      10.608  10.052  22.233  0.00  0.00    -0.309 NA
ATOM     30  H   UNL     1       9.853   9.928  21.558  0.00  0.00    +0.122 HD
BRANCH   5  16
ATOM     16  C   UNL     1      11.236  11.353  22.039  0.00  0.00    +0.116 C 
BRANCH  16  19
ATOM      7  N   UNL     1      10.330  14.063  25.254  0.00  0.00    -0.263 NA
ATOM     19  C   UNL     1      10.919  12.302  23.164  0.00  0.00    -0.031 A 
ATOM     21  C   UNL     1      10.471  13.588  22.888  0.00  0.00    +0.024 A 
ATOM     22  C   UNL     1      11.073  11.894  24.485  0.00  0.00    +0.024 A 
ATOM     25  C   UNL     1      10.193  14.422  23.959  0.00  0.00    +0.111 A 
ATOM     26  C   UNL     1      10.768  12.803  25.484  0.00  0.00    +0.111 A 
ENDBRANCH  16  19
ENDBRANCH   5  16
ENDBRANCH  13   5
ENDBRANCH   8  13
BRANCH  10  14
ATOM     14  C   UNL     1      11.339   8.705  17.724  0.00  0.00    +0.090 C 
BRANCH  14  15
ATOM      4  O   UNL     1      13.590   9.815  15.137  0.00  0.00    -0.354 OA
ATOM      6  N   UNL     1      12.484   9.100  15.582  0.00  0.00    -0.083 NA
ATOM     15  C   UNL     1      12.430   9.330  16.897  0.00  0.00    +0.087 A 
ATOM     17  C   UNL     1      13.465  10.174  17.334  0.00  0.00    +0.076 A 
ATOM     18  C   UNL     1      14.166  10.450  16.190  0.00  0.00    +0.167 A 
BRANCH  18  20
ATOM      1  F   UNL     1      18.664  13.499  15.001  0.00  0.00    -0.205 F 
ATOM     20  C   UNL     1      15.326  11.236  15.884  0.00  0.00    +0.020 A 
ATOM     23  C   UNL     1      15.809  12.158  16.812  0.00  0.00    +0.014 A 
ATOM     24  C   UNL     1      15.971  11.078  14.658  0.00  0.00    +0.014 A 
ATOM     27  C   UNL     1      16.936  12.923  16.514  0.00  0.00    +0.039 A 
ATOM     28  C   UNL     1      17.099  11.842  14.360  0.00  0.00    +0.039 A 
ATOM     29  C   UNL     1      17.581  12.764  15.287  0.00  0.00    +0.123 A 
ENDBRANCH  18  20
ENDBRANCH  14  15
ENDBRANCH  10  14
TORSDOF 8
ENDMDL
MODEL 2
REMARK VINA RESULT:      -7.2     27.637     30.688
REMARK  Name = 75536261
REMARK  8 active torsions:
REMARK  status: ('A' for Active; 'I' for Inactive)
REMARK    1  A    between atoms: O_3  and  C_9
REMARK    2  A    between atoms: N_5  and  C_13
REMARK    3  A    between atoms: N_5  and  C_16
REMARK    4  A    between atoms: C_8  and  C_13
REMARK    5  A    between atoms: C_10  and  C_14
REMARK    6  A    between atoms: C_14  and  C_15
REMARK    7  A    between atoms: C_16  and  C_19
REMARK    8  A    between atoms: C_18  and  C_20
REMARK                            x       y       z     vdW  Elec       q    Type
REMARK                         _______ _______ _______ _____ _____    ______ ____
ROOT
ATOM      2  O   UNL     1     -16.051   2.237  24.516  0.00  0.00    -0.369 OA
ATOM      8  C   UNL     1     -16.130   3.304  23.563  0.00  0.00    +0.161 C 
ATOM      9  C   UNL     1     -17.482   3.308  22.839  0.00  0.00    +0.145 C 
ATOM     10  C   UNL     1     -17.097   2.213  25.491  0.00  0.00    +0.125 C 
ATOM     11  C   UNL     1     -18.660   3.226  23.806  0.00  0.00    +0.036 C 
ATOM     12  C   UNL     1     -18.461   2.097  24.813  0.00  0.00    +0.034 C 
ENDROOT
BRANCH   9   3
ATOM      3  O   UNL     1     -17.545   2.167  21.977  0.00  0.00    -0.389 OA
ATOM     31  H   UNL     1     -17.826   1.408  22.516  0.00  0.00    +0.210 HD
ENDBRANCH   9   3
BRANCH   8  13
ATOM     13  C   UNL     1     -15.797   4.647  24.212  0.00  0.00    +0.115 C 
BRANCH  13   5
ATOM      5  N   UNL     1     -14.448   5.068  23.870  0.00  0.00    -0.309 NA
ATOM     30  H   UNL     1     -14.310   6.033  24.172  0.00  0.00    +0.122 HD
BRANCH   5  16
ATOM     16  C   UNL     1     -14.214   4.959  22.436  0.00  0.00    +0.116 C 
BRANCH  16  19
ATOM      7  N   UNL     1     -12.327   8.482  20.847  0.00  0.00    -0.263 NA
ATOM     19  C   UNL     1     -13.554   6.193  21.880  0.00  0.00    -0.031 A 
ATOM     21  C   UNL     1     -14.203   7.420  21.940  0.00  0.00    +0.024 A 
ATOM     22  C   UNL     1     -12.291   6.107  21.303  0.00  0.00    +0.024 A 
ATOM     25  C   UNL     1     -13.552   8.524  21.414  0.00  0.00    +0.111 A 
ATOM     26  C   UNL     1     -11.726   7.271  20.806  0.00  0.00    +0.111 A 
ENDBRANCH  16  19
ENDBRANCH   5  16
ENDBRANCH  13   5
ENDBRANCH   8  13
BRANCH  10  14
ATOM     14  C   UNL     1     -16.843   1.022  26.407  0.00  0.00    +0.090 C 
BRANCH  14  15
ATOM      4  O   UNL     1     -15.761   1.291  29.835  0.00  0.00    -0.354 OA
ATOM      6  N   UNL     1     -16.260   0.572  28.756  0.00  0.00    -0.083 NA
ATOM     15  C   UNL     1     -16.336   1.456  27.756  0.00  0.00    +0.087 A 
ATOM     17  C   UNL     1     -15.904   2.736  28.142  0.00  0.00    +0.076 A 
ATOM     18  C   UNL     1     -15.553   2.579  29.457  0.00  0.00    +0.167 A 
BRANCH  18  20
ATOM      1  F   UNL     1     -13.542   5.953  33.396  0.00  0.00    -0.205 F 
ATOM     20  C   UNL     1     -15.034   3.449  30.472  0.00  0.00    +0.020 A 
ATOM     23  C   UNL     1     -13.888   3.089  31.181  0.00  0.00    +0.014 A 
ATOM     24  C   UNL     1     -15.675   4.656  30.751  0.00  0.00    +0.014 A 
ATOM     27  C   UNL     1     -13.384   3.934  32.170  0.00  0.00    +0.039 A 
ATOM     28  C   UNL     1     -15.170   5.502  31.738  0.00  0.00    +0.039 A 
ATOM     29  C   UNL     1     -14.026   5.141  32.447  0.00  0.00    +0.123 A 
ENDBRANCH  18  20
ENDBRANCH  14  15
ENDBRANCH  10  14
TORSDOF 8
ENDMDL
MODEL 3
REMARK VINA RESULT:      -7.0     28.241     31.265
REMARK  Name = 75536261
REMARK  8 active torsions:
REMARK  status: ('A' for Active; 'I' for Inactive)
REMARK    1  A    between atoms: O_3  and  C_9
REMARK    2  A    between atoms: N_5  and  C_13
REMARK    3  A    between atoms: N_5  and  C_16
REMARK    4  A    between atoms: C_8  and  C_13
REMARK    5  A    between atoms: C_10  and  C_14
REMARK    6  A    between atoms: C_14  and  C_15
REMARK    7  A    between atoms: C_16  and  C_19
REMARK    8  A    between atoms: C_18  and  C_20
REMARK                            x       y       z     vdW  Elec       q    Type
REMARK                         _______ _______ _______ _____ _____    ______ ____
ROOT
ATOM      2  O   UNL     1     -16.452   2.517  23.587  0.00  0.00    -0.369 OA
ATOM      8  C   UNL     1     -16.186   3.825  23.068  0.00  0.00    +0.161 C 
ATOM      9  C   UNL     1     -17.409   4.397  22.341  0.00  0.00    +0.145 C 
ATOM     10  C   UNL     1     -17.588   2.424  24.451  0.00  0.00    +0.125 C 
ATOM     11  C   UNL     1     -18.684   4.287  23.172  0.00  0.00    +0.036 C 
ATOM     12  C   UNL     1     -18.854   2.875  23.724  0.00  0.00    +0.034 C 
ENDROOT
BRANCH   9   3
ATOM      3  O   UNL     1     -17.611   3.660  21.131  0.00  0.00    -0.389 OA
ATOM     31  H   UNL     1     -16.779   3.688  20.629  0.00  0.00    +0.210 HD
ENDBRANCH   9   3
BRANCH   8  13
ATOM     13  C   UNL     1     -15.654   4.753  24.159  0.00  0.00    +0.115 C 
BRANCH  13   5
ATOM      5  N   UNL     1     -14.869   5.833  23.584  0.00  0.00    -0.309 NA
ATOM     30  H   UNL     1     -15.498   6.531  23.186  0.00  0.00    +0.122 HD
BRANCH   5  16
ATOM     16  C   UNL     1     -13.968   5.333  22.553  0.00  0.00    +0.116 C 
BRANCH  16  19
ATOM      7  N   UNL     1     -12.208   8.532  20.278  0.00  0.00    -0.263 NA
ATOM     19  C   UNL     1     -13.351   6.453  21.756  0.00  0.00    -0.031 A 
ATOM     21  C   UNL     1     -12.132   6.265  21.117  0.00  0.00    +0.024 A 
ATOM     22  C   UNL     1     -14.002   7.678  21.658  0.00  0.00    +0.024 A 
ATOM     25  C   UNL     1     -11.608   7.327  20.397  0.00  0.00    +0.111 A 
ATOM     26  C   UNL     1     -13.394   8.676  20.914  0.00  0.00    +0.111 A 
ENDBRANCH  16  19
ENDBRANCH   5  16
ENDBRANCH  13   5
ENDBRANCH   8  13
BRANCH  10  14
ATOM     14  C   UNL     1     -17.707   0.972  24.899  0.00  0.00    +0.090 C 
BRANCH  14  15
ATOM      4  O   UNL     1     -17.768   0.133  28.403  0.00  0.00    -0.354 OA
ATOM      6  N   UNL     1     -18.266   0.045  27.109  0.00  0.00    -0.083 NA
ATOM     15  C   UNL     1     -17.464   0.824  26.377  0.00  0.00    +0.087 A 
ATOM     17  C   UNL     1     -16.453   1.423  27.147  0.00  0.00    +0.076 A 
ATOM     18  C   UNL     1     -16.688   0.956  28.413  0.00  0.00    +0.167 A 
BRANCH  18  20
ATOM      1  F   UNL     1     -14.257   1.687  33.363  0.00  0.00    -0.205 F 
ATOM     20  C   UNL     1     -16.060   1.144  29.689  0.00  0.00    +0.020 A 
ATOM     23  C   UNL     1     -15.490   0.059  30.353  0.00  0.00    +0.014 A 
ATOM     24  C   UNL     1     -16.021   2.413  30.266  0.00  0.00    +0.014 A 
ATOM     27  C   UNL     1     -14.881   0.242  31.594  0.00  0.00    +0.039 A 
ATOM     28  C   UNL     1     -15.412   2.597  31.507  0.00  0.00    +0.039 A 
ATOM     29  C   UNL     1     -14.842   1.511  32.171  0.00  0.00    +0.123 A 
ENDBRANCH  18  20
ENDBRANCH  14  15
ENDBRANCH  10  14
TORSDOF 8
ENDMDL
MODEL 4
REMARK VINA RESULT:      -6.9     13.517     17.429
REMARK  Name = 75536261
REMARK  8 active torsions:
REMARK  status: ('A' for Active; 'I' for Inactive)
REMARK    1  A    between atoms: O_3  and  C_9
REMARK    2  A    between atoms: N_5  and  C_13
REMARK    3  A    between atoms: N_5  and  C_16
REMARK    4  A    between atoms: C_8  and  C_13
REMARK    5  A    between atoms: C_10  and  C_14
REMARK    6  A    between atoms: C_14  and  C_15
REMARK    7  A    between atoms: C_16  and  C_19
REMARK    8  A    between atoms: C_18  and  C_20
REMARK                            x       y       z     vdW  Elec       q    Type
REMARK                         _______ _______ _______ _____ _____    ______ ____
ROOT
ATOM      2  O   UNL     1      13.109   4.907   1.963  0.00  0.00    -0.369 OA
ATOM      8  C   UNL     1      14.463   5.337   1.777  0.00  0.00    +0.161 C 
ATOM      9  C   UNL     1      15.276   4.301   0.990  0.00  0.00    +0.145 C 
ATOM     10  C   UNL     1      12.404   4.583   0.762  0.00  0.00    +0.125 C 
ATOM     11  C   UNL     1      14.567   3.854  -0.285  0.00  0.00    +0.036 C 
ATOM     12  C   UNL     1      13.119   3.467   0.003  0.00  0.00    +0.034 C 
ENDROOT
BRANCH   9   3
ATOM      3  O   UNL     1      15.467   3.146   1.812  0.00  0.00    -0.389 OA
ATOM     31  H   UNL     1      14.729   3.111   2.444  0.00  0.00    +0.210 HD
ENDBRANCH   9   3
BRANCH   8  13
ATOM     13  C   UNL     1      14.518   6.733   1.158  0.00  0.00    +0.115 C 
BRANCH  13   5
ATOM      5  N   UNL     1      13.679   7.662   1.899  0.00  0.00    -0.309 NA
ATOM     30  H   UNL     1      13.192   8.272   1.243  0.00  0.00    +0.122 HD
BRANCH   5  16
ATOM     16  C   UNL     1      14.474   8.462   2.822  0.00  0.00    +0.116 C 
BRANCH  16  19
ATOM      7  N   UNL     1      13.973   7.175   6.896  0.00  0.00    -0.263 NA
ATOM     19  C   UNL     1      14.300   8.012   4.249  0.00  0.00    -0.031 A 
ATOM     21  C   UNL     1      15.363   8.086   5.140  0.00  0.00    +0.024 A 
ATOM     22  C   UNL     1      13.072   7.519   4.678  0.00  0.00    +0.024 A 
ATOM     25  C   UNL     1      15.150   7.660   6.441  0.00  0.00    +0.111 A 
ATOM     26  C   UNL     1      12.961   7.118   6.000  0.00  0.00    +0.111 A 
ENDBRANCH  16  19
ENDBRANCH   5  16
ENDBRANCH  13   5
ENDBRANCH   8  13
BRANCH  10  14
ATOM     14  C   UNL     1      10.997   4.154   1.159  0.00  0.00    +0.090 C 
BRANCH  14  15
ATOM      4  O   UNL     1       9.860   6.273   3.844  0.00  0.00    -0.354 OA
ATOM      6  N   UNL     1      10.166   6.037   2.509  0.00  0.00    -0.083 NA
ATOM     15  C   UNL     1      10.576   4.766   2.468  0.00  0.00    +0.087 A 
ATOM     17  C   UNL     1      10.550   4.155   3.734  0.00  0.00    +0.076 A 
ATOM     18  C   UNL     1      10.093   5.145   4.563  0.00  0.00    +0.167 A 
BRANCH  18  20
ATOM      1  F   UNL     1       9.031   5.493  10.013  0.00  0.00    -0.205 F 
ATOM     20  C   UNL     1       9.818   5.235   5.969  0.00  0.00    +0.020 A 
ATOM     23  C   UNL     1       9.372   6.437   6.517  0.00  0.00    +0.014 A 
ATOM     24  C   UNL     1       9.997   4.120   6.786  0.00  0.00    +0.014 A 
ATOM     27  C   UNL     1       9.107   6.525   7.883  0.00  0.00    +0.039 A 
ATOM     28  C   UNL     1       9.731   4.207   8.153  0.00  0.00    +0.039 A 
ATOM     29  C   UNL     1       9.287   5.409   8.701  0.00  0.00    +0.123 A 
ENDBRANCH  18  20
ENDBRANCH  14  15
ENDBRANCH  10  14
TORSDOF 8
ENDMDL
MODEL 5
REMARK VINA RESULT:      -6.8     27.557     28.815
REMARK  Name = 75536261
REMARK  8 active torsions:
REMARK  status: ('A' for Active; 'I' for Inactive)
REMARK    1  A    between atoms: O_3  and  C_9
REMARK    2  A    between atoms: N_5  and  C_13
REMARK    3  A    between atoms: N_5  and  C_16
REMARK    4  A    between atoms: C_8  and  C_13
REMARK    5  A    between atoms: C_10  and  C_14
REMARK    6  A    between atoms: C_14  and  C_15
REMARK    7  A    between atoms: C_16  and  C_19
REMARK    8  A    between atoms: C_18  and  C_20
REMARK                            x       y       z     vdW  Elec       q    Type
REMARK                         _______ _______ _______ _____ _____    ______ ____
ROOT
ATOM      2  O   UNL     1      -6.769 -11.876  17.344  0.00  0.00    -0.369 OA
ATOM      8  C   UNL     1      -7.824 -11.049  17.849  0.00  0.00    +0.161 C 
ATOM      9  C   UNL     1      -7.669 -10.803  19.356  0.00  0.00    +0.145 C 
ATOM     10  C   UNL     1      -5.446 -11.398  17.599  0.00  0.00    +0.125 C 
ATOM     11  C   UNL     1      -6.262 -10.343  19.728  0.00  0.00    +0.036 C 
ATOM     12  C   UNL     1      -5.208 -11.252  19.102  0.00  0.00    +0.034 C 
ENDROOT
BRANCH   9   3
ATOM      3  O   UNL     1      -7.926 -12.028  20.050  0.00  0.00    -0.389 OA
ATOM     31  H   UNL     1      -7.217 -12.652  19.816  0.00  0.00    +0.210 HD
ENDBRANCH   9   3
BRANCH   8  13
ATOM     13  C   UNL     1      -7.945  -9.756  17.044  0.00  0.00    +0.115 C 
BRANCH  13   5
ATOM      5  N   UNL     1      -8.869  -8.833  17.682  0.00  0.00    -0.309 NA
ATOM     30  H   UNL     1      -8.699  -8.827  18.688  0.00  0.00    +0.122 HD
BRANCH   5  16
ATOM     16  C   UNL     1     -10.252  -9.209  17.415  0.00  0.00    +0.116 C 
BRANCH  16  19
ATOM      7  N   UNL     1     -12.421  -6.057  15.451  0.00  0.00    -0.263 NA
ATOM     19  C   UNL     1     -11.011  -8.105  16.727  0.00  0.00    -0.031 A 
ATOM     21  C   UNL     1     -10.339  -6.981  16.262  0.00  0.00    +0.024 A 
ATOM     22  C   UNL     1     -12.387  -8.208  16.556  0.00  0.00    +0.024 A 
ATOM     25  C   UNL     1     -11.084  -5.994  15.636  0.00  0.00    +0.111 A 
ATOM     26  C   UNL     1     -13.040  -7.166  15.918  0.00  0.00    +0.111 A 
ENDBRANCH  16  19
ENDBRANCH   5  16
ENDBRANCH  13   5
ENDBRANCH   8  13
BRANCH  10  14
ATOM     14  C   UNL     1      -4.471 -12.399  16.991  0.00  0.00    +0.090 C 
BRANCH  14  15
ATOM      4  O   UNL     1      -3.256 -12.263  13.600  0.00  0.00    -0.354 OA
ATOM      6  N   UNL     1      -3.349 -12.863  14.850  0.00  0.00    -0.083 NA
ATOM     15  C   UNL     1      -4.142 -12.058  15.563  0.00  0.00    +0.087 A 
ATOM     17  C   UNL     1      -4.576 -10.945  14.822  0.00  0.00    +0.076 A 
ATOM     18  C   UNL     1      -3.991 -11.121  13.596  0.00  0.00    +0.167 A 
BRANCH  18  20
ATOM      1  F   UNL     1      -4.001  -8.278   8.814  0.00  0.00    -0.205 F 
ATOM     20  C   UNL     1      -3.994 -10.387  12.363  0.00  0.00    +0.020 A 
ATOM     23  C   UNL     1      -5.171  -9.797  11.906  0.00  0.00    +0.014 A 
ATOM     24  C   UNL     1      -2.818 -10.265  11.623  0.00  0.00    +0.014 A 
ATOM     27  C   UNL     1      -5.174  -9.085  10.706  0.00  0.00    +0.039 A 
ATOM     28  C   UNL     1      -2.821  -9.552  10.424  0.00  0.00    +0.039 A 
ATOM     29  C   UNL     1      -3.998  -8.962   9.966  0.00  0.00    +0.123 A 
ENDBRANCH  18  20
ENDBRANCH  14  15
ENDBRANCH  10  14
TORSDOF 8
ENDMDL
MODEL 6
REMARK VINA RESULT:      -6.7     27.431     29.133
REMARK  Name = 75536261
REMARK  8 active torsions:
REMARK  status: ('A' for Active; 'I' for Inactive)
REMARK    1  A    between atoms: O_3  and  C_9
REMARK    2  A    between atoms: N_5  and  C_13
REMARK    3  A    between atoms: N_5  and  C_16
REMARK    4  A    between atoms: C_8  and  C_13
REMARK    5  A    between atoms: C_10  and  C_14
REMARK    6  A    between atoms: C_14  and  C_15
REMARK    7  A    between atoms: C_16  and  C_19
REMARK    8  A    between atoms: C_18  and  C_20
REMARK                            x       y       z     vdW  Elec       q    Type
REMARK                         _______ _______ _______ _____ _____    ______ ____
ROOT
ATOM      2  O   UNL     1      -4.470  -9.173  11.678  0.00  0.00    -0.369 OA
ATOM      8  C   UNL     1      -5.646  -8.929  10.896  0.00  0.00    +0.161 C 
ATOM      9  C   UNL     1      -5.437  -9.334   9.431  0.00  0.00    +0.145 C 
ATOM     10  C   UNL     1      -3.979 -10.515  11.636  0.00  0.00    +0.125 C 
ATOM     11  C   UNL     1      -4.858 -10.739   9.294  0.00  0.00    +0.036 C 
ATOM     12  C   UNL     1      -3.645 -10.921  10.201  0.00  0.00    +0.034 C 
ENDROOT
BRANCH   9   3
ATOM      3  O   UNL     1      -4.514  -8.421   8.829  0.00  0.00    -0.389 OA
ATOM     31  H   UNL     1      -4.612  -8.499   7.864  0.00  0.00    +0.210 HD
ENDBRANCH   9   3
BRANCH   8  13
ATOM     13  C   UNL     1      -6.873  -9.585  11.527  0.00  0.00    +0.115 C 
BRANCH  13   5
ATOM      5  N   UNL     1      -7.014  -9.190  12.919  0.00  0.00    -0.309 NA
ATOM     30  H   UNL     1      -6.092  -9.160  13.356  0.00  0.00    +0.122 HD
BRANCH   5  16
ATOM     16  C   UNL     1      -7.874 -10.119  13.642  0.00  0.00    +0.116 C 
BRANCH  16  19
ATOM      7  N   UNL     1      -9.523  -8.341  17.195  0.00  0.00    -0.263 NA
ATOM     19  C   UNL     1      -8.452  -9.496  14.885  0.00  0.00    -0.031 A 
ATOM     21  C   UNL     1      -9.653  -8.800  14.824  0.00  0.00    +0.024 A 
ATOM     22  C   UNL     1      -7.784  -9.616  16.099  0.00  0.00    +0.024 A 
ATOM     25  C   UNL     1     -10.141  -8.246  15.997  0.00  0.00    +0.111 A 
ATOM     26  C   UNL     1      -8.356  -9.026  17.215  0.00  0.00    +0.111 A 
ENDBRANCH  16  19
ENDBRANCH   5  16
ENDBRANCH  13   5
ENDBRANCH   8  13
BRANCH  10  14
ATOM     14  C   UNL     1      -2.740 -10.578  12.520  0.00  0.00    +0.090 C 
BRANCH  14  15
ATOM      4  O   UNL     1      -2.854 -10.708  16.121  0.00  0.00    -0.354 OA
ATOM      6  N   UNL     1      -2.207 -10.444  14.920  0.00  0.00    -0.083 NA
ATOM     15  C   UNL     1      -3.100 -10.746  13.972  0.00  0.00    +0.087 A 
ATOM     17  C   UNL     1      -4.315 -11.202  14.510  0.00  0.00    +0.076 A 
ATOM     18  C   UNL     1      -4.109 -11.160  15.864  0.00  0.00    +0.167 A 
BRANCH  18  20
ATOM      1  F   UNL     1      -7.198 -12.382  20.326  0.00  0.00    -0.205 F 
ATOM     20  C   UNL     1      -4.905 -11.475  17.015  0.00  0.00    +0.020 A 
ATOM     23  C   UNL     1      -5.750 -12.585  16.995  0.00  0.00    +0.014 A 
ATOM     24  C   UNL     1      -4.834 -10.673  18.153  0.00  0.00    +0.014 A 
ATOM     27  C   UNL     1      -6.525 -12.891  18.114  0.00  0.00    +0.039 A 
ATOM     28  C   UNL     1      -5.608 -10.979  19.272  0.00  0.00    +0.039 A 
ATOM     29  C   UNL     1      -6.454 -12.087  19.252  0.00  0.00    +0.123 A 
ENDBRANCH  18  20
ENDBRANCH  14  15
ENDBRANCH  10  14
TORSDOF 8
ENDMDL
MODEL 7
REMARK VINA RESULT:      -6.7     17.150     20.579
REMARK  Name = 75536261
REMARK  8 active torsions:
REMARK  status: ('A' for Active; 'I' for Inactive)
REMARK    1  A    between atoms: O_3  and  C_9
REMARK    2  A    between atoms: N_5  and  C_13
REMARK    3  A    between atoms: N_5  and  C_16
REMARK    4  A    between atoms: C_8  and  C_13
REMARK    5  A    between atoms: C_10  and  C_14
REMARK    6  A    between atoms: C_14  and  C_15
REMARK    7  A    between atoms: C_16  and  C_19
REMARK    8  A    between atoms: C_18  and  C_20
REMARK                            x       y       z     vdW  Elec       q    Type
REMARK                         _______ _______ _______ _____ _____    ______ ____
ROOT
ATOM      2  O   UNL     1      12.795   3.187   0.648  0.00  0.00    -0.369 OA
ATOM      8  C   UNL     1      13.229   4.009   1.737  0.00  0.00    +0.161 C 
ATOM      9  C   UNL     1      14.730   4.313   1.645  0.00  0.00    +0.145 C 
ATOM     10  C   UNL     1      13.083   3.701  -0.655  0.00  0.00    +0.125 C 
ATOM     11  C   UNL     1      15.138   4.815   0.263  0.00  0.00    +0.036 C 
ATOM     12  C   UNL     1      14.587   3.907  -0.832  0.00  0.00    +0.034 C 
ENDROOT
BRANCH   9   3
ATOM      3  O   UNL     1      15.459   3.109   1.904  0.00  0.00    -0.389 OA
ATOM     31  H   UNL     1      16.227   3.097   1.307  0.00  0.00    +0.210 HD
ENDBRANCH   9   3
BRANCH   8  13
ATOM     13  C   UNL     1      12.372   5.269   1.851  0.00  0.00    +0.115 C 
BRANCH  13   5
ATOM      5  N   UNL     1      12.211   5.662   3.242  0.00  0.00    -0.309 NA
ATOM     30  H   UNL     1      12.940   5.221   3.803  0.00  0.00    +0.122 HD
BRANCH   5  16
ATOM     16  C   UNL     1      10.898   5.276   3.745  0.00  0.00    +0.116 C 
BRANCH  16  19
ATOM      7  N   UNL     1      10.494   6.076   7.952  0.00  0.00    -0.263 NA
ATOM     19  C   UNL     1      10.757   5.557   5.218  0.00  0.00    -0.031 A 
ATOM     21  C   UNL     1      11.606   6.464   5.840  0.00  0.00    +0.024 A 
ATOM     22  C   UNL     1       9.776   4.908   5.960  0.00  0.00    +0.024 A 
ATOM     25  C   UNL     1      11.434   6.686   7.197  0.00  0.00    +0.111 A 
ATOM     26  C   UNL     1       9.686   5.200   7.311  0.00  0.00    +0.111 A 
ENDBRANCH  16  19
ENDBRANCH   5  16
ENDBRANCH  13   5
ENDBRANCH   8  13
BRANCH  10  14
ATOM     14  C   UNL     1      12.549   2.699  -1.672  0.00  0.00    +0.090 C 
BRANCH  14  15
ATOM      4  O   UNL     1       9.316   3.023  -3.232  0.00  0.00    -0.354 OA
ATOM      6  N   UNL     1      10.375   2.268  -2.743  0.00  0.00    -0.083 NA
ATOM     15  C   UNL     1      11.255   3.163  -2.285  0.00  0.00    +0.087 A 
ATOM     17  C   UNL     1      10.810   4.485  -2.456  0.00  0.00    +0.076 A 
ATOM     18  C   UNL     1       9.587   4.342  -3.056  0.00  0.00    +0.167 A 
BRANCH  18  20
ATOM      1  F   UNL     1       5.671   7.872  -4.830  0.00  0.00    -0.205 F 
ATOM     20  C   UNL     1       8.576   5.251  -3.513  0.00  0.00    +0.020 A 
ATOM     23  C   UNL     1       8.046   5.117  -4.796  0.00  0.00    +0.014 A 
ATOM     24  C   UNL     1       8.124   6.270  -2.675  0.00  0.00    +0.014 A 
ATOM     27  C   UNL     1       7.065   6.003  -5.242  0.00  0.00    +0.039 A 
ATOM     28  C   UNL     1       7.142   7.155  -3.120  0.00  0.00    +0.039 A 
ATOM     29  C   UNL     1       6.613   7.022  -4.403  0.00  0.00    +0.123 A 
ENDBRANCH  18  20
ENDBRANCH  14  15
ENDBRANCH  10  14
TORSDOF 8
ENDMDL
MODEL 8
REMARK VINA RESULT:      -6.7     27.216     28.963
REMARK  Name = 75536261
REMARK  8 active torsions:
REMARK  status: ('A' for Active; 'I' for Inactive)
REMARK    1  A    between atoms: O_3  and  C_9
REMARK    2  A    between atoms: N_5  and  C_13
REMARK    3  A    between atoms: N_5  and  C_16
REMARK    4  A    between atoms: C_8  and  C_13
REMARK    5  A    between atoms: C_10  and  C_14
REMARK    6  A    between atoms: C_14  and  C_15
REMARK    7  A    between atoms: C_16  and  C_19
REMARK    8  A    between atoms: C_18  and  C_20
REMARK                            x       y       z     vdW  Elec       q    Type
REMARK                         _______ _______ _______ _____ _____    ______ ____
ROOT
ATOM      2  O   UNL     1      -4.052 -12.480  15.914  0.00  0.00    -0.369 OA
ATOM      8  C   UNL     1      -5.280 -12.916  16.511  0.00  0.00    +0.161 C 
ATOM      9  C   UNL     1      -5.166 -12.979  18.040  0.00  0.00    +0.145 C 
ATOM     10  C   UNL     1      -3.554 -11.227  16.392  0.00  0.00    +0.125 C 
ATOM     11  C   UNL     1      -4.586 -11.698  18.633  0.00  0.00    +0.036 C 
ATOM     12  C   UNL     1      -3.313 -11.285  17.900  0.00  0.00    +0.034 C 
ENDROOT
BRANCH   9   3
ATOM      3  O   UNL     1      -4.294 -14.057  18.392  0.00  0.00    -0.389 OA
ATOM     31  H   UNL     1      -4.073 -14.534  17.573  0.00  0.00    +0.210 HD
ENDBRANCH   9   3
BRANCH   8  13
ATOM     13  C   UNL     1      -6.456 -12.064  16.036  0.00  0.00    +0.115 C 
BRANCH  13   5
ATOM      5  N   UNL     1      -6.416 -11.884  14.593  0.00  0.00    -0.309 NA
ATOM     30  H   UNL     1      -5.482 -12.114  14.251  0.00  0.00    +0.122 HD
BRANCH   5  16
ATOM     16  C   UNL     1      -6.754 -10.514  14.228  0.00  0.00    +0.116 C 
BRANCH  16  19
ATOM      7  N   UNL     1      -7.693 -10.159  10.045  0.00  0.00    -0.263 NA
ATOM     19  C   UNL     1      -7.082 -10.389  12.764  0.00  0.00    -0.031 A 
ATOM     21  C   UNL     1      -6.977  -9.158  12.127  0.00  0.00    +0.024 A 
ATOM     22  C   UNL     1      -7.493 -11.506  12.044  0.00  0.00    +0.024 A 
ATOM     25  C   UNL     1      -7.291  -9.097  10.779  0.00  0.00    +0.111 A 
ATOM     26  C   UNL     1      -7.784 -11.340  10.700  0.00  0.00    +0.111 A 
ENDBRANCH  16  19
ENDBRANCH   5  16
ENDBRANCH  13   5
ENDBRANCH   8  13
BRANCH  10  14
ATOM     14  C   UNL     1      -2.258 -10.935  15.647  0.00  0.00    +0.090 C 
BRANCH  14  15
ATOM      4  O   UNL     1      -2.097 -11.790  12.149  0.00  0.00    -0.354 OA
ATOM      6  N   UNL     1      -1.686 -11.930  13.469  0.00  0.00    -0.083 NA
ATOM     15  C   UNL     1      -2.432 -11.060  14.157  0.00  0.00    +0.087 A 
ATOM     17  C   UNL     1      -3.321 -10.350  13.333  0.00  0.00    +0.076 A 
ATOM     18  C   UNL     1      -3.070 -10.846  12.080  0.00  0.00    +0.167 A 
BRANCH  18  20
ATOM      1  F   UNL     1      -5.116  -9.855   7.002  0.00  0.00    -0.205 F 
ATOM     20  C   UNL     1      -3.599 -10.590  10.771  0.00  0.00    +0.020 A 
ATOM     23  C   UNL     1      -4.073 -11.645   9.992  0.00  0.00    +0.014 A 
ATOM     24  C   UNL     1      -3.637  -9.287  10.277  0.00  0.00    +0.014 A 
ATOM     27  C   UNL     1      -4.585 -11.397   8.719  0.00  0.00    +0.039 A 
ATOM     28  C   UNL     1      -4.150  -9.038   9.004  0.00  0.00    +0.039 A 
ATOM     29  C   UNL     1      -4.623 -10.093   8.225  0.00  0.00    +0.123 A 
ENDBRANCH  18  20
ENDBRANCH  14  15
ENDBRANCH  10  14
TORSDOF 8
ENDMDL
MODEL 9
REMARK VINA RESULT:      -6.7     27.100     28.762
REMARK  Name = 75536261
REMARK  8 active torsions:
REMARK  status: ('A' for Active; 'I' for Inactive)
REMARK    1  A    between atoms: O_3  and  C_9
REMARK    2  A    between atoms: N_5  and  C_13
REMARK    3  A    between atoms: N_5  and  C_16
REMARK    4  A    between atoms: C_8  and  C_13
REMARK    5  A    between atoms: C_10  and  C_14
REMARK    6  A    between atoms: C_14  and  C_15
REMARK    7  A    between atoms: C_16  and  C_19
REMARK    8  A    between atoms: C_18  and  C_20
REMARK                            x       y       z     vdW  Elec       q    Type
REMARK                         _______ _______ _______ _____ _____    ______ ____
ROOT
ATOM      2  O   UNL     1      -4.082 -11.495  13.422  0.00  0.00    -0.369 OA
ATOM      8  C   UNL     1      -4.785 -11.267  14.650  0.00  0.00    +0.161 C 
ATOM      9  C   UNL     1      -3.853 -11.408  15.861  0.00  0.00    +0.145 C 
ATOM     10  C   UNL     1      -2.932 -10.671  13.217  0.00  0.00    +0.125 C 
ATOM     11  C   UNL     1      -2.566 -10.602  15.702  0.00  0.00    +0.036 C 
ATOM     12  C   UNL     1      -1.920 -10.870  14.346  0.00  0.00    +0.034 C 
ENDROOT
BRANCH   9   3
ATOM      3  O   UNL     1      -3.491 -12.784  16.005  0.00  0.00    -0.389 OA
ATOM     31  H   UNL     1      -2.608 -12.815  16.413  0.00  0.00    +0.210 HD
ENDBRANCH   9   3
BRANCH   8  13
ATOM     13  C   UNL     1      -5.526  -9.931  14.621  0.00  0.00    +0.115 C 
BRANCH  13   5
ATOM      5  N   UNL     1      -5.658  -9.383  15.961  0.00  0.00    -0.309 NA
ATOM     30  H   UNL     1      -5.004  -9.856  16.585  0.00  0.00    +0.122 HD
BRANCH   5  16
ATOM     16  C   UNL     1      -7.019  -9.542  16.459  0.00  0.00    +0.116 C 
BRANCH  16  19
ATOM      7  N   UNL     1      -7.130 -11.757  20.144  0.00  0.00    -0.263 NA
ATOM     19  C   UNL     1      -7.057 -10.317  17.750  0.00  0.00    -0.031 A 
ATOM     21  C   UNL     1      -5.892 -10.515  18.481  0.00  0.00    +0.024 A 
ATOM     22  C   UNL     1      -8.260 -10.839  18.213  0.00  0.00    +0.024 A 
ATOM     25  C   UNL     1      -5.982 -11.235  19.661  0.00  0.00    +0.111 A 
ATOM     26  C   UNL     1      -8.244 -11.545  19.405  0.00  0.00    +0.111 A 
ENDBRANCH  16  19
ENDBRANCH   5  16
ENDBRANCH  13   5
ENDBRANCH   8  13
BRANCH  10  14
ATOM     14  C   UNL     1      -2.327 -11.054  11.873  0.00  0.00    +0.090 C 
BRANCH  14  15
ATOM      4  O   UNL     1      -3.719  -8.945   9.303  0.00  0.00    -0.354 OA
ATOM      6  N   UNL     1      -2.866  -9.177  10.375  0.00  0.00    -0.083 NA
ATOM     15  C   UNL     1      -3.089 -10.447  10.726  0.00  0.00    +0.087 A 
ATOM     17  C   UNL     1      -4.063 -11.060   9.919  0.00  0.00    +0.076 A 
ATOM     18  C   UNL     1      -4.427 -10.074   9.041  0.00  0.00    +0.167 A 
BRANCH  18  20
ATOM      1  F   UNL     1      -8.026  -9.738   4.812  0.00  0.00    -0.205 F 
ATOM     20  C   UNL     1      -5.355  -9.988   7.951  0.00  0.00    +0.020 A 
ATOM     23  C   UNL     1      -5.131 -10.719   6.784  0.00  0.00    +0.014 A 
ATOM     24  C   UNL     1      -6.482  -9.173   8.057  0.00  0.00    +0.014 A 
ATOM     27  C   UNL     1      -6.033 -10.635   5.724  0.00  0.00    +0.039 A 
ATOM     28  C   UNL     1      -7.384  -9.089   6.997  0.00  0.00    +0.039 A 
ATOM     29  C   UNL     1      -7.160  -9.819   5.830  0.00  0.00    +0.123 A 
ENDBRANCH  18  20
ENDBRANCH  14  15
ENDBRANCH  10  14
TORSDOF 8
ENDMDL
MODEL 10
REMARK VINA RESULT:      -6.7     28.948     31.115
REMARK  Name = 75536261
REMARK  8 active torsions:
REMARK  status: ('A' for Active; 'I' for Inactive)
REMARK    1  A    between atoms: O_3  and  C_9
REMARK    2  A    between atoms: N_5  and  C_13
REMARK    3  A    between atoms: N_5  and  C_16
REMARK    4  A    between atoms: C_8  and  C_13
REMARK    5  A    between atoms: C_10  and  C_14
REMARK    6  A    between atoms: C_14  and  C_15
REMARK    7  A    between atoms: C_16  and  C_19
REMARK    8  A    between atoms: C_18  and  C_20
REMARK                            x       y       z     vdW  Elec       q    Type
REMARK                         _______ _______ _______ _____ _____    ______ ____
ROOT
ATOM      2  O   UNL     1     -13.955   2.395  31.199  0.00  0.00    -0.369 OA
ATOM      8  C   UNL     1     -14.241   2.000  29.852  0.00  0.00    +0.161 C 
ATOM      9  C   UNL     1     -14.339   0.474  29.725  0.00  0.00    +0.145 C 
ATOM     10  C   UNL     1     -14.870   1.907  32.184  0.00  0.00    +0.125 C 
ATOM     11  C   UNL     1     -15.256  -0.139  30.779  0.00  0.00    +0.036 C 
ATOM     12  C   UNL     1     -14.909   0.380  32.172  0.00  0.00    +0.034 C 
ENDROOT
BRANCH   9   3
ATOM      3  O   UNL     1     -13.034  -0.086  29.902  0.00  0.00    -0.389 OA
ATOM     31  H   UNL     1     -12.532   0.078  29.085  0.00  0.00    +0.210 HD
ENDBRANCH   9   3
BRANCH   8  13
ATOM     13  C   UNL     1     -15.477   2.723  29.318  0.00  0.00    +0.115 C 
BRANCH  13   5
ATOM      5  N   UNL     1     -15.256   3.190  27.958  0.00  0.00    -0.309 NA
ATOM     30  H   UNL     1     -14.605   3.975  27.973  0.00  0.00    +0.122 HD
BRANCH   5  16
ATOM     16  C   UNL     1     -16.510   3.599  27.336  0.00  0.00    +0.116 C 
BRANCH  16  19
ATOM      7  N   UNL     1     -16.636   2.574  23.161  0.00  0.00    -0.263 NA
ATOM     19  C   UNL     1     -16.553   3.240  25.874  0.00  0.00    -0.031 A 
ATOM     21  C   UNL     1     -15.693   3.861  24.977  0.00  0.00    +0.024 A 
ATOM     22  C   UNL     1     -17.457   2.286  25.418  0.00  0.00    +0.024 A 
ATOM     25  C   UNL     1     -15.773   3.495  23.643  0.00  0.00    +0.111 A 
ATOM     26  C   UNL     1     -17.458   1.991  24.064  0.00  0.00    +0.111 A 
ENDBRANCH  16  19
ENDBRANCH   5  16
ENDBRANCH  13   5
ENDBRANCH   8  13
BRANCH  10  14
ATOM     14  C   UNL     1     -14.406   2.427  33.539  0.00  0.00    +0.090 C 
BRANCH  14  15
ATOM      4  O   UNL     1     -14.149   5.935  34.328  0.00  0.00    -0.354 OA
ATOM      6  N   UNL     1     -14.336   4.605  34.684  0.00  0.00    -0.083 NA
ATOM     15  C   UNL     1     -14.251   3.924  33.537  0.00  0.00    +0.087 A 
ATOM     17  C   UNL     1     -14.015   4.763  32.435  0.00  0.00    +0.076 A 
ATOM     18  C   UNL     1     -13.960   6.017  32.986  0.00  0.00    +0.167 A 
BRANCH  18  20
ATOM      1  F   UNL     1     -13.149  11.139  30.973  0.00  0.00    -0.205 F 
ATOM     20  C   UNL     1     -13.750   7.337  32.466  0.00  0.00    +0.020 A 
ATOM     23  C   UNL     1     -12.482   7.915  32.520  0.00  0.00    +0.014 A 
ATOM     24  C   UNL     1     -14.815   8.044  31.908  0.00  0.00    +0.014 A 
ATOM     27  C   UNL     1     -12.278   9.200  32.016  0.00  0.00    +0.039 A 
ATOM     28  C   UNL     1     -14.612   9.328  31.403  0.00  0.00    +0.039 A 
ATOM     29  C   UNL     1     -13.344   9.906  31.457  0.00  0.00    +0.123 A 
ENDBRANCH  18  20
ENDBRANCH  14  15
ENDBRANCH  10  14
TORSDOF 8
ENDMDL
