MODEL 1
REMARK VINA RESULT:      -7.1      0.000      0.000
REMARK  Name = 45783690
REMARK  5 active torsions:
REMARK  status: ('A' for Active; 'I' for Inactive)
REMARK    1  A    between atoms: O_2  and  C_23
REMARK    2  A    between atoms: O_2  and  C_24
REMARK    3  A    between atoms: N_3  and  C_7
REMARK    4  A    between atoms: C_8  and  C_17
REMARK    5  A    between atoms: C_18  and  C_19
REMARK                            x       y       z     vdW  Elec       q    Type
REMARK                         _______ _______ _______ _____ _____    ______ ____
ROOT
ATOM      1  O   UNL     1      15.804   5.999  18.146  0.00  0.00    -0.336 OA
ATOM      4  N   UNL     1      16.286   7.316  19.893  0.00  0.00    -0.190 NA
ATOM      5  N   UNL     1      17.037   5.554  18.641  0.00  0.00    -0.056 NA
ATOM     17  C   UNL     1      15.433   7.038  18.939  0.00  0.00    +0.245 A 
ATOM     18  C   UNL     1      17.253   6.379  19.671  0.00  0.00    +0.204 A 
ENDROOT
BRANCH  18  19
ATOM      6  N   UNL     1      20.593   5.310  20.908  0.00  0.00    -0.221 NA
ATOM     19  C   UNL     1      18.424   6.296  20.494  0.00  0.00    +0.041 A 
ATOM     20  C   UNL     1      18.550   7.072  21.641  0.00  0.00    +0.018 A 
ATOM     21  C   UNL     1      19.464   5.438  20.175  0.00  0.00    +0.126 A 
ATOM     22  C   UNL     1      19.696   6.969  22.421  0.00  0.00    +0.068 A 
ATOM     23  C   UNL     1      20.680   6.082  22.015  0.00  0.00    +0.214 A 
BRANCH  23   2
ATOM      2  O   UNL     1      21.819   5.962  22.766  0.00  0.00    -0.480 OA
ATOM     24  C   UNL     1      22.310   4.644  22.979  0.00  0.00    +0.279 C 
ENDBRANCH  23   2
ENDBRANCH  18  19
BRANCH  17   8
ATOM      3  N   UNL     1      13.715   8.707  19.613  0.00  0.00    -0.288 NA
ATOM      8  C   UNL     1      14.114   7.704  18.606  0.00  0.00    +0.146 C 
ATOM     11  C   UNL     1      12.918   9.709  18.904  0.00  0.00    +0.085 C 
ATOM     12  C   UNL     1      14.158   8.478  17.276  0.00  0.00    +0.030 C 
ATOM     13  C   UNL     1      13.710   9.891  17.624  0.00  0.00    +0.017 C 
BRANCH   3   7
ATOM      7  C   UNL     1      12.992   8.131  20.745  0.00  0.00    +0.057 C 
ATOM      9  C   UNL     1      12.020   9.166  21.323  0.00  0.00    +0.019 C 
ATOM     10  C   UNL     1      12.252   6.865  20.300  0.00  0.00    +0.019 C 
ATOM     14  C   UNL     1      11.189   8.575  22.461  0.00  0.00    +0.002 C 
ATOM     15  C   UNL     1      11.421   6.277  21.440  0.00  0.00    +0.002 C 
ATOM     16  C   UNL     1      10.459   7.307  22.026  0.00  0.00    +0.000 C 
ENDBRANCH   3   7
ENDBRANCH  17   8
TORSDOF 4
ENDMDL
MODEL 2
REMARK VINA RESULT:      -6.6     30.066     32.459
REMARK  Name = 45783690
REMARK  5 active torsions:
REMARK  status: ('A' for Active; 'I' for Inactive)
REMARK    1  A    between atoms: O_2  and  C_23
REMARK    2  A    between atoms: O_2  and  C_24
REMARK    3  A    between atoms: N_3  and  C_7
REMARK    4  A    between atoms: C_8  and  C_17
REMARK    5  A    between atoms: C_18  and  C_19
REMARK                            x       y       z     vdW  Elec       q    Type
REMARK                         _______ _______ _______ _____ _____    ______ ____
ROOT
ATOM      1  O   UNL     1     -14.272   5.282  34.156  0.00  0.00    -0.336 OA
ATOM      4  N   UNL     1     -14.587   5.039  31.952  0.00  0.00    -0.190 NA
ATOM      5  N   UNL     1     -14.185   3.907  33.900  0.00  0.00    -0.056 NA
ATOM     17  C   UNL     1     -14.509   5.875  32.957  0.00  0.00    +0.245 A 
ATOM     18  C   UNL     1     -14.381   3.845  32.579  0.00  0.00    +0.204 A 
ENDROOT
BRANCH  18  19
ATOM      6  N   UNL     1     -13.812   1.387  29.847  0.00  0.00    -0.221 NA
ATOM     19  C   UNL     1     -14.379   2.606  31.857  0.00  0.00    +0.041 A 
ATOM     20  C   UNL     1     -14.915   1.451  32.414  0.00  0.00    +0.018 A 
ATOM     21  C   UNL     1     -13.844   2.521  30.581  0.00  0.00    +0.126 A 
ATOM     22  C   UNL     1     -14.900   0.263  31.691  0.00  0.00    +0.068 A 
ATOM     23  C   UNL     1     -14.341   0.284  30.423  0.00  0.00    +0.214 A 
BRANCH  23   2
ATOM      2  O   UNL     1     -14.315  -0.873  29.690  0.00  0.00    -0.480 OA
ATOM     24  C   UNL     1     -13.043  -1.303  29.218  0.00  0.00    +0.279 C 
ENDBRANCH  23   2
ENDBRANCH  18  19
BRANCH  17   8
ATOM      3  N   UNL     1     -13.622   8.050  32.136  0.00  0.00    -0.288 NA
ATOM      8  C   UNL     1     -14.646   7.383  32.964  0.00  0.00    +0.146 C 
ATOM     11  C   UNL     1     -14.226   9.293  31.655  0.00  0.00    +0.085 C 
ATOM     12  C   UNL     1     -15.991   7.861  32.386  0.00  0.00    +0.030 C 
ATOM     13  C   UNL     1     -15.622   8.839  31.278  0.00  0.00    +0.017 C 
BRANCH   3   7
ATOM      7  C   UNL     1     -12.369   8.288  32.850  0.00  0.00    +0.057 C 
ATOM      9  C   UNL     1     -11.471   9.219  32.029  0.00  0.00    +0.019 C 
ATOM     10  C   UNL     1     -12.663   8.881  34.233  0.00  0.00    +0.019 C 
ATOM     14  C   UNL     1     -10.182   9.554  32.779  0.00  0.00    +0.002 C 
ATOM     15  C   UNL     1     -11.373   9.216  34.980  0.00  0.00    +0.002 C 
ATOM     16  C   UNL     1     -10.469  10.133  34.161  0.00  0.00    +0.000 C 
ENDBRANCH   3   7
ENDBRANCH  17   8
TORSDOF 4
ENDMDL
MODEL 3
REMARK VINA RESULT:      -6.5      1.615      3.514
REMARK  Name = 45783690
REMARK  5 active torsions:
REMARK  status: ('A' for Active; 'I' for Inactive)
REMARK    1  A    between atoms: O_2  and  C_23
REMARK    2  A    between atoms: O_2  and  C_24
REMARK    3  A    between atoms: N_3  and  C_7
REMARK    4  A    between atoms: C_8  and  C_17
REMARK    5  A    between atoms: C_18  and  C_19
REMARK                            x       y       z     vdW  Elec       q    Type
REMARK                         _______ _______ _______ _____ _____    ______ ____
ROOT
ATOM      1  O   UNL     1      14.440   6.626  19.765  0.00  0.00    -0.336 OA
ATOM      4  N   UNL     1      15.699   8.145  20.827  0.00  0.00    -0.190 NA
ATOM      5  N   UNL     1      15.750   6.129  19.746  0.00  0.00    -0.056 NA
ATOM     17  C   UNL     1      14.499   7.815  20.419  0.00  0.00    +0.245 A 
ATOM     18  C   UNL     1      16.432   7.080  20.391  0.00  0.00    +0.204 A 
ENDROOT
BRANCH  18  19
ATOM      6  N   UNL     1      19.864   8.011  21.481  0.00  0.00    -0.221 NA
ATOM     19  C   UNL     1      17.846   6.998  20.616  0.00  0.00    +0.041 A 
ATOM     20  C   UNL     1      18.572   5.883  20.210  0.00  0.00    +0.018 A 
ATOM     21  C   UNL     1      18.533   8.025  21.241  0.00  0.00    +0.126 A 
ATOM     22  C   UNL     1      19.942   5.830  20.440  0.00  0.00    +0.068 A 
ATOM     23  C   UNL     1      20.535   6.910  21.074  0.00  0.00    +0.214 A 
BRANCH  23   2
ATOM      2  O   UNL     1      21.884   6.883  21.312  0.00  0.00    -0.480 OA
ATOM     24  C   UNL     1      22.709   7.600  20.401  0.00  0.00    +0.279 C 
ENDBRANCH  23   2
ENDBRANCH  18  19
BRANCH  17   8
ATOM      3  N   UNL     1      12.309   8.419  19.401  0.00  0.00    -0.288 NA
ATOM      8  C   UNL     1      13.192   8.565  20.576  0.00  0.00    +0.146 C 
ATOM     11  C   UNL     1      10.938   8.531  19.899  0.00  0.00    +0.085 C 
ATOM     12  C   UNL     1      12.353   8.057  21.763  0.00  0.00    +0.030 C 
ATOM     13  C   UNL     1      10.996   7.705  21.168  0.00  0.00    +0.017 C 
BRANCH   3   7
ATOM      7  C   UNL     1      12.591   9.388  18.344  0.00  0.00    +0.057 C 
ATOM      9  C   UNL     1      13.450  10.529  18.900  0.00  0.00    +0.019 C 
ATOM     10  C   UNL     1      13.290   8.690  17.172  0.00  0.00    +0.019 C 
ATOM     14  C   UNL     1      13.831  11.524  17.804  0.00  0.00    +0.002 C 
ATOM     15  C   UNL     1      13.671   9.687  16.078  0.00  0.00    +0.002 C 
ATOM     16  C   UNL     1      14.517  10.832  16.629  0.00  0.00    +0.000 C 
ENDBRANCH   3   7
ENDBRANCH  17   8
TORSDOF 4
ENDMDL
MODEL 4
REMARK VINA RESULT:      -6.4     26.174     28.447
REMARK  Name = 45783690
REMARK  5 active torsions:
REMARK  status: ('A' for Active; 'I' for Inactive)
REMARK    1  A    between atoms: O_2  and  C_23
REMARK    2  A    between atoms: O_2  and  C_24
REMARK    3  A    between atoms: N_3  and  C_7
REMARK    4  A    between atoms: C_8  and  C_17
REMARK    5  A    between atoms: C_18  and  C_19
REMARK                            x       y       z     vdW  Elec       q    Type
REMARK                         _______ _______ _______ _____ _____    ______ ____
ROOT
ATOM      1  O   UNL     1      -2.100 -10.628  14.510  0.00  0.00    -0.336 OA
ATOM      4  N   UNL     1      -4.337 -10.700  14.406  0.00  0.00    -0.190 NA
ATOM      5  N   UNL     1      -2.552 -10.636  15.837  0.00  0.00    -0.056 NA
ATOM     17  C   UNL     1      -3.214 -10.667  13.733  0.00  0.00    +0.245 A 
ATOM     18  C   UNL     1      -3.880 -10.680  15.692  0.00  0.00    +0.204 A 
ENDROOT
BRANCH  18  19
ATOM      6  N   UNL     1      -6.900 -10.053  17.769  0.00  0.00    -0.221 NA
ATOM     19  C   UNL     1      -4.778 -10.702  16.809  0.00  0.00    +0.041 A 
ATOM     20  C   UNL     1      -4.438 -11.358  17.988  0.00  0.00    +0.018 A 
ATOM     21  C   UNL     1      -6.010 -10.071  16.752  0.00  0.00    +0.126 A 
ATOM     22  C   UNL     1      -5.328 -11.363  19.056  0.00  0.00    +0.068 A 
ATOM     23  C   UNL     1      -6.535 -10.703  18.898  0.00  0.00    +0.214 A 
BRANCH  23   2
ATOM      2  O   UNL     1      -7.429 -10.693  19.935  0.00  0.00    -0.480 OA
ATOM     24  C   UNL     1      -8.678 -11.338  19.712  0.00  0.00    +0.279 C 
ENDBRANCH  23   2
ENDBRANCH  18  19
BRANCH  17   8
ATOM      3  N   UNL     1      -3.820  -9.662  11.538  0.00  0.00    -0.288 NA
ATOM      8  C   UNL     1      -2.992 -10.667  12.235  0.00  0.00    +0.146 C 
ATOM     11  C   UNL     1      -3.071  -9.266  10.345  0.00  0.00    +0.085 C 
ATOM     12  C   UNL     1      -1.543 -10.317  11.849  0.00  0.00    +0.030 C 
ATOM     13  C   UNL     1      -1.661  -9.143  10.886  0.00  0.00    +0.017 C 
BRANCH   3   7
ATOM      7  C   UNL     1      -5.159 -10.147  11.211  0.00  0.00    +0.057 C 
ATOM      9  C   UNL     1      -6.191  -9.046  11.479  0.00  0.00    +0.019 C 
ATOM     10  C   UNL     1      -5.205 -10.603   9.748  0.00  0.00    +0.019 C 
ATOM     14  C   UNL     1      -7.597  -9.489  11.075  0.00  0.00    +0.002 C 
ATOM     15  C   UNL     1      -6.612 -11.044   9.347  0.00  0.00    +0.002 C 
ATOM     16  C   UNL     1      -7.644  -9.955   9.623  0.00  0.00    +0.000 C 
ENDBRANCH   3   7
ENDBRANCH  17   8
TORSDOF 4
ENDMDL
MODEL 5
REMARK VINA RESULT:      -6.3     17.402     20.479
REMARK  Name = 45783690
REMARK  5 active torsions:
REMARK  status: ('A' for Active; 'I' for Inactive)
REMARK    1  A    between atoms: O_2  and  C_23
REMARK    2  A    between atoms: O_2  and  C_24
REMARK    3  A    between atoms: N_3  and  C_7
REMARK    4  A    between atoms: C_8  and  C_17
REMARK    5  A    between atoms: C_18  and  C_19
REMARK                            x       y       z     vdW  Elec       q    Type
REMARK                         _______ _______ _______ _____ _____    ______ ____
ROOT
ATOM      1  O   UNL     1      11.431   5.625   0.716  0.00  0.00    -0.336 OA
ATOM      4  N   UNL     1      12.001   4.227   2.370  0.00  0.00    -0.190 NA
ATOM      5  N   UNL     1      10.904   6.177   1.891  0.00  0.00    -0.056 NA
ATOM     17  C   UNL     1      12.061   4.480   1.087  0.00  0.00    +0.245 A 
ATOM     18  C   UNL     1      11.282   5.295   2.822  0.00  0.00    +0.204 A 
ENDROOT
BRANCH  18  19
ATOM      6  N   UNL     1      11.336   6.599   6.304  0.00  0.00    -0.221 NA
ATOM     19  C   UNL     1      10.957   5.451   4.209  0.00  0.00    +0.041 A 
ATOM     20  C   UNL     1       9.993   4.652   4.814  0.00  0.00    +0.018 A 
ATOM     21  C   UNL     1      11.594   6.402   4.992  0.00  0.00    +0.126 A 
ATOM     22  C   UNL     1       9.699   4.825   6.162  0.00  0.00    +0.068 A 
ATOM     23  C   UNL     1      10.392   5.804   6.856  0.00  0.00    +0.214 A 
BRANCH  23   2
ATOM      2  O   UNL     1      10.121   5.995   8.185  0.00  0.00    -0.480 OA
ATOM     24  C   UNL     1       9.647   4.866   8.911  0.00  0.00    +0.279 C 
ENDBRANCH  23   2
ENDBRANCH  18  19
BRANCH  17   8
ATOM      3  N   UNL     1      12.370   4.180  -1.364  0.00  0.00    -0.288 NA
ATOM      8  C   UNL     1      12.724   3.685  -0.019  0.00  0.00    +0.146 C 
ATOM     11  C   UNL     1      13.510   3.875  -2.229  0.00  0.00    +0.085 C 
ATOM     12  C   UNL     1      14.261   3.759   0.035  0.00  0.00    +0.030 C 
ATOM     13  C   UNL     1      14.683   4.247  -1.344  0.00  0.00    +0.017 C 
BRANCH   3   7
ATOM      7  C   UNL     1      11.124   3.612  -1.878  0.00  0.00    +0.057 C 
ATOM      9  C   UNL     1      10.524   4.546  -2.934  0.00  0.00    +0.019 C 
ATOM     10  C   UNL     1      11.388   2.218  -2.457  0.00  0.00    +0.019 C 
ATOM     14  C   UNL     1       9.260   3.949  -3.551  0.00  0.00    +0.002 C 
ATOM     15  C   UNL     1      10.122   1.624  -3.074  0.00  0.00    +0.002 C 
ATOM     16  C   UNL     1       9.514   2.556  -4.119  0.00  0.00    +0.000 C 
ENDBRANCH   3   7
ENDBRANCH  17   8
TORSDOF 4
ENDMDL
MODEL 6
REMARK VINA RESULT:      -6.1     27.160     31.534
REMARK  Name = 45783690
REMARK  5 active torsions:
REMARK  status: ('A' for Active; 'I' for Inactive)
REMARK    1  A    between atoms: O_2  and  C_23
REMARK    2  A    between atoms: O_2  and  C_24
REMARK    3  A    between atoms: N_3  and  C_7
REMARK    4  A    between atoms: C_8  and  C_17
REMARK    5  A    between atoms: C_18  and  C_19
REMARK                            x       y       z     vdW  Elec       q    Type
REMARK                         _______ _______ _______ _____ _____    ______ ____
ROOT
ATOM      1  O   UNL     1     -15.288   4.106  22.591  0.00  0.00    -0.336 OA
ATOM      4  N   UNL     1     -15.426   6.327  22.854  0.00  0.00    -0.190 NA
ATOM      5  N   UNL     1     -14.213   4.651  21.875  0.00  0.00    -0.056 NA
ATOM     17  C   UNL     1     -15.950   5.160  23.136  0.00  0.00    +0.245 A 
ATOM     18  C   UNL     1     -14.363   5.964  22.079  0.00  0.00    +0.204 A 
ENDROOT
BRANCH  18  19
ATOM      6  N   UNL     1     -12.997   9.252  21.006  0.00  0.00    -0.221 NA
ATOM     19  C   UNL     1     -13.469   6.937  21.523  0.00  0.00    +0.041 A 
ATOM     20  C   UNL     1     -12.251   6.558  20.970  0.00  0.00    +0.018 A 
ATOM     21  C   UNL     1     -13.792   8.285  21.516  0.00  0.00    +0.126 A 
ATOM     22  C   UNL     1     -11.405   7.524  20.436  0.00  0.00    +0.068 A 
ATOM     23  C   UNL     1     -11.820   8.845  20.479  0.00  0.00    +0.214 A 
BRANCH  23   2
ATOM      2  O   UNL     1     -11.005   9.815  19.960  0.00  0.00    -0.480 OA
ATOM     24  C   UNL     1     -10.191   9.444  18.853  0.00  0.00    +0.279 C 
ENDBRANCH  23   2
ENDBRANCH  18  19
BRANCH  17   8
ATOM      3  N   UNL     1     -16.901   4.897  25.421  0.00  0.00    -0.288 NA
ATOM      8  C   UNL     1     -17.170   4.833  23.970  0.00  0.00    +0.146 C 
ATOM     11  C   UNL     1     -18.164   5.267  26.059  0.00  0.00    +0.085 C 
ATOM     12  C   UNL     1     -18.329   5.821  23.742  0.00  0.00    +0.030 C 
ATOM     13  C   UNL     1     -18.683   6.345  25.128  0.00  0.00    +0.017 C 
BRANCH   3   7
ATOM      7  C   UNL     1     -16.355   3.654  25.961  0.00  0.00    +0.057 C 
ATOM      9  C   UNL     1     -16.380   3.697  27.493  0.00  0.00    +0.019 C 
ATOM     10  C   UNL     1     -17.156   2.460  25.429  0.00  0.00    +0.019 C 
ATOM     14  C   UNL     1     -15.888   2.381  28.095  0.00  0.00    +0.002 C 
ATOM     15  C   UNL     1     -16.663   1.146  26.033  0.00  0.00    +0.002 C 
ATOM     16  C   UNL     1     -16.675   1.188  27.559  0.00  0.00    +0.000 C 
ENDBRANCH   3   7
ENDBRANCH  17   8
TORSDOF 4
ENDMDL
MODEL 7
REMARK VINA RESULT:      -6.0     26.159     29.472
REMARK  Name = 45783690
REMARK  5 active torsions:
REMARK  status: ('A' for Active; 'I' for Inactive)
REMARK    1  A    between atoms: O_2  and  C_23
REMARK    2  A    between atoms: O_2  and  C_24
REMARK    3  A    between atoms: N_3  and  C_7
REMARK    4  A    between atoms: C_8  and  C_17
REMARK    5  A    between atoms: C_18  and  C_19
REMARK                            x       y       z     vdW  Elec       q    Type
REMARK                         _______ _______ _______ _____ _____    ______ ____
ROOT
ATOM      1  O   UNL     1      -5.063  -9.649  16.030  0.00  0.00    -0.336 OA
ATOM      4  N   UNL     1      -5.271 -11.671  16.970  0.00  0.00    -0.190 NA
ATOM      5  N   UNL     1      -6.237  -9.604  16.793  0.00  0.00    -0.056 NA
ATOM     17  C   UNL     1      -4.557 -10.900  16.189  0.00  0.00    +0.245 A 
ATOM     18  C   UNL     1      -6.291 -10.834  17.317  0.00  0.00    +0.204 A 
ENDROOT
BRANCH  18  19
ATOM      6  N   UNL     1      -9.584 -10.907  19.043  0.00  0.00    -0.221 NA
ATOM     19  C   UNL     1      -7.349 -11.255  18.187  0.00  0.00    +0.041 A 
ATOM     20  C   UNL     1      -7.203 -12.372  19.003  0.00  0.00    +0.018 A 
ATOM     21  C   UNL     1      -8.548 -10.564  18.244  0.00  0.00    +0.126 A 
ATOM     22  C   UNL     1      -8.246 -12.757  19.839  0.00  0.00    +0.068 A 
ATOM     23  C   UNL     1      -9.405 -11.999  19.821  0.00  0.00    +0.214 A 
BRANCH  23   2
ATOM      2  O   UNL     1     -10.447 -12.357  20.635  0.00  0.00    -0.480 OA
ATOM     24  C   UNL     1     -10.680 -13.751  20.801  0.00  0.00    +0.279 C 
ENDBRANCH  23   2
ENDBRANCH  18  19
BRANCH  17   8
ATOM      3  N   UNL     1      -3.152 -10.465  14.182  0.00  0.00    -0.288 NA
ATOM      8  C   UNL     1      -3.269 -11.206  15.454  0.00  0.00    +0.146 C 
ATOM     11  C   UNL     1      -1.721 -10.268  13.950  0.00  0.00    +0.085 C 
ATOM     12  C   UNL     1      -2.017 -10.807  16.257  0.00  0.00    +0.030 C 
ATOM     13  C   UNL     1      -1.227  -9.891  15.332  0.00  0.00    +0.017 C 
BRANCH   3   7
ATOM      7  C   UNL     1      -3.803 -11.140  13.061  0.00  0.00    +0.057 C 
ATOM      9  C   UNL     1      -4.880 -10.230  12.460  0.00  0.00    +0.019 C 
ATOM     10  C   UNL     1      -2.757 -11.528  12.009  0.00  0.00    +0.019 C 
ATOM     14  C   UNL     1      -5.531 -10.871  11.235  0.00  0.00    +0.002 C 
ATOM     15  C   UNL     1      -3.411 -12.168  10.785  0.00  0.00    +0.002 C 
ATOM     16  C   UNL     1      -4.492 -11.270  10.190  0.00  0.00    +0.000 C 
ENDBRANCH   3   7
ENDBRANCH  17   8
TORSDOF 4
ENDMDL
MODEL 8
REMARK VINA RESULT:      -6.0     17.178     20.585
REMARK  Name = 45783690
REMARK  5 active torsions:
REMARK  status: ('A' for Active; 'I' for Inactive)
REMARK    1  A    between atoms: O_2  and  C_23
REMARK    2  A    between atoms: O_2  and  C_24
REMARK    3  A    between atoms: N_3  and  C_7
REMARK    4  A    between atoms: C_8  and  C_17
REMARK    5  A    between atoms: C_18  and  C_19
REMARK                            x       y       z     vdW  Elec       q    Type
REMARK                         _______ _______ _______ _____ _____    ______ ____
ROOT
ATOM      1  O   UNL     1      10.796   4.703   0.641  0.00  0.00    -0.336 OA
ATOM      4  N   UNL     1      11.697   4.690   2.692  0.00  0.00    -0.190 NA
ATOM      5  N   UNL     1       9.878   5.357   1.474  0.00  0.00    -0.056 NA
ATOM     17  C   UNL     1      11.836   4.343   1.437  0.00  0.00    +0.245 A 
ATOM     18  C   UNL     1      10.482   5.309   2.666  0.00  0.00    +0.204 A 
ENDROOT
BRANCH  18  19
ATOM      6  N   UNL     1       9.616   5.794   6.250  0.00  0.00    -0.221 NA
ATOM     19  C   UNL     1       9.897   5.869   3.849  0.00  0.00    +0.041 A 
ATOM     20  C   UNL     1       9.068   6.983   3.781  0.00  0.00    +0.018 A 
ATOM     21  C   UNL     1      10.137   5.317   5.097  0.00  0.00    +0.126 A 
ATOM     22  C   UNL     1       8.513   7.504   4.944  0.00  0.00    +0.068 A 
ATOM     23  C   UNL     1       8.816   6.879   6.143  0.00  0.00    +0.214 A 
BRANCH  23   2
ATOM      2  O   UNL     1       8.283   7.373   7.304  0.00  0.00    -0.480 OA
ATOM     24  C   UNL     1       9.035   8.373   7.981  0.00  0.00    +0.279 C 
ENDBRANCH  23   2
ENDBRANCH  18  19
BRANCH  17   8
ATOM      3  N   UNL     1      13.561   4.371  -0.357  0.00  0.00    -0.288 NA
ATOM      8  C   UNL     1      12.978   3.608   0.764  0.00  0.00    +0.146 C 
ATOM     11  C   UNL     1      14.966   3.971  -0.441  0.00  0.00    +0.085 C 
ATOM     12  C   UNL     1      14.159   3.346   1.717  0.00  0.00    +0.030 C 
ATOM     13  C   UNL     1      15.373   3.944   1.019  0.00  0.00    +0.017 C 
BRANCH   3   7
ATOM      7  C   UNL     1      12.855   4.168  -1.621  0.00  0.00    +0.057 C 
ATOM      9  C   UNL     1      13.772   4.536  -2.793  0.00  0.00    +0.019 C 
ATOM     10  C   UNL     1      12.382   2.714  -1.724  0.00  0.00    +0.019 C 
ATOM     14  C   UNL     1      13.094   4.263  -4.136  0.00  0.00    +0.002 C 
ATOM     15  C   UNL     1      11.706   2.444  -3.068  0.00  0.00    +0.002 C 
ATOM     16  C   UNL     1      12.610   2.819  -4.239  0.00  0.00    +0.000 C 
ENDBRANCH   3   7
ENDBRANCH  17   8
TORSDOF 4
ENDMDL
MODEL 9
REMARK VINA RESULT:      -6.0     27.817     29.218
REMARK  Name = 45783690
REMARK  5 active torsions:
REMARK  status: ('A' for Active; 'I' for Inactive)
REMARK    1  A    between atoms: O_2  and  C_23
REMARK    2  A    between atoms: O_2  and  C_24
REMARK    3  A    between atoms: N_3  and  C_7
REMARK    4  A    between atoms: C_8  and  C_17
REMARK    5  A    between atoms: C_18  and  C_19
REMARK                            x       y       z     vdW  Elec       q    Type
REMARK                         _______ _______ _______ _____ _____    ______ ____
ROOT
ATOM      1  O   UNL     1      -4.696 -11.667  16.044  0.00  0.00    -0.336 OA
ATOM      4  N   UNL     1      -5.611  -9.894  15.025  0.00  0.00    -0.190 NA
ATOM      5  N   UNL     1      -4.227 -11.691  14.724  0.00  0.00    -0.056 NA
ATOM     17  C   UNL     1      -5.503 -10.578  16.137  0.00  0.00    +0.245 A 
ATOM     18  C   UNL     1      -4.811 -10.615  14.187  0.00  0.00    +0.204 A 
ENDROOT
BRANCH  18  19
ATOM      6  N   UNL     1      -5.514  -9.250  10.800  0.00  0.00    -0.221 NA
ATOM     19  C   UNL     1      -4.616 -10.233  12.819  0.00  0.00    +0.041 A 
ATOM     20  C   UNL     1      -3.402 -10.455  12.179  0.00  0.00    +0.018 A 
ATOM     21  C   UNL     1      -5.631  -9.632  12.091  0.00  0.00    +0.126 A 
ATOM     22  C   UNL     1      -3.242 -10.076  10.851  0.00  0.00    +0.068 A 
ATOM     23  C   UNL     1      -4.319  -9.482  10.212  0.00  0.00    +0.214 A 
BRANCH  23   2
ATOM      2  O   UNL     1      -4.187  -9.099   8.904  0.00  0.00    -0.480 OA
ATOM     24  C   UNL     1      -5.062  -9.713   7.965  0.00  0.00    +0.279 C 
ENDBRANCH  23   2
ENDBRANCH  18  19
BRANCH  17   8
ATOM      3  N   UNL     1      -7.401 -11.079  17.667  0.00  0.00    -0.288 NA
ATOM      8  C   UNL     1      -6.144 -10.326  17.486  0.00  0.00    +0.146 C 
ATOM     11  C   UNL     1      -7.528 -11.332  19.102  0.00  0.00    +0.085 C 
ATOM     12  C   UNL     1      -5.250 -10.767  18.660  0.00  0.00    +0.030 C 
ATOM     13  C   UNL     1      -6.111 -11.719  19.479  0.00  0.00    +0.017 C 
BRANCH   3   7
ATOM      7  C   UNL     1      -8.570 -10.388  17.125  0.00  0.00    +0.057 C 
ATOM      9  C   UNL     1      -9.845 -10.929  17.781  0.00  0.00    +0.019 C 
ATOM     10  C   UNL     1      -8.430  -8.878  17.349  0.00  0.00    +0.019 C 
ATOM     14  C   UNL     1     -11.083 -10.175  17.297  0.00  0.00    +0.002 C 
ATOM     15  C   UNL     1      -9.670  -8.127  16.865  0.00  0.00    +0.002 C 
ATOM     16  C   UNL     1     -10.944  -8.670  17.507  0.00  0.00    +0.000 C 
ENDBRANCH   3   7
ENDBRANCH  17   8
TORSDOF 4
ENDMDL
MODEL 10
REMARK VINA RESULT:      -6.0      2.130      3.406
REMARK  Name = 45783690
REMARK  5 active torsions:
REMARK  status: ('A' for Active; 'I' for Inactive)
REMARK    1  A    between atoms: O_2  and  C_23
REMARK    2  A    between atoms: O_2  and  C_24
REMARK    3  A    between atoms: N_3  and  C_7
REMARK    4  A    between atoms: C_8  and  C_17
REMARK    5  A    between atoms: C_18  and  C_19
REMARK                            x       y       z     vdW  Elec       q    Type
REMARK                         _______ _______ _______ _____ _____    ______ ____
ROOT
ATOM      1  O   UNL     1      14.259   7.543  19.711  0.00  0.00    -0.336 OA
ATOM      4  N   UNL     1      15.479   7.604  21.588  0.00  0.00    -0.190 NA
ATOM      5  N   UNL     1      15.564   7.194  19.338  0.00  0.00    -0.056 NA
ATOM     17  C   UNL     1      14.297   7.768  21.050  0.00  0.00    +0.245 A 
ATOM     18  C   UNL     1      16.224   7.252  20.500  0.00  0.00    +0.204 A 
ENDROOT
BRANCH  18  19
ATOM      6  N   UNL     1      19.807   7.605  21.428  0.00  0.00    -0.221 NA
ATOM     19  C   UNL     1      17.624   6.966  20.606  0.00  0.00    +0.041 A 
ATOM     20  C   UNL     1      18.170   5.828  20.022  0.00  0.00    +0.018 A 
ATOM     21  C   UNL     1      18.479   7.815  21.292  0.00  0.00    +0.126 A 
ATOM     22  C   UNL     1      19.532   5.577  20.140  0.00  0.00    +0.068 A 
ATOM     23  C   UNL     1      20.300   6.487  20.848  0.00  0.00    +0.214 A 
BRANCH  23   2
ATOM      2  O   UNL     1      21.645   6.263  20.978  0.00  0.00    -0.480 OA
ATOM     24  C   UNL     1      22.143   5.033  20.464  0.00  0.00    +0.279 C 
ENDBRANCH  23   2
ENDBRANCH  18  19
BRANCH  17   8
ATOM      3  N   UNL     1      12.360   9.330  21.053  0.00  0.00    -0.288 NA
ATOM      8  C   UNL     1      12.991   8.166  21.705  0.00  0.00    +0.146 C 
ATOM     11  C   UNL     1      10.918   9.183  21.249  0.00  0.00    +0.085 C 
ATOM     12  C   UNL     1      11.928   7.054  21.636  0.00  0.00    +0.030 C 
ATOM     13  C   UNL     1      10.715   7.704  20.985  0.00  0.00    +0.017 C 
BRANCH   3   7
ATOM      7  C   UNL     1      12.855  10.611  21.555  0.00  0.00    +0.057 C 
ATOM      9  C   UNL     1      12.084  11.761  20.898  0.00  0.00    +0.019 C 
ATOM     10  C   UNL     1      12.722  10.656  23.082  0.00  0.00    +0.019 C 
ATOM     14  C   UNL     1      12.521  13.115  21.457  0.00  0.00    +0.002 C 
ATOM     15  C   UNL     1      13.158  12.011  23.637  0.00  0.00    +0.002 C 
ATOM     16  C   UNL     1      12.402  13.161  22.978  0.00  0.00    +0.000 C 
ENDBRANCH   3   7
ENDBRANCH  17   8
TORSDOF 4
ENDMDL
