MODEL 1
REMARK VINA RESULT:      -6.8      0.000      0.000
REMARK  Name = 26742198
REMARK  11 active torsions:
REMARK  status: ('A' for Active; 'I' for Inactive)
REMARK    1  A    between atoms: O_1  and  C_11
REMARK    2  A    between atoms: O_4  and  C_26
REMARK    3  A    between atoms: O_4  and  C_30
REMARK    4  A    between atoms: O_5  and  C_27
REMARK    5  A    between atoms: O_5  and  C_32
REMARK    6  A    between atoms: O_6  and  C_31
REMARK    7  A    between atoms: O_6  and  C_33
REMARK    8  A    between atoms: N_8  and  C_10
REMARK    9  A    between atoms: N_9  and  C_19
REMARK   10  A    between atoms: C_17  and  C_18
REMARK   11  A    between atoms: C_30  and  C_31
REMARK                            x       y       z     vdW  Elec       q    Type
REMARK                         _______ _______ _______ _____ _____    ______ ____
ROOT
ATOM      2  O   UNL     1      13.347  11.155  21.991  0.00  0.00    -0.252 OA
ATOM      7  N   UNL     1      12.325   9.589  20.631  0.00  0.00    -0.284 N 
ATOM      9  N   UNL     1      14.669   9.889  20.560  0.00  0.00    -0.269 N 
ATOM     10  C   UNL     1      12.557   7.101  20.313  0.00  0.00    +0.119 C 
ATOM     11  C   UNL     1      11.876   6.865  21.673  0.00  0.00    +0.136 C 
ATOM     12  C   UNL     1      10.494   7.502  21.845  0.00  0.00    +0.035 C 
ATOM     13  C   UNL     1      12.343   8.478  19.670  0.00  0.00    +0.134 C 
ATOM     14  C   UNL     1      10.552   8.972  22.264  0.00  0.00    +0.022 C 
ATOM     15  C   UNL     1      11.003   9.925  21.164  0.00  0.00    +0.109 C 
ATOM     16  C   UNL     1      13.456  10.282  21.126  0.00  0.00    +0.307 C 
ATOM     36  H   UNL     1      14.660   9.144  19.873  0.00  0.00    +0.156 HD
ENDROOT
BRANCH   9  19
ATOM     19  C   UNL     1      15.965  10.388  20.843  0.00  0.00    +0.038 A 
ATOM     22  C   UNL     1      16.581  11.271  19.955  0.00  0.00    +0.069 A 
ATOM     23  C   UNL     1      16.624   9.997  22.008  0.00  0.00    +0.023 A 
ATOM     27  C   UNL     1      17.857  11.762  20.232  0.00  0.00    +0.122 A 
ATOM     28  C   UNL     1      17.901  10.488  22.285  0.00  0.00    +0.005 A 
ATOM     29  C   UNL     1      18.516  11.370  21.398  0.00  0.00    +0.046 A 
BRANCH  27   5
ATOM      5  O   UNL     1      18.458  12.623  19.368  0.00  0.00    -0.495 OA
ATOM     32  C   UNL     1      18.033  13.985  19.406  0.00  0.00    +0.277 C 
ENDBRANCH  27   5
ENDBRANCH   9  19
BRANCH  10   8
ATOM      3  O   UNL     1      14.486   7.035  18.187  0.00  0.00    -0.270 OA
ATOM      8  N   UNL     1      13.973   6.811  20.437  0.00  0.00    -0.305 N 
ATOM     17  C   UNL     1      14.821   6.804  19.346  0.00  0.00    +0.244 C 
ATOM     34  H   UNL     1      14.346   6.723  21.376  0.00  0.00    +0.149 HD
BRANCH  17  18
ATOM     18  C   UNL     1      16.238   6.463  19.638  0.00  0.00    +0.037 A 
ATOM     20  C   UNL     1      16.805   6.824  20.859  0.00  0.00    +0.016 A 
ATOM     21  C   UNL     1      17.000   5.783  18.688  0.00  0.00    +0.016 A 
ATOM     24  C   UNL     1      18.136   6.506  21.132  0.00  0.00    +0.046 A 
ATOM     25  C   UNL     1      18.331   5.464  18.961  0.00  0.00    +0.046 A 
ATOM     26  C   UNL     1      18.898   5.826  20.182  0.00  0.00    +0.121 A 
BRANCH  26   4
ATOM      4  O   UNL     1      20.196   5.514  20.448  0.00  0.00    -0.490 OA
BRANCH   4  30
ATOM     30  C   UNL     1      20.848   6.264  21.472  0.00  0.00    +0.257 C 
BRANCH  30  31
ATOM     31  C   UNL     1      21.486   5.305  22.458  0.00  0.00    +0.200 C 
BRANCH  31   6
ATOM      6  O   UNL     1      21.251   5.775  23.780  0.00  0.00    -0.380 OA
ATOM     33  C   UNL     1      20.626   7.051  23.776  0.00  0.00    +0.194 C 
ENDBRANCH  31   6
ENDBRANCH  30  31
ENDBRANCH   4  30
ENDBRANCH  26   4
ENDBRANCH  17  18
ENDBRANCH  10   8
BRANCH  11   1
ATOM      1  O   UNL     1      11.710   5.449  21.838  0.00  0.00    -0.390 OA
ATOM     35  H   UNL     1      12.597   5.048  21.846  0.00  0.00    +0.210 HD
ENDBRANCH  11   1
TORSDOF 9
ENDMDL
MODEL 2
REMARK VINA RESULT:      -6.2     28.599     30.760
REMARK  Name = 26742198
REMARK  11 active torsions:
REMARK  status: ('A' for Active; 'I' for Inactive)
REMARK    1  A    between atoms: O_1  and  C_11
REMARK    2  A    between atoms: O_4  and  C_26
REMARK    3  A    between atoms: O_4  and  C_30
REMARK    4  A    between atoms: O_5  and  C_27
REMARK    5  A    between atoms: O_5  and  C_32
REMARK    6  A    between atoms: O_6  and  C_31
REMARK    7  A    between atoms: O_6  and  C_33
REMARK    8  A    between atoms: N_8  and  C_10
REMARK    9  A    between atoms: N_9  and  C_19
REMARK   10  A    between atoms: C_17  and  C_18
REMARK   11  A    between atoms: C_30  and  C_31
REMARK                            x       y       z     vdW  Elec       q    Type
REMARK                         _______ _______ _______ _____ _____    ______ ____
ROOT
ATOM      2  O   UNL     1      -8.503 -10.387  18.527  0.00  0.00    -0.252 OA
ATOM      7  N   UNL     1      -6.996 -12.065  18.017  0.00  0.00    -0.284 N 
ATOM      9  N   UNL     1      -8.248 -11.020  16.306  0.00  0.00    -0.269 N 
ATOM     10  C   UNL     1      -4.966 -12.230  16.535  0.00  0.00    +0.119 C 
ATOM     11  C   UNL     1      -4.175 -11.353  17.523  0.00  0.00    +0.136 C 
ATOM     12  C   UNL     1      -4.127 -11.856  18.969  0.00  0.00    +0.035 C 
ATOM     13  C   UNL     1      -6.234 -12.900  17.080  0.00  0.00    +0.134 C 
ATOM     14  C   UNL     1      -5.357 -11.462  19.789  0.00  0.00    +0.022 C 
ATOM     15  C   UNL     1      -6.627 -12.221  19.425  0.00  0.00    +0.109 C 
ATOM     16  C   UNL     1      -7.968 -11.095  17.670  0.00  0.00    +0.307 C 
ATOM     36  H   UNL     1      -7.738 -11.627  15.675  0.00  0.00    +0.156 HD
ENDROOT
BRANCH   9  19
ATOM     19  C   UNL     1      -9.164 -10.159  15.651  0.00  0.00    +0.038 A 
ATOM     22  C   UNL     1      -9.182  -8.797  15.956  0.00  0.00    +0.069 A 
ATOM     23  C   UNL     1     -10.048 -10.672  14.701  0.00  0.00    +0.023 A 
ATOM     27  C   UNL     1     -10.083  -7.950  15.313  0.00  0.00    +0.122 A 
ATOM     28  C   UNL     1     -10.950  -9.823  14.058  0.00  0.00    +0.005 A 
ATOM     29  C   UNL     1     -10.967  -8.463  14.364  0.00  0.00    +0.046 A 
BRANCH  27   5
ATOM      5  O   UNL     1     -10.101  -6.621  15.610  0.00  0.00    -0.495 OA
ATOM     32  C   UNL     1     -11.364  -6.046  15.939  0.00  0.00    +0.277 C 
ENDBRANCH  27   5
ENDBRANCH   9  19
BRANCH  10   8
ATOM      3  O   UNL     1      -3.383 -12.056  14.147  0.00  0.00    -0.270 OA
ATOM      8  N   UNL     1      -5.270 -11.450  15.351  0.00  0.00    -0.305 N 
ATOM     17  C   UNL     1      -4.438 -11.434  14.247  0.00  0.00    +0.244 C 
ATOM     34  H   UNL     1      -6.178 -11.001  15.313  0.00  0.00    +0.149 HD
BRANCH  17  18
ATOM     18  C   UNL     1      -4.877 -10.564  13.125  0.00  0.00    +0.037 A 
ATOM     20  C   UNL     1      -4.049 -10.384  12.018  0.00  0.00    +0.016 A 
ATOM     21  C   UNL     1      -6.117  -9.928  13.181  0.00  0.00    +0.016 A 
ATOM     24  C   UNL     1      -4.460  -9.566  10.965  0.00  0.00    +0.046 A 
ATOM     25  C   UNL     1      -6.528  -9.110  12.128  0.00  0.00    +0.046 A 
ATOM     26  C   UNL     1      -5.699  -8.929  11.021  0.00  0.00    +0.121 A 
BRANCH  26   4
ATOM      4  O   UNL     1      -6.101  -8.132   9.993  0.00  0.00    -0.490 OA
BRANCH   4  30
ATOM     30  C   UNL     1      -7.341  -8.456   9.365  0.00  0.00    +0.257 C 
BRANCH  30  31
ATOM     31  C   UNL     1      -7.756  -7.308   8.466  0.00  0.00    +0.200 C 
BRANCH  31   6
ATOM      6  O   UNL     1      -9.054  -6.868   8.844  0.00  0.00    -0.380 OA
ATOM     33  C   UNL     1      -9.288  -5.527   8.437  0.00  0.00    +0.194 C 
ENDBRANCH  31   6
ENDBRANCH  30  31
ENDBRANCH   4  30
ENDBRANCH  26   4
ENDBRANCH  17  18
ENDBRANCH  10   8
BRANCH  11   1
ATOM      1  O   UNL     1      -2.820 -11.283  17.056  0.00  0.00    -0.390 OA
ATOM     35  H   UNL     1      -2.790 -11.701  16.178  0.00  0.00    +0.210 HD
ENDBRANCH  11   1
TORSDOF 9
ENDMDL
MODEL 3
REMARK VINA RESULT:      -6.2      1.519      2.054
REMARK  Name = 26742198
REMARK  11 active torsions:
REMARK  status: ('A' for Active; 'I' for Inactive)
REMARK    1  A    between atoms: O_1  and  C_11
REMARK    2  A    between atoms: O_4  and  C_26
REMARK    3  A    between atoms: O_4  and  C_30
REMARK    4  A    between atoms: O_5  and  C_27
REMARK    5  A    between atoms: O_5  and  C_32
REMARK    6  A    between atoms: O_6  and  C_31
REMARK    7  A    between atoms: O_6  and  C_33
REMARK    8  A    between atoms: N_8  and  C_10
REMARK    9  A    between atoms: N_9  and  C_19
REMARK   10  A    between atoms: C_17  and  C_18
REMARK   11  A    between atoms: C_30  and  C_31
REMARK                            x       y       z     vdW  Elec       q    Type
REMARK                         _______ _______ _______ _____ _____    ______ ____
ROOT
ATOM      2  O   UNL     1      14.092  11.666  21.120  0.00  0.00    -0.252 OA
ATOM      7  N   UNL     1      13.495   9.892  19.762  0.00  0.00    -0.284 N 
ATOM      9  N   UNL     1      15.772  10.351  20.199  0.00  0.00    -0.269 N 
ATOM     10  C   UNL     1      13.907   7.408  19.813  0.00  0.00    +0.119 C 
ATOM     11  C   UNL     1      12.933   7.271  20.997  0.00  0.00    +0.136 C 
ATOM     12  C   UNL     1      11.523   7.821  20.766  0.00  0.00    +0.035 C 
ATOM     13  C   UNL     1      13.790   8.688  18.975  0.00  0.00    +0.134 C 
ATOM     14  C   UNL     1      11.413   9.329  21.004  0.00  0.00    +0.022 C 
ATOM     15  C   UNL     1      12.070  10.187  19.930  0.00  0.00    +0.109 C 
ATOM     16  C   UNL     1      14.443  10.715  20.418  0.00  0.00    +0.307 C 
ATOM     36  H   UNL     1      15.961   9.537  19.626  0.00  0.00    +0.156 HD
ENDROOT
BRANCH   9  19
ATOM     19  C   UNL     1      16.939  10.971  20.711  0.00  0.00    +0.038 A 
ATOM     22  C   UNL     1      17.706  11.799  19.891  0.00  0.00    +0.069 A 
ATOM     23  C   UNL     1      17.322  10.752  22.035  0.00  0.00    +0.023 A 
ATOM     27  C   UNL     1      18.856  12.408  20.394  0.00  0.00    +0.122 A 
ATOM     28  C   UNL     1      18.472  11.362  22.538  0.00  0.00    +0.005 A 
ATOM     29  C   UNL     1      19.238  12.189  21.718  0.00  0.00    +0.046 A 
BRANCH  27   5
ATOM      5  O   UNL     1      19.604  13.216  19.595  0.00  0.00    -0.495 OA
ATOM     32  C   UNL     1      19.729  12.840  18.224  0.00  0.00    +0.277 C 
ENDBRANCH  27   5
ENDBRANCH   9  19
BRANCH  10   8
ATOM      3  O   UNL     1      16.054   6.075  18.452  0.00  0.00    -0.270 OA
ATOM      8  N   UNL     1      15.264   7.236  20.296  0.00  0.00    -0.305 N 
ATOM     17  C   UNL     1      16.229   6.576  19.560  0.00  0.00    +0.244 C 
ATOM     34  H   UNL     1      15.515   7.720  21.151  0.00  0.00    +0.149 HD
BRANCH  17  18
ATOM     18  C   UNL     1      17.563   6.461  20.206  0.00  0.00    +0.037 A 
ATOM     20  C   UNL     1      18.478   5.512  19.752  0.00  0.00    +0.016 A 
ATOM     21  C   UNL     1      17.897   7.302  21.268  0.00  0.00    +0.016 A 
ATOM     24  C   UNL     1      19.729   5.403  20.360  0.00  0.00    +0.046 A 
ATOM     25  C   UNL     1      19.148   7.193  21.875  0.00  0.00    +0.046 A 
ATOM     26  C   UNL     1      20.063   6.244  21.421  0.00  0.00    +0.121 A 
BRANCH  26   4
ATOM      4  O   UNL     1      21.284   6.138  22.014  0.00  0.00    -0.490 OA
BRANCH   4  30
ATOM     30  C   UNL     1      21.692   4.837  22.437  0.00  0.00    +0.257 C 
BRANCH  30  31
ATOM     31  C   UNL     1      23.205   4.753  22.388  0.00  0.00    +0.200 C 
BRANCH  31   6
ATOM      6  O   UNL     1      23.587   3.889  21.325  0.00  0.00    -0.380 OA
ATOM     33  C   UNL     1      24.149   4.617  20.241  0.00  0.00    +0.194 C 
ENDBRANCH  31   6
ENDBRANCH  30  31
ENDBRANCH   4  30
ENDBRANCH  26   4
ENDBRANCH  17  18
ENDBRANCH  10   8
BRANCH  11   1
ATOM      1  O   UNL     1      12.796   5.873  21.291  0.00  0.00    -0.390 OA
ATOM     35  H   UNL     1      13.265   5.701  22.126  0.00  0.00    +0.210 HD
ENDBRANCH  11   1
TORSDOF 9
ENDMDL
MODEL 4
REMARK VINA RESULT:      -6.1     29.220     31.536
REMARK  Name = 26742198
REMARK  11 active torsions:
REMARK  status: ('A' for Active; 'I' for Inactive)
REMARK    1  A    between atoms: O_1  and  C_11
REMARK    2  A    between atoms: O_4  and  C_26
REMARK    3  A    between atoms: O_4  and  C_30
REMARK    4  A    between atoms: O_5  and  C_27
REMARK    5  A    between atoms: O_5  and  C_32
REMARK    6  A    between atoms: O_6  and  C_31
REMARK    7  A    between atoms: O_6  and  C_33
REMARK    8  A    between atoms: N_8  and  C_10
REMARK    9  A    between atoms: N_9  and  C_19
REMARK   10  A    between atoms: C_17  and  C_18
REMARK   11  A    between atoms: C_30  and  C_31
REMARK                            x       y       z     vdW  Elec       q    Type
REMARK                         _______ _______ _______ _____ _____    ______ ____
ROOT
ATOM      2  O   UNL     1      -5.791 -11.707  13.748  0.00  0.00    -0.252 OA
ATOM      7  N   UNL     1      -5.802 -10.533  15.740  0.00  0.00    -0.284 N 
ATOM      9  N   UNL     1      -6.679  -9.560  13.773  0.00  0.00    -0.269 N 
ATOM     10  C   UNL     1      -7.592  -9.468  17.156  0.00  0.00    +0.119 C 
ATOM     11  C   UNL     1      -8.085 -10.863  17.582  0.00  0.00    +0.136 C 
ATOM     12  C   UNL     1      -7.032 -11.776  18.216  0.00  0.00    +0.035 C 
ATOM     13  C   UNL     1      -6.171  -9.389  16.585  0.00  0.00    +0.134 C 
ATOM     14  C   UNL     1      -6.178 -12.522  17.188  0.00  0.00    +0.022 C 
ATOM     15  C   UNL     1      -5.171 -11.647  16.451  0.00  0.00    +0.109 C 
ATOM     16  C   UNL     1      -6.075 -10.672  14.358  0.00  0.00    +0.307 C 
ATOM     36  H   UNL     1      -6.896  -8.764  14.362  0.00  0.00    +0.156 HD
ENDROOT
BRANCH   9  19
ATOM     19  C   UNL     1      -7.072  -9.392  12.421  0.00  0.00    +0.038 A 
ATOM     22  C   UNL     1      -6.146  -8.951  11.475  0.00  0.00    +0.069 A 
ATOM     23  C   UNL     1      -8.385  -9.666  12.037  0.00  0.00    +0.023 A 
ATOM     27  C   UNL     1      -6.532  -8.785  10.146  0.00  0.00    +0.122 A 
ATOM     28  C   UNL     1      -8.770  -9.499  10.706  0.00  0.00    +0.005 A 
ATOM     29  C   UNL     1      -7.844  -9.059   9.762  0.00  0.00    +0.046 A 
BRANCH  27   5
ATOM      5  O   UNL     1      -5.628  -8.356   9.222  0.00  0.00    -0.495 OA
ATOM     32  C   UNL     1      -4.358  -9.006   9.205  0.00  0.00    +0.277 C 
ENDBRANCH  27   5
ENDBRANCH   9  19
BRANCH  10   8
ATOM      3  O   UNL     1      -9.798  -7.752  17.813  0.00  0.00    -0.270 OA
ATOM      8  N   UNL     1      -8.548  -8.892  16.229  0.00  0.00    -0.305 N 
ATOM     17  C   UNL     1      -9.579  -8.074  16.648  0.00  0.00    +0.244 C 
ATOM     34  H   UNL     1      -8.366  -9.020  15.239  0.00  0.00    +0.149 HD
BRANCH  17  18
ATOM     18  C   UNL     1     -10.488  -7.587  15.577  0.00  0.00    +0.037 A 
ATOM     20  C   UNL     1     -10.905  -8.455  14.569  0.00  0.00    +0.016 A 
ATOM     21  C   UNL     1     -10.921  -6.261  15.581  0.00  0.00    +0.016 A 
ATOM     24  C   UNL     1     -11.756  -7.998  13.562  0.00  0.00    +0.046 A 
ATOM     25  C   UNL     1     -11.772  -5.804  14.575  0.00  0.00    +0.046 A 
ATOM     26  C   UNL     1     -12.189  -6.672  13.566  0.00  0.00    +0.121 A 
BRANCH  26   4
ATOM      4  O   UNL     1     -13.020  -6.225  12.585  0.00  0.00    -0.490 OA
BRANCH   4  30
ATOM     30  C   UNL     1     -12.825  -4.887  12.127  0.00  0.00    +0.257 C 
BRANCH  30  31
ATOM     31  C   UNL     1     -12.015  -4.916  10.846  0.00  0.00    +0.200 C 
BRANCH  31   6
ATOM      6  O   UNL     1     -11.584  -3.595  10.540  0.00  0.00    -0.380 OA
ATOM     33  C   UNL     1     -11.320  -3.443   9.152  0.00  0.00    +0.194 C 
ENDBRANCH  31   6
ENDBRANCH  30  31
ENDBRANCH   4  30
ENDBRANCH  26   4
ENDBRANCH  17  18
ENDBRANCH  10   8
BRANCH  11   1
ATOM      1  O   UNL     1      -9.124 -10.681  18.554  0.00  0.00    -0.390 OA
ATOM     35  H   UNL     1      -9.953 -10.517  18.071  0.00  0.00    +0.210 HD
ENDBRANCH  11   1
TORSDOF 9
ENDMDL
MODEL 5
REMARK VINA RESULT:      -6.0     16.351     19.043
REMARK  Name = 26742198
REMARK  11 active torsions:
REMARK  status: ('A' for Active; 'I' for Inactive)
REMARK    1  A    between atoms: O_1  and  C_11
REMARK    2  A    between atoms: O_4  and  C_26
REMARK    3  A    between atoms: O_4  and  C_30
REMARK    4  A    between atoms: O_5  and  C_27
REMARK    5  A    between atoms: O_5  and  C_32
REMARK    6  A    between atoms: O_6  and  C_31
REMARK    7  A    between atoms: O_6  and  C_33
REMARK    8  A    between atoms: N_8  and  C_10
REMARK    9  A    between atoms: N_9  and  C_19
REMARK   10  A    between atoms: C_17  and  C_18
REMARK   11  A    between atoms: C_30  and  C_31
REMARK                            x       y       z     vdW  Elec       q    Type
REMARK                         _______ _______ _______ _____ _____    ______ ____
ROOT
ATOM      2  O   UNL     1      15.853   6.690   1.068  0.00  0.00    -0.252 OA
ATOM      7  N   UNL     1      14.891   4.603   0.817  0.00  0.00    -0.284 N 
ATOM      9  N   UNL     1      14.415   5.918   2.722  0.00  0.00    -0.269 N 
ATOM     10  C   UNL     1      12.525   3.744   0.724  0.00  0.00    +0.119 C 
ATOM     11  C   UNL     1      12.355   4.366  -0.674  0.00  0.00    +0.136 C 
ATOM     12  C   UNL     1      13.381   3.933  -1.724  0.00  0.00    +0.035 C 
ATOM     13  C   UNL     1      13.965   3.531   1.208  0.00  0.00    +0.134 C 
ATOM     14  C   UNL     1      14.687   4.729  -1.660  0.00  0.00    +0.022 C 
ATOM     15  C   UNL     1      15.570   4.396  -0.464  0.00  0.00    +0.109 C 
ATOM     16  C   UNL     1      15.108   5.815   1.516  0.00  0.00    +0.307 C 
ATOM     36  H   UNL     1      13.805   5.156   2.994  0.00  0.00    +0.156 HD
ENDROOT
BRANCH   9  19
ATOM     19  C   UNL     1      14.423   6.997   3.641  0.00  0.00    +0.038 A 
ATOM     22  C   UNL     1      15.546   7.227   4.436  0.00  0.00    +0.069 A 
ATOM     23  C   UNL     1      13.308   7.829   3.752  0.00  0.00    +0.023 A 
ATOM     27  C   UNL     1      15.555   8.288   5.342  0.00  0.00    +0.122 A 
ATOM     28  C   UNL     1      13.317   8.890   4.658  0.00  0.00    +0.005 A 
ATOM     29  C   UNL     1      14.440   9.119   5.452  0.00  0.00    +0.046 A 
BRANCH  27   5
ATOM      5  O   UNL     1      16.651   8.513   6.117  0.00  0.00    -0.495 OA
ATOM     32  C   UNL     1      17.383   9.713   5.873  0.00  0.00    +0.277 C 
ENDBRANCH  27   5
ENDBRANCH   9  19
BRANCH  10   8
ATOM      3  O   UNL     1      11.281   2.783   3.127  0.00  0.00    -0.270 OA
ATOM      8  N   UNL     1      11.775   4.530   1.685  0.00  0.00    -0.305 N 
ATOM     17  C   UNL     1      11.213   3.970   2.816  0.00  0.00    +0.244 C 
ATOM     34  H   UNL     1      11.771   5.537   1.557  0.00  0.00    +0.149 HD
BRANCH  17  18
ATOM     18  C   UNL     1      10.453   4.906   3.686  0.00  0.00    +0.037 A 
ATOM     20  C   UNL     1      10.140   4.541   4.996  0.00  0.00    +0.016 A 
ATOM     21  C   UNL     1      10.052   6.146   3.193  0.00  0.00    +0.016 A 
ATOM     24  C   UNL     1       9.425   5.417   5.812  0.00  0.00    +0.046 A 
ATOM     25  C   UNL     1       9.337   7.023   4.009  0.00  0.00    +0.046 A 
ATOM     26  C   UNL     1       9.024   6.658   5.318  0.00  0.00    +0.121 A 
BRANCH  26   4
ATOM      4  O   UNL     1       8.328   7.515   6.115  0.00  0.00    -0.490 OA
BRANCH   4  30
ATOM     30  C   UNL     1       8.701   7.571   7.492  0.00  0.00    +0.257 C 
BRANCH  30  31
ATOM     31  C   UNL     1       9.583   8.783   7.716  0.00  0.00    +0.200 C 
BRANCH  31   6
ATOM      6  O   UNL     1       9.143   9.840   6.872  0.00  0.00    -0.380 OA
ATOM     33  C   UNL     1      10.239  10.525   6.283  0.00  0.00    +0.194 C 
ENDBRANCH  31   6
ENDBRANCH  30  31
ENDBRANCH   4  30
ENDBRANCH  26   4
ENDBRANCH  17  18
ENDBRANCH  10   8
BRANCH  11   1
ATOM      1  O   UNL     1      11.062   3.985  -1.167  0.00  0.00    -0.390 OA
ATOM     35  H   UNL     1      10.415   4.625  -0.821  0.00  0.00    +0.210 HD
ENDBRANCH  11   1
TORSDOF 9
ENDMDL
MODEL 6
REMARK VINA RESULT:      -5.9     27.239     30.476
REMARK  Name = 26742198
REMARK  11 active torsions:
REMARK  status: ('A' for Active; 'I' for Inactive)
REMARK    1  A    between atoms: O_1  and  C_11
REMARK    2  A    between atoms: O_4  and  C_26
REMARK    3  A    between atoms: O_4  and  C_30
REMARK    4  A    between atoms: O_5  and  C_27
REMARK    5  A    between atoms: O_5  and  C_32
REMARK    6  A    between atoms: O_6  and  C_31
REMARK    7  A    between atoms: O_6  and  C_33
REMARK    8  A    between atoms: N_8  and  C_10
REMARK    9  A    between atoms: N_9  and  C_19
REMARK   10  A    between atoms: C_17  and  C_18
REMARK   11  A    between atoms: C_30  and  C_31
REMARK                            x       y       z     vdW  Elec       q    Type
REMARK                         _______ _______ _______ _____ _____    ______ ____
ROOT
ATOM      2  O   UNL     1     -10.414  -8.645  14.426  0.00  0.00    -0.252 OA
ATOM      7  N   UNL     1     -10.586 -10.417  15.902  0.00  0.00    -0.284 N 
ATOM      9  N   UNL     1      -8.880 -10.382  14.266  0.00  0.00    -0.269 N 
ATOM     10  C   UNL     1      -9.044 -11.463  17.597  0.00  0.00    +0.119 C 
ATOM     11  C   UNL     1      -9.224 -10.239  18.514  0.00  0.00    +0.136 C 
ATOM     12  C   UNL     1     -10.668  -9.892  18.885  0.00  0.00    +0.035 C 
ATOM     13  C   UNL     1     -10.108 -11.665  16.510  0.00  0.00    +0.134 C 
ATOM     14  C   UNL     1     -11.382  -9.052  17.824  0.00  0.00    +0.022 C 
ATOM     15  C   UNL     1     -11.749  -9.815  16.557  0.00  0.00    +0.109 C 
ATOM     16  C   UNL     1      -9.981  -9.731  14.821  0.00  0.00    +0.307 C 
ATOM     36  H   UNL     1      -8.583 -11.260  14.676  0.00  0.00    +0.156 HD
ENDROOT
BRANCH   9  19
ATOM     19  C   UNL     1      -8.069  -9.956  13.184  0.00  0.00    +0.038 A 
ATOM     22  C   UNL     1      -8.637  -9.749  11.927  0.00  0.00    +0.069 A 
ATOM     23  C   UNL     1      -6.704  -9.744  13.376  0.00  0.00    +0.023 A 
ATOM     27  C   UNL     1      -7.840  -9.330  10.862  0.00  0.00    +0.122 A 
ATOM     28  C   UNL     1      -5.907  -9.325  12.310  0.00  0.00    +0.005 A 
ATOM     29  C   UNL     1      -6.475  -9.118  11.054  0.00  0.00    +0.046 A 
BRANCH  27   5
ATOM      5  O   UNL     1      -8.394  -9.127   9.635  0.00  0.00    -0.495 OA
ATOM     32  C   UNL     1      -7.908  -8.020   8.878  0.00  0.00    +0.277 C 
ENDBRANCH  27   5
ENDBRANCH   9  19
BRANCH  10   8
ATOM      3  O   UNL     1      -6.656 -12.625  18.686  0.00  0.00    -0.270 OA
ATOM      8  N   UNL     1      -7.718 -11.423  17.012  0.00  0.00    -0.305 N 
ATOM     17  C   UNL     1      -6.628 -12.017  17.618  0.00  0.00    +0.244 C 
ATOM     34  H   UNL     1      -7.637 -11.039  16.077  0.00  0.00    +0.149 HD
BRANCH  17  18
ATOM     18  C   UNL     1      -5.333 -11.864  16.904  0.00  0.00    +0.037 A 
ATOM     20  C   UNL     1      -4.982 -12.765  15.899  0.00  0.00    +0.016 A 
ATOM     21  C   UNL     1      -4.470 -10.822  17.240  0.00  0.00    +0.016 A 
ATOM     24  C   UNL     1      -3.766 -12.624  15.229  0.00  0.00    +0.046 A 
ATOM     25  C   UNL     1      -3.254 -10.681  16.571  0.00  0.00    +0.046 A 
ATOM     26  C   UNL     1      -2.903 -11.582  15.566  0.00  0.00    +0.121 A 
BRANCH  26   4
ATOM      4  O   UNL     1      -1.717 -11.442  14.912  0.00  0.00    -0.490 OA
BRANCH   4  30
ATOM     30  C   UNL     1      -1.503 -10.221  14.206  0.00  0.00    +0.257 C 
BRANCH  30  31
ATOM     31  C   UNL     1      -2.207 -10.294  12.865  0.00  0.00    +0.200 C 
BRANCH  31   6
ATOM      6  O   UNL     1      -1.836 -11.502  12.212  0.00  0.00    -0.380 OA
ATOM     33  C   UNL     1      -2.952 -12.120  11.587  0.00  0.00    +0.194 C 
ENDBRANCH  31   6
ENDBRANCH  30  31
ENDBRANCH   4  30
ENDBRANCH  26   4
ENDBRANCH  17  18
ENDBRANCH  10   8
BRANCH  11   1
ATOM      1  O   UNL     1      -8.527 -10.506  19.739  0.00  0.00    -0.390 OA
ATOM     35  H   UNL     1      -8.178  -9.660  20.070  0.00  0.00    +0.210 HD
ENDBRANCH  11   1
TORSDOF 9
ENDMDL
MODEL 7
REMARK VINA RESULT:      -5.9     26.646     29.634
REMARK  Name = 26742198
REMARK  11 active torsions:
REMARK  status: ('A' for Active; 'I' for Inactive)
REMARK    1  A    between atoms: O_1  and  C_11
REMARK    2  A    between atoms: O_4  and  C_26
REMARK    3  A    between atoms: O_4  and  C_30
REMARK    4  A    between atoms: O_5  and  C_27
REMARK    5  A    between atoms: O_5  and  C_32
REMARK    6  A    between atoms: O_6  and  C_31
REMARK    7  A    between atoms: O_6  and  C_33
REMARK    8  A    between atoms: N_8  and  C_10
REMARK    9  A    between atoms: N_9  and  C_19
REMARK   10  A    between atoms: C_17  and  C_18
REMARK   11  A    between atoms: C_30  and  C_31
REMARK                            x       y       z     vdW  Elec       q    Type
REMARK                         _______ _______ _______ _____ _____    ______ ____
ROOT
ATOM      2  O   UNL     1     -12.078  12.558  19.366  0.00  0.00    -0.252 OA
ATOM      7  N   UNL     1     -10.632  10.940  18.569  0.00  0.00    -0.284 N 
ATOM      9  N   UNL     1     -11.998  10.503  20.447  0.00  0.00    -0.269 N 
ATOM     10  C   UNL     1     -10.906   8.582  17.726  0.00  0.00    +0.119 C 
ATOM     11  C   UNL     1     -11.557   9.119  16.438  0.00  0.00    +0.136 C 
ATOM     12  C   UNL     1     -10.729  10.137  15.648  0.00  0.00    +0.035 C 
ATOM     13  C   UNL     1     -10.073   9.582  18.540  0.00  0.00    +0.134 C 
ATOM     14  C   UNL     1     -10.867  11.568  16.173  0.00  0.00    +0.022 C 
ATOM     15  C   UNL     1     -10.163  11.824  17.500  0.00  0.00    +0.109 C 
ATOM     16  C   UNL     1     -11.615  11.419  19.468  0.00  0.00    +0.307 C 
ATOM     36  H   UNL     1     -11.579   9.580  20.434  0.00  0.00    +0.156 HD
ENDROOT
BRANCH   9  19
ATOM     19  C   UNL     1     -12.951  10.681  21.482  0.00  0.00    +0.038 A 
ATOM     22  C   UNL     1     -12.542  10.676  22.815  0.00  0.00    +0.069 A 
ATOM     23  C   UNL     1     -14.298  10.860  21.166  0.00  0.00    +0.023 A 
ATOM     27  C   UNL     1     -13.478  10.850  23.834  0.00  0.00    +0.122 A 
ATOM     28  C   UNL     1     -15.235  11.034  22.185  0.00  0.00    +0.005 A 
ATOM     29  C   UNL     1     -14.825  11.029  23.518  0.00  0.00    +0.046 A 
BRANCH  27   5
ATOM      5  O   UNL     1     -13.079  10.847  25.135  0.00  0.00    -0.495 OA
ATOM     32  C   UNL     1     -11.678  10.945  25.385  0.00  0.00    +0.277 C 
ENDBRANCH  27   5
ENDBRANCH   9  19
BRANCH  10   8
ATOM      3  O   UNL     1     -10.603   7.675  20.432  0.00  0.00    -0.270 OA
ATOM      8  N   UNL     1     -11.929   7.976  18.555  0.00  0.00    -0.305 N 
ATOM     17  C   UNL     1     -11.682   7.572  19.853  0.00  0.00    +0.244 C 
ATOM     34  H   UNL     1     -12.874   7.961  18.186  0.00  0.00    +0.149 HD
BRANCH  17  18
ATOM     18  C   UNL     1     -12.829   6.944  20.560  0.00  0.00    +0.037 A 
ATOM     20  C   UNL     1     -12.600   5.975  21.536  0.00  0.00    +0.016 A 
ATOM     21  C   UNL     1     -14.133   7.324  20.245  0.00  0.00    +0.016 A 
ATOM     24  C   UNL     1     -13.676   5.384  22.198  0.00  0.00    +0.046 A 
ATOM     25  C   UNL     1     -15.210   6.733  20.908  0.00  0.00    +0.046 A 
ATOM     26  C   UNL     1     -14.981   5.764  21.884  0.00  0.00    +0.121 A 
BRANCH  26   4
ATOM      4  O   UNL     1     -16.031   5.188  22.530  0.00  0.00    -0.490 OA
BRANCH   4  30
ATOM     30  C   UNL     1     -15.727   4.323  23.624  0.00  0.00    +0.257 C 
BRANCH  30  31
ATOM     31  C   UNL     1     -16.538   3.050  23.488  0.00  0.00    +0.200 C 
BRANCH  31   6
ATOM      6  O   UNL     1     -16.181   2.158  24.538  0.00  0.00    -0.380 OA
ATOM     33  C   UNL     1     -16.409   2.740  25.814  0.00  0.00    +0.194 C 
ENDBRANCH  31   6
ENDBRANCH  30  31
ENDBRANCH   4  30
ENDBRANCH  26   4
ENDBRANCH  17  18
ENDBRANCH  10   8
BRANCH  11   1
ATOM      1  O   UNL     1     -11.791   8.002  15.569  0.00  0.00    -0.390 OA
ATOM     35  H   UNL     1     -10.930   7.721  15.212  0.00  0.00    +0.210 HD
ENDBRANCH  11   1
TORSDOF 9
ENDMDL
MODEL 8
REMARK VINA RESULT:      -5.8     26.808     30.655
REMARK  Name = 26742198
REMARK  11 active torsions:
REMARK  status: ('A' for Active; 'I' for Inactive)
REMARK    1  A    between atoms: O_1  and  C_11
REMARK    2  A    between atoms: O_4  and  C_26
REMARK    3  A    between atoms: O_4  and  C_30
REMARK    4  A    between atoms: O_5  and  C_27
REMARK    5  A    between atoms: O_5  and  C_32
REMARK    6  A    between atoms: O_6  and  C_31
REMARK    7  A    between atoms: O_6  and  C_33
REMARK    8  A    between atoms: N_8  and  C_10
REMARK    9  A    between atoms: N_9  and  C_19
REMARK   10  A    between atoms: C_17  and  C_18
REMARK   11  A    between atoms: C_30  and  C_31
REMARK                            x       y       z     vdW  Elec       q    Type
REMARK                         _______ _______ _______ _____ _____    ______ ____
ROOT
ATOM      2  O   UNL     1     -10.583  -9.170  11.861  0.00  0.00    -0.252 OA
ATOM      7  N   UNL     1     -11.558  -9.211  13.958  0.00  0.00    -0.284 N 
ATOM      9  N   UNL     1      -9.547 -10.385  13.549  0.00  0.00    -0.269 N 
ATOM     10  C   UNL     1     -10.802  -8.569  16.273  0.00  0.00    +0.119 C 
ATOM     11  C   UNL     1     -10.889  -7.081  15.888  0.00  0.00    +0.136 C 
ATOM     12  C   UNL     1     -12.244  -6.610  15.353  0.00  0.00    +0.035 C 
ATOM     13  C   UNL     1     -11.578  -9.552  15.386  0.00  0.00    +0.134 C 
ATOM     14  C   UNL     1     -12.436  -6.885  13.860  0.00  0.00    +0.022 C 
ATOM     15  C   UNL     1     -12.656  -8.352  13.512  0.00  0.00    +0.109 C 
ATOM     16  C   UNL     1     -10.550  -9.568  13.028  0.00  0.00    +0.307 C 
ATOM     36  H   UNL     1      -9.593 -10.639  14.529  0.00  0.00    +0.156 HD
ENDROOT
BRANCH   9  19
ATOM     19  C   UNL     1      -8.412 -10.906  12.878  0.00  0.00    +0.038 A 
ATOM     22  C   UNL     1      -7.337 -10.071  12.574  0.00  0.00    +0.069 A 
ATOM     23  C   UNL     1      -8.371 -12.254  12.521  0.00  0.00    +0.023 A 
ATOM     27  C   UNL     1      -6.221 -10.583  11.913  0.00  0.00    +0.122 A 
ATOM     28  C   UNL     1      -7.254 -12.766  11.859  0.00  0.00    +0.005 A 
ATOM     29  C   UNL     1      -6.180 -11.931  11.556  0.00  0.00    +0.046 A 
BRANCH  27   5
ATOM      5  O   UNL     1      -5.171  -9.769  11.617  0.00  0.00    -0.495 OA
ATOM     32  C   UNL     1      -5.471  -8.523  10.990  0.00  0.00    +0.277 C 
ENDBRANCH  27   5
ENDBRANCH   9  19
BRANCH  10   8
ATOM      3  O   UNL     1      -9.556 -10.028  18.409  0.00  0.00    -0.270 OA
ATOM      8  N   UNL     1      -9.406  -8.953  16.360  0.00  0.00    -0.305 N 
ATOM     17  C   UNL     1      -8.903  -9.658  17.436  0.00  0.00    +0.244 C 
ATOM     34  H   UNL     1      -8.828  -8.783  15.544  0.00  0.00    +0.149 HD
BRANCH  17  18
ATOM     18  C   UNL     1      -7.446  -9.952  17.387  0.00  0.00    +0.037 A 
ATOM     20  C   UNL     1      -6.806 -10.491  18.503  0.00  0.00    +0.016 A 
ATOM     21  C   UNL     1      -6.721  -9.685  16.227  0.00  0.00    +0.016 A 
ATOM     24  C   UNL     1      -5.439 -10.765  18.458  0.00  0.00    +0.046 A 
ATOM     25  C   UNL     1      -5.353  -9.958  16.182  0.00  0.00    +0.046 A 
ATOM     26  C   UNL     1      -4.713 -10.498  17.297  0.00  0.00    +0.121 A 
BRANCH  26   4
ATOM      4  O   UNL     1      -3.379 -10.766  17.253  0.00  0.00    -0.490 OA
BRANCH   4  30
ATOM     30  C   UNL     1      -2.821 -11.075  15.976  0.00  0.00    +0.257 C 
BRANCH  30  31
ATOM     31  C   UNL     1      -1.515 -10.321  15.811  0.00  0.00    +0.200 C 
BRANCH  31   6
ATOM      6  O   UNL     1      -1.374  -9.930  14.451  0.00  0.00    -0.380 OA
ATOM     33  C   UNL     1      -2.399 -10.487  13.640  0.00  0.00    +0.194 C 
ENDBRANCH  31   6
ENDBRANCH  30  31
ENDBRANCH   4  30
ENDBRANCH  26   4
ENDBRANCH  17  18
ENDBRANCH  10   8
BRANCH  11   1
ATOM      1  O   UNL     1     -10.609  -6.308  17.064  0.00  0.00    -0.390 OA
ATOM     35  H   UNL     1      -9.645  -6.305  17.191  0.00  0.00    +0.210 HD
ENDBRANCH  11   1
TORSDOF 9
ENDMDL
MODEL 9
REMARK VINA RESULT:      -5.8     27.675     31.132
REMARK  Name = 26742198
REMARK  11 active torsions:
REMARK  status: ('A' for Active; 'I' for Inactive)
REMARK    1  A    between atoms: O_1  and  C_11
REMARK    2  A    between atoms: O_4  and  C_26
REMARK    3  A    between atoms: O_4  and  C_30
REMARK    4  A    between atoms: O_5  and  C_27
REMARK    5  A    between atoms: O_5  and  C_32
REMARK    6  A    between atoms: O_6  and  C_31
REMARK    7  A    between atoms: O_6  and  C_33
REMARK    8  A    between atoms: N_8  and  C_10
REMARK    9  A    between atoms: N_9  and  C_19
REMARK   10  A    between atoms: C_17  and  C_18
REMARK   11  A    between atoms: C_30  and  C_31
REMARK                            x       y       z     vdW  Elec       q    Type
REMARK                         _______ _______ _______ _____ _____    ______ ____
ROOT
ATOM      2  O   UNL     1     -12.339  -9.760  15.340  0.00  0.00    -0.252 OA
ATOM      7  N   UNL     1     -12.053 -11.174  17.147  0.00  0.00    -0.284 N 
ATOM      9  N   UNL     1     -10.404 -11.041  15.459  0.00  0.00    -0.269 N 
ATOM     10  C   UNL     1     -10.303 -11.420  18.942  0.00  0.00    +0.119 C 
ATOM     11  C   UNL     1     -10.801 -10.121  19.604  0.00  0.00    +0.136 C 
ATOM     12  C   UNL     1     -12.289 -10.087  19.966  0.00  0.00    +0.035 C 
ATOM     13  C   UNL     1     -11.271 -12.107  17.970  0.00  0.00    +0.134 C 
ATOM     14  C   UNL     1     -13.189  -9.694  18.793  0.00  0.00    +0.022 C 
ATOM     15  C   UNL     1     -13.337 -10.769  17.723  0.00  0.00    +0.109 C 
ATOM     16  C   UNL     1     -11.640 -10.593  15.923  0.00  0.00    +0.307 C 
ATOM     36  H   UNL     1      -9.891 -11.710  16.022  0.00  0.00    +0.156 HD
ENDROOT
BRANCH   9  19
ATOM     19  C   UNL     1      -9.725 -10.653  14.276  0.00  0.00    +0.038 A 
ATOM     22  C   UNL     1      -8.392 -10.245  14.339  0.00  0.00    +0.069 A 
ATOM     23  C   UNL     1     -10.390 -10.679  13.050  0.00  0.00    +0.023 A 
ATOM     27  C   UNL     1      -7.724  -9.862  13.177  0.00  0.00    +0.122 A 
ATOM     28  C   UNL     1      -9.721 -10.295  11.887  0.00  0.00    +0.005 A 
ATOM     29  C   UNL     1      -8.389  -9.888  11.950  0.00  0.00    +0.046 A 
BRANCH  27   5
ATOM      5  O   UNL     1      -6.424  -9.465  13.237  0.00  0.00    -0.495 OA
ATOM     32  C   UNL     1      -5.798  -9.100  12.008  0.00  0.00    +0.277 C 
ENDBRANCH  27   5
ENDBRANCH   9  19
BRANCH  10   8
ATOM      3  O   UNL     1      -7.700 -11.749  20.105  0.00  0.00    -0.270 OA
ATOM      8  N   UNL     1      -9.029 -11.163  18.299  0.00  0.00    -0.305 N 
ATOM     17  C   UNL     1      -7.825 -11.354  18.949  0.00  0.00    +0.244 C 
ATOM     34  H   UNL     1      -9.047 -10.944  17.309  0.00  0.00    +0.149 HD
BRANCH  17  18
ATOM     18  C   UNL     1      -6.610 -11.021  18.160  0.00  0.00    +0.037 A 
ATOM     20  C   UNL     1      -5.438 -11.755  18.342  0.00  0.00    +0.016 A 
ATOM     21  C   UNL     1      -6.642  -9.973  17.241  0.00  0.00    +0.016 A 
ATOM     24  C   UNL     1      -4.297 -11.441  17.604  0.00  0.00    +0.046 A 
ATOM     25  C   UNL     1      -5.501  -9.659  16.503  0.00  0.00    +0.046 A 
ATOM     26  C   UNL     1      -4.329 -10.393  16.684  0.00  0.00    +0.121 A 
BRANCH  26   4
ATOM      4  O   UNL     1      -3.216 -10.086  15.963  0.00  0.00    -0.490 OA
BRANCH   4  30
ATOM     30  C   UNL     1      -2.141 -11.024  15.997  0.00  0.00    +0.257 C 
BRANCH  30  31
ATOM     31  C   UNL     1      -1.913 -11.567  14.599  0.00  0.00    +0.200 C 
BRANCH  31   6
ATOM      6  O   UNL     1      -1.773 -10.477  13.696  0.00  0.00    -0.380 OA
ATOM     33  C   UNL     1      -2.234 -10.818  12.395  0.00  0.00    +0.194 C 
ENDBRANCH  31   6
ENDBRANCH  30  31
ENDBRANCH   4  30
ENDBRANCH  26   4
ENDBRANCH  17  18
ENDBRANCH  10   8
BRANCH  11   1
ATOM      1  O   UNL     1     -10.067  -9.944  20.823  0.00  0.00    -0.390 OA
ATOM     35  H   UNL     1      -9.990  -8.987  20.984  0.00  0.00    +0.210 HD
ENDBRANCH  11   1
TORSDOF 9
ENDMDL
MODEL 10
REMARK VINA RESULT:      -5.8     16.374     19.068
REMARK  Name = 26742198
REMARK  11 active torsions:
REMARK  status: ('A' for Active; 'I' for Inactive)
REMARK    1  A    between atoms: O_1  and  C_11
REMARK    2  A    between atoms: O_4  and  C_26
REMARK    3  A    between atoms: O_4  and  C_30
REMARK    4  A    between atoms: O_5  and  C_27
REMARK    5  A    between atoms: O_5  and  C_32
REMARK    6  A    between atoms: O_6  and  C_31
REMARK    7  A    between atoms: O_6  and  C_33
REMARK    8  A    between atoms: N_8  and  C_10
REMARK    9  A    between atoms: N_9  and  C_19
REMARK   10  A    between atoms: C_17  and  C_18
REMARK   11  A    between atoms: C_30  and  C_31
REMARK                            x       y       z     vdW  Elec       q    Type
REMARK                         _______ _______ _______ _____ _____    ______ ____
ROOT
ATOM      2  O   UNL     1      15.483   7.195   1.326  0.00  0.00    -0.252 OA
ATOM      7  N   UNL     1      15.131   4.929   1.029  0.00  0.00    -0.284 N 
ATOM      9  N   UNL     1      14.363   6.014   2.984  0.00  0.00    -0.269 N 
ATOM     10  C   UNL     1      13.094   3.449   0.959  0.00  0.00    +0.119 C 
ATOM     11  C   UNL     1      12.718   4.033  -0.415  0.00  0.00    +0.136 C 
ATOM     12  C   UNL     1      13.794   3.929  -1.500  0.00  0.00    +0.035 C 
ATOM     13  C   UNL     1      14.550   3.634   1.405  0.00  0.00    +0.134 C 
ATOM     14  C   UNL     1      14.829   5.054  -1.438  0.00  0.00    +0.022 C 
ATOM     15  C   UNL     1      15.804   4.951  -0.271  0.00  0.00    +0.109 C 
ATOM     16  C   UNL     1      15.023   6.137   1.761  0.00  0.00    +0.307 C 
ATOM     36  H   UNL     1      13.998   5.105   3.245  0.00  0.00    +0.156 HD
ENDROOT
BRANCH   9  19
ATOM     19  C   UNL     1      14.098   7.030   3.937  0.00  0.00    +0.038 A 
ATOM     22  C   UNL     1      12.861   7.675   3.942  0.00  0.00    +0.069 A 
ATOM     23  C   UNL     1      15.075   7.385   4.868  0.00  0.00    +0.023 A 
ATOM     27  C   UNL     1      12.600   8.675   4.879  0.00  0.00    +0.122 A 
ATOM     28  C   UNL     1      14.813   8.386   5.804  0.00  0.00    +0.005 A 
ATOM     29  C   UNL     1      13.577   9.030   5.810  0.00  0.00    +0.046 A 
BRANCH  27   5
ATOM      5  O   UNL     1      11.393   9.304   4.886  0.00  0.00    -0.495 OA
ATOM     32  C   UNL     1      11.202  10.331   5.858  0.00  0.00    +0.277 C 
ENDBRANCH  27   5
ENDBRANCH   9  19
BRANCH  10   8
ATOM      3  O   UNL     1      11.342   5.705   0.669  0.00  0.00    -0.270 OA
ATOM      8  N   UNL     1      12.183   3.972   1.959  0.00  0.00    -0.305 N 
ATOM     17  C   UNL     1      11.378   5.069   1.719  0.00  0.00    +0.244 C 
ATOM     34  H   UNL     1      12.073   3.433   2.811  0.00  0.00    +0.149 HD
BRANCH  17  18
ATOM     18  C   UNL     1      10.520   5.496   2.856  0.00  0.00    +0.037 A 
ATOM     20  C   UNL     1       9.774   6.671   2.762  0.00  0.00    +0.016 A 
ATOM     21  C   UNL     1      10.464   4.724   4.015  0.00  0.00    +0.016 A 
ATOM     24  C   UNL     1       8.970   7.074   3.829  0.00  0.00    +0.046 A 
ATOM     25  C   UNL     1       9.661   5.127   5.082  0.00  0.00    +0.046 A 
ATOM     26  C   UNL     1       8.914   6.301   4.989  0.00  0.00    +0.121 A 
BRANCH  26   4
ATOM      4  O   UNL     1       8.130   6.693   6.030  0.00  0.00    -0.490 OA
BRANCH   4  30
ATOM     30  C   UNL     1       8.545   7.849   6.758  0.00  0.00    +0.257 C 
BRANCH  30  31
ATOM     31  C   UNL     1       9.519   7.428   7.840  0.00  0.00    +0.200 C 
BRANCH  31   6
ATOM      6  O   UNL     1       8.880   6.495   8.703  0.00  0.00    -0.380 OA
ATOM     33  C   UNL     1       9.618   5.284   8.797  0.00  0.00    +0.194 C 
ENDBRANCH  31   6
ENDBRANCH  30  31
ENDBRANCH   4  30
ENDBRANCH  26   4
ENDBRANCH  17  18
ENDBRANCH  10   8
BRANCH  11   1
ATOM      1  O   UNL     1      11.568   3.320  -0.893  0.00  0.00    -0.390 OA
ATOM     35  H   UNL     1      11.128   2.922  -0.122  0.00  0.00    +0.210 HD
ENDBRANCH  11   1
TORSDOF 9
ENDMDL
