MODEL 1
REMARK VINA RESULT:      -5.8      0.000      0.000
REMARK  Name = 56774050
REMARK  11 active torsions:
REMARK  status: ('A' for Active; 'I' for Inactive)
REMARK    1  A    between atoms: S_1  and  N_5
REMARK    2  A    between atoms: S_1  and  C_16
REMARK    3  A    between atoms: N_5  and  C_9
REMARK    4  A    between atoms: C_7  and  C_12
REMARK    5  A    between atoms: C_7  and  C_13
REMARK    6  A    between atoms: C_8  and  C_11
REMARK    7  A    between atoms: C_11  and  C_14
REMARK    8  A    between atoms: C_17  and  C_18
REMARK    9  A    between atoms: C_18  and  C_19
REMARK   10  A    between atoms: C_18  and  C_20
REMARK   11  A    between atoms: C_18  and  C_21
REMARK                            x       y       z     vdW  Elec       q    Type
REMARK                         _______ _______ _______ _____ _____    ______ ____
ROOT
ATOM      7  C   UNL     1      -3.571 -11.225  14.852  0.00  0.00    -0.015 C 
ATOM      8  C   UNL     1      -2.491 -10.412  14.109  0.00  0.00    +0.004 C 
ATOM      9  C   UNL     1      -2.986 -10.659  16.163  0.00  0.00    +0.082 C 
ATOM     10  C   UNL     1      -1.655 -10.484  15.404  0.00  0.00    +0.025 C 
ATOM     12  C   UNL     1      -4.983 -10.795  14.523  0.00  0.00    +0.013 C 
ATOM     13  C   UNL     1      -3.448 -12.735  14.751  0.00  0.00    +0.013 C 
ENDROOT
BRANCH   9   5
ATOM      5  N   UNL     1      -2.940 -11.574  17.357  0.00  0.00    -0.191 NA
ATOM     22  H   UNL     1      -2.490 -12.476  17.145  0.00  0.00    +0.148 HD
BRANCH   5   1
ATOM      1  S   UNL     1      -4.149 -11.664  18.563  0.00  0.00    +0.027 S 
ATOM      3  O   UNL     1      -5.024 -10.513  18.460  0.00  0.00    -0.158 OA
ATOM      4  O   UNL     1      -3.521 -12.017  19.820  0.00  0.00    -0.158 OA
ATOM     16  C   UNL     1      -5.047 -13.087  17.992  0.00  0.00    +0.214 C 
ENDBRANCH   5   1
ENDBRANCH   9   5
BRANCH   8  11
ATOM     11  C   UNL     1      -1.838 -11.062  12.883  0.00  0.00    +0.063 C 
BRANCH  11  14
ATOM      2  O   UNL     1      -3.204  -9.643   9.903  0.00  0.00    -0.359 OA
ATOM      6  N   UNL     1      -2.339  -9.620  10.991  0.00  0.00    -0.083 NA
ATOM     14  C   UNL     1      -2.589 -10.752  11.655  0.00  0.00    +0.084 A 
ATOM     15  C   UNL     1      -3.591 -11.522  11.039  0.00  0.00    +0.071 A 
ATOM     17  C   UNL     1      -3.943 -10.781   9.943  0.00  0.00    +0.143 A 
BRANCH  17  18
ATOM     18  C   UNL     1      -4.962 -10.977   8.807  0.00  0.00    +0.023 C 
ATOM     19  C   UNL     1      -4.469 -12.084   7.851  0.00  0.00    +0.019 C 
ATOM     20  C   UNL     1      -5.120  -9.659   8.019  0.00  0.00    +0.019 C 
ATOM     21  C   UNL     1      -6.370 -11.389   9.295  0.00  0.00    +0.019 C 
ENDBRANCH  17  18
ENDBRANCH  11  14
ENDBRANCH   8  11
TORSDOF 5
ENDMDL
MODEL 2
REMARK VINA RESULT:      -5.7     22.637     24.368
REMARK  Name = 56774050
REMARK  11 active torsions:
REMARK  status: ('A' for Active; 'I' for Inactive)
REMARK    1  A    between atoms: S_1  and  N_5
REMARK    2  A    between atoms: S_1  and  C_16
REMARK    3  A    between atoms: N_5  and  C_9
REMARK    4  A    between atoms: C_7  and  C_12
REMARK    5  A    between atoms: C_7  and  C_13
REMARK    6  A    between atoms: C_8  and  C_11
REMARK    7  A    between atoms: C_11  and  C_14
REMARK    8  A    between atoms: C_17  and  C_18
REMARK    9  A    between atoms: C_18  and  C_19
REMARK   10  A    between atoms: C_18  and  C_20
REMARK   11  A    between atoms: C_18  and  C_21
REMARK                            x       y       z     vdW  Elec       q    Type
REMARK                         _______ _______ _______ _____ _____    ______ ____
ROOT
ATOM      7  C   UNL     1       9.984   6.782   4.672  0.00  0.00    -0.015 C 
ATOM      8  C   UNL     1      10.626   6.213   3.390  0.00  0.00    +0.004 C 
ATOM      9  C   UNL     1      10.587   5.573   5.418  0.00  0.00    +0.082 C 
ATOM     10  C   UNL     1      10.569   4.828   4.067  0.00  0.00    +0.025 C 
ATOM     12  C   UNL     1      10.527   8.137   5.069  0.00  0.00    +0.013 C 
ATOM     13  C   UNL     1       8.467   6.799   4.701  0.00  0.00    +0.013 C 
ENDROOT
BRANCH   9   5
ATOM      5  N   UNL     1       9.767   4.952   6.515  0.00  0.00    -0.191 NA
ATOM     22  H   UNL     1       8.787   4.799   6.237  0.00  0.00    +0.148 HD
BRANCH   5   1
ATOM      1  S   UNL     1       9.978   5.262   8.184  0.00  0.00    +0.027 S 
ATOM      3  O   UNL     1      11.357   5.626   8.440  0.00  0.00    -0.158 OA
ATOM      4  O   UNL     1       9.331   4.204   8.935  0.00  0.00    -0.158 OA
ATOM     16  C   UNL     1       8.985   6.726   8.352  0.00  0.00    +0.214 C 
ENDBRANCH   5   1
ENDBRANCH   9   5
BRANCH   8  11
ATOM     11  C   UNL     1       9.821   6.328   2.089  0.00  0.00    +0.063 C 
BRANCH  11  14
ATOM      2  O   UNL     1      10.477   3.939  -0.484  0.00  0.00    -0.359 OA
ATOM      6  N   UNL     1       9.642   4.543   0.449  0.00  0.00    -0.083 NA
ATOM     14  C   UNL     1      10.395   5.479   1.032  0.00  0.00    +0.084 A 
ATOM     15  C   UNL     1      11.701   5.513   0.514  0.00  0.00    +0.071 A 
ATOM     17  C   UNL     1      11.700   4.527  -0.436  0.00  0.00    +0.143 A 
BRANCH  17  18
ATOM     18  C   UNL     1      12.761   3.982  -1.407  0.00  0.00    +0.023 C 
ATOM     19  C   UNL     1      12.315   2.607  -1.947  0.00  0.00    +0.019 C 
ATOM     20  C   UNL     1      14.108   3.825  -0.669  0.00  0.00    +0.019 C 
ATOM     21  C   UNL     1      13.015   4.892  -2.631  0.00  0.00    +0.019 C 
ENDBRANCH  17  18
ENDBRANCH  11  14
ENDBRANCH   8  11
TORSDOF 5
ENDMDL
MODEL 3
REMARK VINA RESULT:      -5.5      3.190      4.563
REMARK  Name = 56774050
REMARK  11 active torsions:
REMARK  status: ('A' for Active; 'I' for Inactive)
REMARK    1  A    between atoms: S_1  and  N_5
REMARK    2  A    between atoms: S_1  and  C_16
REMARK    3  A    between atoms: N_5  and  C_9
REMARK    4  A    between atoms: C_7  and  C_12
REMARK    5  A    between atoms: C_7  and  C_13
REMARK    6  A    between atoms: C_8  and  C_11
REMARK    7  A    between atoms: C_11  and  C_14
REMARK    8  A    between atoms: C_17  and  C_18
REMARK    9  A    between atoms: C_18  and  C_19
REMARK   10  A    between atoms: C_18  and  C_20
REMARK   11  A    between atoms: C_18  and  C_21
REMARK                            x       y       z     vdW  Elec       q    Type
REMARK                         _______ _______ _______ _____ _____    ______ ____
ROOT
ATOM      7  C   UNL     1      -6.395 -10.835  17.144  0.00  0.00    -0.015 C 
ATOM      8  C   UNL     1      -4.922 -10.527  17.482  0.00  0.00    +0.004 C 
ATOM      9  C   UNL     1      -6.746 -10.333  18.560  0.00  0.00    +0.082 C 
ATOM     10  C   UNL     1      -5.305 -10.707  18.966  0.00  0.00    +0.025 C 
ATOM     12  C   UNL     1      -6.937 -10.008  15.999  0.00  0.00    +0.013 C 
ATOM     13  C   UNL     1      -6.733 -12.300  16.933  0.00  0.00    +0.013 C 
ENDROOT
BRANCH   9   5
ATOM      5  N   UNL     1      -7.838 -11.052  19.303  0.00  0.00    -0.191 NA
ATOM     22  H   UNL     1      -7.626 -12.049  19.449  0.00  0.00    +0.148 HD
BRANCH   5   1
ATOM      1  S   UNL     1      -9.507 -10.708  19.152  0.00  0.00    +0.027 S 
ATOM      3  O   UNL     1      -9.704  -9.695  18.135  0.00  0.00    -0.158 OA
ATOM      4  O   UNL     1     -10.068 -10.556  20.480  0.00  0.00    -0.158 OA
ATOM     16  C   UNL     1     -10.082 -12.258  18.499  0.00  0.00    +0.214 C 
ENDBRANCH   5   1
ENDBRANCH   9   5
BRANCH   8  11
ATOM     11  C   UNL     1      -3.861 -11.508  16.966  0.00  0.00    +0.063 C 
BRANCH  11  14
ATOM      2  O   UNL     1      -2.004 -10.223  14.198  0.00  0.00    -0.359 OA
ATOM      6  N   UNL     1      -2.179 -10.462  15.557  0.00  0.00    -0.083 NA
ATOM     14  C   UNL     1      -3.352 -11.095  15.648  0.00  0.00    +0.084 A 
ATOM     15  C   UNL     1      -3.956 -11.282  14.393  0.00  0.00    +0.071 A 
ATOM     17  C   UNL     1      -3.068 -10.718  13.516  0.00  0.00    +0.143 A 
BRANCH  17  18
ATOM     18  C   UNL     1      -3.046 -10.542  11.988  0.00  0.00    +0.023 C 
ATOM     19  C   UNL     1      -4.304  -9.771  11.535  0.00  0.00    +0.019 C 
ATOM     20  C   UNL     1      -3.027 -11.928  11.307  0.00  0.00    +0.019 C 
ATOM     21  C   UNL     1      -1.819  -9.760  11.467  0.00  0.00    +0.019 C 
ENDBRANCH  17  18
ENDBRANCH  11  14
ENDBRANCH   8  11
TORSDOF 5
ENDMDL
MODEL 4
REMARK VINA RESULT:      -5.4      3.654      5.124
REMARK  Name = 56774050
REMARK  11 active torsions:
REMARK  status: ('A' for Active; 'I' for Inactive)
REMARK    1  A    between atoms: S_1  and  N_5
REMARK    2  A    between atoms: S_1  and  C_16
REMARK    3  A    between atoms: N_5  and  C_9
REMARK    4  A    between atoms: C_7  and  C_12
REMARK    5  A    between atoms: C_7  and  C_13
REMARK    6  A    between atoms: C_8  and  C_11
REMARK    7  A    between atoms: C_11  and  C_14
REMARK    8  A    between atoms: C_17  and  C_18
REMARK    9  A    between atoms: C_18  and  C_19
REMARK   10  A    between atoms: C_18  and  C_20
REMARK   11  A    between atoms: C_18  and  C_21
REMARK                            x       y       z     vdW  Elec       q    Type
REMARK                         _______ _______ _______ _____ _____    ______ ____
ROOT
ATOM      7  C   UNL     1      -6.711 -11.467  18.065  0.00  0.00    -0.015 C 
ATOM      8  C   UNL     1      -5.921 -10.910  16.863  0.00  0.00    +0.004 C 
ATOM      9  C   UNL     1      -7.893 -10.595  17.595  0.00  0.00    +0.082 C 
ATOM     10  C   UNL     1      -6.849  -9.679  16.921  0.00  0.00    +0.025 C 
ATOM     12  C   UNL     1      -6.931 -12.963  18.000  0.00  0.00    +0.013 C 
ATOM     13  C   UNL     1      -6.192 -11.075  19.436  0.00  0.00    +0.013 C 
ENDROOT
BRANCH   9   5
ATOM      5  N   UNL     1      -8.742  -9.945  18.653  0.00  0.00    -0.191 NA
ATOM     22  H   UNL     1      -8.180  -9.537  19.414  0.00  0.00    +0.148 HD
BRANCH   5   1
ATOM      1  S   UNL     1     -10.282 -10.503  19.144  0.00  0.00    +0.027 S 
ATOM      3  O   UNL     1     -10.541 -10.080  20.506  0.00  0.00    -0.158 OA
ATOM      4  O   UNL     1     -10.415 -11.892  18.753  0.00  0.00    -0.158 OA
ATOM     16  C   UNL     1     -11.317  -9.540  18.066  0.00  0.00    +0.214 C 
ENDBRANCH   5   1
ENDBRANCH   9   5
BRANCH   8  11
ATOM     11  C   UNL     1      -4.432 -10.605  17.078  0.00  0.00    +0.063 C 
BRANCH  11  14
ATOM      2  O   UNL     1      -1.998 -10.641  14.465  0.00  0.00    -0.359 OA
ATOM      6  N   UNL     1      -2.360 -10.613  15.807  0.00  0.00    -0.083 NA
ATOM     14  C   UNL     1      -3.696 -10.627  15.804  0.00  0.00    +0.084 A 
ATOM     15  C   UNL     1      -4.227 -10.664  14.502  0.00  0.00    +0.071 A 
ATOM     17  C   UNL     1      -3.118 -10.673  13.699  0.00  0.00    +0.143 A 
BRANCH  17  18
ATOM     18  C   UNL     1      -2.906 -10.707  12.175  0.00  0.00    +0.023 C 
ATOM     19  C   UNL     1      -2.815 -12.172  11.696  0.00  0.00    +0.019 C 
ATOM     20  C   UNL     1      -1.595  -9.974  11.817  0.00  0.00    +0.019 C 
ATOM     21  C   UNL     1      -4.041 -10.034  11.371  0.00  0.00    +0.019 C 
ENDBRANCH  17  18
ENDBRANCH  11  14
ENDBRANCH   8  11
TORSDOF 5
ENDMDL
MODEL 5
REMARK VINA RESULT:      -5.3      4.299      8.307
REMARK  Name = 56774050
REMARK  11 active torsions:
REMARK  status: ('A' for Active; 'I' for Inactive)
REMARK    1  A    between atoms: S_1  and  N_5
REMARK    2  A    between atoms: S_1  and  C_16
REMARK    3  A    between atoms: N_5  and  C_9
REMARK    4  A    between atoms: C_7  and  C_12
REMARK    5  A    between atoms: C_7  and  C_13
REMARK    6  A    between atoms: C_8  and  C_11
REMARK    7  A    between atoms: C_11  and  C_14
REMARK    8  A    between atoms: C_17  and  C_18
REMARK    9  A    between atoms: C_18  and  C_19
REMARK   10  A    between atoms: C_18  and  C_20
REMARK   11  A    between atoms: C_18  and  C_21
REMARK                            x       y       z     vdW  Elec       q    Type
REMARK                         _______ _______ _______ _____ _____    ______ ____
ROOT
ATOM      7  C   UNL     1      -5.621 -11.007  16.460  0.00  0.00    -0.015 C 
ATOM      8  C   UNL     1      -5.273 -11.460  17.893  0.00  0.00    +0.004 C 
ATOM      9  C   UNL     1      -4.166 -11.351  16.079  0.00  0.00    +0.082 C 
ATOM     10  C   UNL     1      -3.805 -11.119  17.562  0.00  0.00    +0.025 C 
ATOM     12  C   UNL     1      -6.690 -11.853  15.803  0.00  0.00    +0.013 C 
ATOM     13  C   UNL     1      -5.946  -9.534  16.292  0.00  0.00    +0.013 C 
ENDROOT
BRANCH   9   5
ATOM      5  N   UNL     1      -3.473 -10.451  15.093  0.00  0.00    -0.191 NA
ATOM     22  H   UNL     1      -4.126 -10.034  14.414  0.00  0.00    +0.148 HD
BRANCH   5   1
ATOM      1  S   UNL     1      -1.899 -10.710  14.478  0.00  0.00    +0.027 S 
ATOM      3  O   UNL     1      -0.920 -10.378  15.494  0.00  0.00    -0.158 OA
ATOM      4  O   UNL     1      -1.822 -10.138  13.149  0.00  0.00    -0.158 OA
ATOM     16  C   UNL     1      -1.924 -12.479  14.301  0.00  0.00    +0.214 C 
ENDBRANCH   5   1
ENDBRANCH   9   5
BRANCH   8  11
ATOM     11  C   UNL     1      -5.876 -10.656  19.052  0.00  0.00    +0.063 C 
BRANCH  11  14
ATOM      2  O   UNL     1      -8.772 -12.349  20.279  0.00  0.00    -0.359 OA
ATOM      6  N   UNL     1      -7.395 -12.177  20.186  0.00  0.00    -0.083 NA
ATOM     14  C   UNL     1      -7.232 -11.128  19.377  0.00  0.00    +0.084 A 
ATOM     15  C   UNL     1      -8.457 -10.600  18.932  0.00  0.00    +0.071 A 
ATOM     17  C   UNL     1      -9.393 -11.403  19.529  0.00  0.00    +0.143 A 
BRANCH  17  18
ATOM     18  C   UNL     1     -10.930 -11.440  19.513  0.00  0.00    +0.023 C 
ATOM     19  C   UNL     1     -11.432 -12.574  20.433  0.00  0.00    +0.019 C 
ATOM     20  C   UNL     1     -11.428 -11.697  18.074  0.00  0.00    +0.019 C 
ATOM     21  C   UNL     1     -11.593 -10.132  19.999  0.00  0.00    +0.019 C 
ENDBRANCH  17  18
ENDBRANCH  11  14
ENDBRANCH   8  11
TORSDOF 5
ENDMDL
MODEL 6
REMARK VINA RESULT:      -5.2      4.738      8.075
REMARK  Name = 56774050
REMARK  11 active torsions:
REMARK  status: ('A' for Active; 'I' for Inactive)
REMARK    1  A    between atoms: S_1  and  N_5
REMARK    2  A    between atoms: S_1  and  C_16
REMARK    3  A    between atoms: N_5  and  C_9
REMARK    4  A    between atoms: C_7  and  C_12
REMARK    5  A    between atoms: C_7  and  C_13
REMARK    6  A    between atoms: C_8  and  C_11
REMARK    7  A    between atoms: C_11  and  C_14
REMARK    8  A    between atoms: C_17  and  C_18
REMARK    9  A    between atoms: C_18  and  C_19
REMARK   10  A    between atoms: C_18  and  C_20
REMARK   11  A    between atoms: C_18  and  C_21
REMARK                            x       y       z     vdW  Elec       q    Type
REMARK                         _______ _______ _______ _____ _____    ______ ____
ROOT
ATOM      7  C   UNL     1      -5.327 -11.300  16.913  0.00  0.00    -0.015 C 
ATOM      8  C   UNL     1      -6.371 -12.418  17.113  0.00  0.00    +0.004 C 
ATOM      9  C   UNL     1      -4.653 -12.220  15.874  0.00  0.00    +0.082 C 
ATOM     10  C   UNL     1      -5.293 -13.407  16.625  0.00  0.00    +0.025 C 
ATOM     12  C   UNL     1      -5.915 -10.016  16.371  0.00  0.00    +0.013 C 
ATOM     13  C   UNL     1      -4.439 -11.003  18.108  0.00  0.00    +0.013 C 
ENDROOT
BRANCH   9   5
ATOM      5  N   UNL     1      -3.150 -12.221  15.816  0.00  0.00    -0.191 NA
ATOM     22  H   UNL     1      -2.719 -12.238  16.752  0.00  0.00    +0.148 HD
BRANCH   5   1
ATOM      1  S   UNL     1      -2.221 -11.406  14.635  0.00  0.00    +0.027 S 
ATOM      3  O   UNL     1      -3.055 -10.449  13.936  0.00  0.00    -0.158 OA
ATOM      4  O   UNL     1      -1.435 -12.385  13.910  0.00  0.00    -0.158 OA
ATOM     16  C   UNL     1      -1.112 -10.499  15.687  0.00  0.00    +0.214 C 
ENDBRANCH   5   1
ENDBRANCH   9   5
BRANCH   8  11
ATOM     11  C   UNL     1      -6.874 -12.665  18.542  0.00  0.00    +0.063 C 
BRANCH  11  14
ATOM      2  O   UNL     1      -9.491 -10.693  19.962  0.00  0.00    -0.359 OA
ATOM      6  N   UNL     1      -8.278 -11.368  20.043  0.00  0.00    -0.083 NA
ATOM     14  C   UNL     1      -8.084 -11.876  18.823  0.00  0.00    +0.084 A 
ATOM     15  C   UNL     1      -9.130 -11.557  17.939  0.00  0.00    +0.071 A 
ATOM     17  C   UNL     1      -9.987 -10.812  18.704  0.00  0.00    +0.143 A 
BRANCH  17  18
ATOM     18  C   UNL     1     -11.334 -10.122  18.430  0.00  0.00    +0.023 C 
ATOM     19  C   UNL     1     -11.091  -8.769  17.727  0.00  0.00    +0.019 C 
ATOM     20  C   UNL     1     -12.072  -9.876  19.764  0.00  0.00    +0.019 C 
ATOM     21  C   UNL     1     -12.284 -10.941  17.527  0.00  0.00    +0.019 C 
ENDBRANCH  17  18
ENDBRANCH  11  14
ENDBRANCH   8  11
TORSDOF 5
ENDMDL
MODEL 7
REMARK VINA RESULT:      -5.2      7.681     10.324
REMARK  Name = 56774050
REMARK  11 active torsions:
REMARK  status: ('A' for Active; 'I' for Inactive)
REMARK    1  A    between atoms: S_1  and  N_5
REMARK    2  A    between atoms: S_1  and  C_16
REMARK    3  A    between atoms: N_5  and  C_9
REMARK    4  A    between atoms: C_7  and  C_12
REMARK    5  A    between atoms: C_7  and  C_13
REMARK    6  A    between atoms: C_8  and  C_11
REMARK    7  A    between atoms: C_11  and  C_14
REMARK    8  A    between atoms: C_17  and  C_18
REMARK    9  A    between atoms: C_18  and  C_19
REMARK   10  A    between atoms: C_18  and  C_20
REMARK   11  A    between atoms: C_18  and  C_21
REMARK                            x       y       z     vdW  Elec       q    Type
REMARK                         _______ _______ _______ _____ _____    ______ ____
ROOT
ATOM      7  C   UNL     1     -11.655  -7.648  15.055  0.00  0.00    -0.015 C 
ATOM      8  C   UNL     1     -10.625  -7.435  16.183  0.00  0.00    +0.004 C 
ATOM      9  C   UNL     1     -11.600  -6.125  14.819  0.00  0.00    +0.082 C 
ATOM     10  C   UNL     1     -11.158  -5.991  16.292  0.00  0.00    +0.025 C 
ATOM     12  C   UNL     1     -11.139  -8.508  13.922  0.00  0.00    +0.013 C 
ATOM     13  C   UNL     1     -13.026  -8.131  15.493  0.00  0.00    +0.013 C 
ENDROOT
BRANCH   9   5
ATOM      5  N   UNL     1     -12.884  -5.429  14.459  0.00  0.00    -0.191 NA
ATOM     22  H   UNL     1     -13.704  -5.859  14.908  0.00  0.00    +0.148 HD
BRANCH   5   1
ATOM      1  S   UNL     1     -13.212  -4.718  12.939  0.00  0.00    +0.027 S 
ATOM      3  O   UNL     1     -12.899  -5.661  11.883  0.00  0.00    -0.158 OA
ATOM      4  O   UNL     1     -12.666  -3.375  12.929  0.00  0.00    -0.158 OA
ATOM     16  C   UNL     1     -14.981  -4.577  13.040  0.00  0.00    +0.214 C 
ENDBRANCH   5   1
ENDBRANCH   9   5
BRANCH   8  11
ATOM     11  C   UNL     1     -10.787  -8.279  17.454  0.00  0.00    +0.063 C 
BRANCH  11  14
ATOM      2  O   UNL     1      -8.483 -10.830  18.425  0.00  0.00    -0.359 OA
ATOM      6  N   UNL     1      -9.731 -10.219  18.470  0.00  0.00    -0.083 NA
ATOM     14  C   UNL     1      -9.630  -9.168  17.651  0.00  0.00    +0.084 A 
ATOM     15  C   UNL     1      -8.356  -9.067  17.067  0.00  0.00    +0.071 A 
ATOM     17  C   UNL     1      -7.674 -10.136  17.585  0.00  0.00    +0.143 A 
BRANCH  17  18
ATOM     18  C   UNL     1      -6.243 -10.673  17.411  0.00  0.00    +0.023 C 
ATOM     19  C   UNL     1      -5.478  -9.794  16.399  0.00  0.00    +0.019 C 
ATOM     20  C   UNL     1      -6.294 -12.124  16.885  0.00  0.00    +0.019 C 
ATOM     21  C   UNL     1      -5.418 -10.689  18.717  0.00  0.00    +0.019 C 
ENDBRANCH  17  18
ENDBRANCH  11  14
ENDBRANCH   8  11
TORSDOF 5
ENDMDL
MODEL 8
REMARK VINA RESULT:      -5.1      3.241      7.778
REMARK  Name = 56774050
REMARK  11 active torsions:
REMARK  status: ('A' for Active; 'I' for Inactive)
REMARK    1  A    between atoms: S_1  and  N_5
REMARK    2  A    between atoms: S_1  and  C_16
REMARK    3  A    between atoms: N_5  and  C_9
REMARK    4  A    between atoms: C_7  and  C_12
REMARK    5  A    between atoms: C_7  and  C_13
REMARK    6  A    between atoms: C_8  and  C_11
REMARK    7  A    between atoms: C_11  and  C_14
REMARK    8  A    between atoms: C_17  and  C_18
REMARK    9  A    between atoms: C_18  and  C_19
REMARK   10  A    between atoms: C_18  and  C_20
REMARK   11  A    between atoms: C_18  and  C_21
REMARK                            x       y       z     vdW  Elec       q    Type
REMARK                         _______ _______ _______ _____ _____    ______ ____
ROOT
ATOM      7  C   UNL     1      -4.159 -10.026  11.021  0.00  0.00    -0.015 C 
ATOM      8  C   UNL     1      -3.861 -10.890  12.263  0.00  0.00    +0.004 C 
ATOM      9  C   UNL     1      -4.515 -11.337  10.288  0.00  0.00    +0.082 C 
ATOM     10  C   UNL     1      -3.589 -12.057  11.291  0.00  0.00    +0.025 C 
ATOM     12  C   UNL     1      -5.302  -9.055  11.222  0.00  0.00    +0.013 C 
ATOM     13  C   UNL     1      -2.968  -9.310  10.410  0.00  0.00    +0.013 C 
ENDROOT
BRANCH   9   5
ATOM      5  N   UNL     1      -4.123 -11.454   8.841  0.00  0.00    -0.191 NA
ATOM     22  H   UNL     1      -3.214 -11.013   8.642  0.00  0.00    +0.148 HD
BRANCH   5   1
ATOM      1  S   UNL     1      -5.220 -11.415   7.529  0.00  0.00    +0.027 S 
ATOM      3  O   UNL     1      -6.425 -12.139   7.882  0.00  0.00    -0.158 OA
ATOM      4  O   UNL     1      -4.494 -11.717   6.312  0.00  0.00    -0.158 OA
ATOM     16  C   UNL     1      -5.610  -9.681   7.506  0.00  0.00    +0.214 C 
ENDBRANCH   5   1
ENDBRANCH   9   5
BRANCH   8  11
ATOM     11  C   UNL     1      -2.664 -10.483  13.133  0.00  0.00    +0.063 C 
BRANCH  11  14
ATOM      2  O   UNL     1      -2.553 -10.856  16.683  0.00  0.00    -0.359 OA
ATOM      6  N   UNL     1      -1.973 -10.527  15.463  0.00  0.00    -0.083 NA
ATOM     14  C   UNL     1      -2.933 -10.736  14.558  0.00  0.00    +0.084 A 
ATOM     15  C   UNL     1      -4.128 -11.193  15.142  0.00  0.00    +0.071 A 
ATOM     17  C   UNL     1      -3.836 -11.250  16.478  0.00  0.00    +0.143 A 
BRANCH  17  18
ATOM     18  C   UNL     1      -4.637 -11.654  17.727  0.00  0.00    +0.023 C 
ATOM     19  C   UNL     1      -5.625 -10.528  18.098  0.00  0.00    +0.019 C 
ATOM     20  C   UNL     1      -3.671 -11.891  18.909  0.00  0.00    +0.019 C 
ATOM     21  C   UNL     1      -5.464 -12.947  17.548  0.00  0.00    +0.019 C 
ENDBRANCH  17  18
ENDBRANCH  11  14
ENDBRANCH   8  11
TORSDOF 5
ENDMDL
MODEL 9
REMARK VINA RESULT:      -5.1     26.760     28.409
REMARK  Name = 56774050
REMARK  11 active torsions:
REMARK  status: ('A' for Active; 'I' for Inactive)
REMARK    1  A    between atoms: S_1  and  N_5
REMARK    2  A    between atoms: S_1  and  C_16
REMARK    3  A    between atoms: N_5  and  C_9
REMARK    4  A    between atoms: C_7  and  C_12
REMARK    5  A    between atoms: C_7  and  C_13
REMARK    6  A    between atoms: C_8  and  C_11
REMARK    7  A    between atoms: C_11  and  C_14
REMARK    8  A    between atoms: C_17  and  C_18
REMARK    9  A    between atoms: C_18  and  C_19
REMARK   10  A    between atoms: C_18  and  C_20
REMARK   11  A    between atoms: C_18  and  C_21
REMARK                            x       y       z     vdW  Elec       q    Type
REMARK                         _______ _______ _______ _____ _____    ______ ____
ROOT
ATOM      7  C   UNL     1      13.238   8.668   6.367  0.00  0.00    -0.015 C 
ATOM      8  C   UNL     1      14.778   8.630   6.279  0.00  0.00    +0.004 C 
ATOM      9  C   UNL     1      13.320   7.285   7.047  0.00  0.00    +0.082 C 
ATOM     10  C   UNL     1      14.666   7.092   6.318  0.00  0.00    +0.025 C 
ATOM     12  C   UNL     1      12.711   9.794   7.229  0.00  0.00    +0.013 C 
ATOM     13  C   UNL     1      12.498   8.635   5.042  0.00  0.00    +0.013 C 
ENDROOT
BRANCH   9   5
ATOM      5  N   UNL     1      12.250   6.281   6.714  0.00  0.00    -0.191 NA
ATOM     22  H   UNL     1      12.183   6.097   5.703  0.00  0.00    +0.148 HD
BRANCH   5   1
ATOM      1  S   UNL     1      10.767   6.126   7.551  0.00  0.00    +0.027 S 
ATOM      3  O   UNL     1      10.102   7.413   7.606  0.00  0.00    -0.158 OA
ATOM      4  O   UNL     1      10.995   5.349   8.753  0.00  0.00    -0.158 OA
ATOM     16  C   UNL     1       9.874   5.099   6.407  0.00  0.00    +0.214 C 
ENDBRANCH   5   1
ENDBRANCH   9   5
BRANCH   8  11
ATOM     11  C   UNL     1      15.425   9.197   5.008  0.00  0.00    +0.063 C 
BRANCH  11  14
ATOM      2  O   UNL     1      18.623   7.906   4.081  0.00  0.00    -0.359 OA
ATOM      6  N   UNL     1      17.265   8.101   3.858  0.00  0.00    -0.083 NA
ATOM     14  C   UNL     1      16.840   8.804   4.912  0.00  0.00    +0.084 A 
ATOM     15  C   UNL     1      17.875   9.080   5.822  0.00  0.00    +0.071 A 
ATOM     17  C   UNL     1      18.974   8.494   5.253  0.00  0.00    +0.143 A 
BRANCH  17  18
ATOM     18  C   UNL     1      20.452   8.378   5.663  0.00  0.00    +0.023 C 
ATOM     19  C   UNL     1      21.029   7.040   5.153  0.00  0.00    +0.019 C 
ATOM     20  C   UNL     1      20.568   8.426   7.202  0.00  0.00    +0.019 C 
ATOM     21  C   UNL     1      21.347   9.505   5.103  0.00  0.00    +0.019 C 
ENDBRANCH  17  18
ENDBRANCH  11  14
ENDBRANCH   8  11
TORSDOF 5
ENDMDL
MODEL 10
REMARK VINA RESULT:      -5.1     27.719     29.619
REMARK  Name = 56774050
REMARK  11 active torsions:
REMARK  status: ('A' for Active; 'I' for Inactive)
REMARK    1  A    between atoms: S_1  and  N_5
REMARK    2  A    between atoms: S_1  and  C_16
REMARK    3  A    between atoms: N_5  and  C_9
REMARK    4  A    between atoms: C_7  and  C_12
REMARK    5  A    between atoms: C_7  and  C_13
REMARK    6  A    between atoms: C_8  and  C_11
REMARK    7  A    between atoms: C_11  and  C_14
REMARK    8  A    between atoms: C_17  and  C_18
REMARK    9  A    between atoms: C_18  and  C_19
REMARK   10  A    between atoms: C_18  and  C_20
REMARK   11  A    between atoms: C_18  and  C_21
REMARK                            x       y       z     vdW  Elec       q    Type
REMARK                         _______ _______ _______ _____ _____    ______ ____
ROOT
ATOM      7  C   UNL     1      20.485   6.805  21.411  0.00  0.00    -0.015 C 
ATOM      8  C   UNL     1      19.348   6.292  20.503  0.00  0.00    +0.004 C 
ATOM      9  C   UNL     1      21.384   5.731  20.763  0.00  0.00    +0.082 C 
ATOM     10  C   UNL     1      20.092   4.941  20.464  0.00  0.00    +0.025 C 
ATOM     12  C   UNL     1      20.874   8.241  21.137  0.00  0.00    +0.013 C 
ATOM     13  C   UNL     1      20.289   6.594  22.901  0.00  0.00    +0.013 C 
ENDROOT
BRANCH   9   5
ATOM      5  N   UNL     1      22.383   5.035  21.646  0.00  0.00    -0.191 NA
ATOM     22  H   UNL     1      22.477   5.485  22.567  0.00  0.00    +0.148 HD
BRANCH   5   1
ATOM      1  S   UNL     1      23.814   4.280  21.089  0.00  0.00    +0.027 S 
ATOM      3  O   UNL     1      24.856   4.419  22.087  0.00  0.00    -0.158 OA
ATOM      4  O   UNL     1      24.037   4.674  19.712  0.00  0.00    -0.158 OA
ATOM     16  C   UNL     1      23.284   2.584  21.084  0.00  0.00    +0.214 C 
ENDBRANCH   5   1
ENDBRANCH   9   5
BRANCH   8  11
ATOM     11  C   UNL     1      17.938   6.234  21.105  0.00  0.00    +0.063 C 
BRANCH  11  14
ATOM      2  O   UNL     1      15.791   6.291  18.252  0.00  0.00    -0.359 OA
ATOM      6  N   UNL     1      16.849   5.764  18.983  0.00  0.00    -0.083 NA
ATOM     14  C   UNL     1      16.914   6.515  20.086  0.00  0.00    +0.084 A 
ATOM     15  C   UNL     1      15.931   7.520  20.106  0.00  0.00    +0.071 A 
ATOM     17  C   UNL     1      15.251   7.335  18.931  0.00  0.00    +0.143 A 
BRANCH  17  18
ATOM     18  C   UNL     1      14.060   8.044  18.267  0.00  0.00    +0.023 C 
ATOM     19  C   UNL     1      13.999   9.513  18.740  0.00  0.00    +0.019 C 
ATOM     20  C   UNL     1      12.747   7.331  18.658  0.00  0.00    +0.019 C 
ATOM     21  C   UNL     1      14.126   8.065  16.723  0.00  0.00    +0.019 C 
ENDBRANCH  17  18
ENDBRANCH  11  14
ENDBRANCH   8  11
TORSDOF 5
ENDMDL
