MODEL 1
REMARK VINA RESULT:      -7.4      0.000      0.000
REMARK  Name = 44716830
REMARK  10 active torsions:
REMARK  status: ('A' for Active; 'I' for Inactive)
REMARK    1  A    between atoms: S_1  and  N_9
REMARK    2  A    between atoms: S_1  and  C_23
REMARK    3  A    between atoms: N_9  and  C_14
REMARK    4  A    between atoms: N_10  and  C_21
REMARK    5  A    between atoms: N_12  and  C_34
REMARK    6  A    between atoms: C_16  and  C_19
REMARK    7  A    between atoms: C_20  and  C_22
REMARK    8  A    between atoms: C_21  and  C_24
REMARK    9  A    between atoms: C_21  and  C_25
REMARK   10  A    between atoms: C_24  and  C_28
REMARK                            x       y       z     vdW  Elec       q    Type
REMARK                         _______ _______ _______ _____ _____    ______ ____
ROOT
ATOM      3  O   UNL     1      14.513  13.573  23.210  0.00  0.00    -0.267 OA
ATOM      8  N   UNL     1      13.742  12.127  21.533  0.00  0.00    -0.283 N 
ATOM     14  C   UNL     1      13.841  11.248  18.760  0.00  0.00    +0.080 C 
ATOM     15  C   UNL     1      12.532  11.192  19.549  0.00  0.00    +0.052 C 
ATOM     16  C   UNL     1      12.746  11.147  21.063  0.00  0.00    +0.164 C 
ATOM     17  C   UNL     1      14.732  12.374  19.275  0.00  0.00    +0.039 C 
ATOM     18  C   UNL     1      14.990  12.216  20.769  0.00  0.00    +0.110 C 
ATOM     20  C   UNL     1      13.639  12.853  22.729  0.00  0.00    +0.283 C 
ENDROOT
BRANCH  20  22
ATOM      6  O   UNL     1      12.330  11.888  24.522  0.00  0.00    -0.458 OA
ATOM     22  C   UNL     1      12.387  12.767  23.487  0.00  0.00    +0.189 A 
ATOM     27  C   UNL     1      11.192  13.436  23.354  0.00  0.00    +0.054 A 
ATOM     30  C   UNL     1      10.348  12.937  24.374  0.00  0.00    +0.042 A 
ATOM     31  C   UNL     1      11.086  11.998  25.057  0.00  0.00    +0.196 A 
ENDBRANCH  20  22
BRANCH  16  19
ATOM      2  O   UNL     1      13.865   9.656  22.556  0.00  0.00    -0.274 OA
ATOM     10  N   UNL     1      12.828   8.786  20.663  0.00  0.00    -0.302 N 
ATOM     19  C   UNL     1      13.209   9.797  21.529  0.00  0.00    +0.234 C 
ATOM     39  H   UNL     1      12.204   9.001  19.890  0.00  0.00    +0.150 HD
BRANCH  10  21
ATOM     21  C   UNL     1      13.168   7.398  20.871  0.00  0.00    +0.163 C 
BRANCH  21  25
ATOM      7  O   UNL     1      11.051   6.925  21.965  0.00  0.00    -0.274 OA
ATOM     13  N   UNL     1      11.668   5.640  20.163  0.00  0.00    -0.328 N 
ATOM     25  C   UNL     1      11.864   6.644  21.088  0.00  0.00    +0.231 C 
ATOM     40  H   UNL     1      10.829   5.068  20.187  0.00  0.00    +0.145 HD
ATOM     41  H   UNL     1      12.338   5.434  19.431  0.00  0.00    +0.145 HD
ENDBRANCH  21  25
BRANCH  21  24
ATOM     24  C   UNL     1      13.936   6.804  19.683  0.00  0.00    +0.067 C 
BRANCH  24  28
ATOM     28  C   UNL     1      15.401   6.594  19.981  0.00  0.00    -0.045 A 
ATOM     32  C   UNL     1      16.270   6.204  18.963  0.00  0.00    +0.004 A 
ATOM     33  C   UNL     1      15.884   6.789  21.274  0.00  0.00    +0.004 A 
ATOM     35  C   UNL     1      17.624   6.009  19.238  0.00  0.00    +0.000 A 
ATOM     36  C   UNL     1      17.237   6.595  21.550  0.00  0.00    +0.000 A 
ATOM     37  C   UNL     1      18.107   6.204  20.531  0.00  0.00    +0.000 A 
ENDBRANCH  24  28
ENDBRANCH  21  24
ENDBRANCH  10  21
ENDBRANCH  16  19
BRANCH  14   9
ATOM      9  N   UNL     1      13.543  11.478  17.326  0.00  0.00    -0.185 NA
ATOM     38  H   UNL     1      12.796  12.156  17.127  0.00  0.00    +0.148 HD
BRANCH   9   1
ATOM      1  S   UNL     1      13.861  10.257  16.190  0.00  0.00    +0.077 S 
ATOM      4  O   UNL     1      12.652   9.961  15.445  0.00  0.00    -0.152 OA
ATOM      5  O   UNL     1      14.594   9.189  16.845  0.00  0.00    -0.152 OA
BRANCH   1  23
ATOM     11  N   UNL     1      14.786  11.109  13.738  0.00  0.00    -0.216 NA
ATOM     12  N   UNL     1      16.672  12.159  14.262  0.00  0.00    -0.338 N 
ATOM     23  C   UNL     1      14.991  11.062  15.095  0.00  0.00    +0.211 A 
ATOM     26  C   UNL     1      16.155  11.706  15.442  0.00  0.00    +0.135 A 
ATOM     29  C   UNL     1      15.816  11.777  13.267  0.00  0.00    +0.201 A 
ATOM     34  C   UNL     1      17.897  12.903  14.094  0.00  0.00    +0.150 C 
ENDBRANCH   1  23
ENDBRANCH   9   1
ENDBRANCH  14   9
TORSDOF 9
ENDMDL
MODEL 2
REMARK VINA RESULT:      -6.9      2.514      6.104
REMARK  Name = 44716830
REMARK  10 active torsions:
REMARK  status: ('A' for Active; 'I' for Inactive)
REMARK    1  A    between atoms: S_1  and  N_9
REMARK    2  A    between atoms: S_1  and  C_23
REMARK    3  A    between atoms: N_9  and  C_14
REMARK    4  A    between atoms: N_10  and  C_21
REMARK    5  A    between atoms: N_12  and  C_34
REMARK    6  A    between atoms: C_16  and  C_19
REMARK    7  A    between atoms: C_20  and  C_22
REMARK    8  A    between atoms: C_21  and  C_24
REMARK    9  A    between atoms: C_21  and  C_25
REMARK   10  A    between atoms: C_24  and  C_28
REMARK                            x       y       z     vdW  Elec       q    Type
REMARK                         _______ _______ _______ _____ _____    ______ ____
ROOT
ATOM      3  O   UNL     1      13.216   6.991  17.158  0.00  0.00    -0.267 OA
ATOM      8  N   UNL     1      13.848   9.215  17.547  0.00  0.00    -0.283 N 
ATOM     14  C   UNL     1      14.406  11.870  16.490  0.00  0.00    +0.080 C 
ATOM     15  C   UNL     1      15.173  11.335  17.700  0.00  0.00    +0.052 C 
ATOM     16  C   UNL     1      14.422  10.232  18.448  0.00  0.00    +0.164 C 
ATOM     17  C   UNL     1      13.964  10.724  15.585  0.00  0.00    +0.039 C 
ATOM     18  C   UNL     1      13.136   9.710  16.364  0.00  0.00    +0.110 C 
ATOM     20  C   UNL     1      13.805   7.842  17.825  0.00  0.00    +0.283 C 
ENDROOT
BRANCH  20  22
ATOM      6  O   UNL     1      13.826   7.215  20.163  0.00  0.00    -0.458 OA
ATOM     22  C   UNL     1      14.524   7.350  19.005  0.00  0.00    +0.189 A 
ATOM     27  C   UNL     1      15.835   6.975  19.184  0.00  0.00    +0.054 A 
ATOM     30  C   UNL     1      15.950   6.584  20.539  0.00  0.00    +0.042 A 
ATOM     31  C   UNL     1      14.701   6.749  21.092  0.00  0.00    +0.196 A 
ENDBRANCH  20  22
BRANCH  16  19
ATOM      2  O   UNL     1      12.922  11.943  19.174  0.00  0.00    -0.274 OA
ATOM     10  N   UNL     1      12.762   9.825  20.127  0.00  0.00    -0.302 N 
ATOM     19  C   UNL     1      13.290  10.776  19.270  0.00  0.00    +0.234 C 
ATOM     39  H   UNL     1      13.078   8.862  20.058  0.00  0.00    +0.150 HD
BRANCH  10  21
ATOM     21  C   UNL     1      11.678  10.102  21.042  0.00  0.00    +0.163 C 
BRANCH  21  25
ATOM      7  O   UNL     1      10.316   8.492  22.249  0.00  0.00    -0.274 OA
ATOM     13  N   UNL     1      10.859   8.051  20.061  0.00  0.00    -0.328 N 
ATOM     25  C   UNL     1      10.894   8.808  21.212  0.00  0.00    +0.231 C 
ATOM     40  H   UNL     1      10.357   7.169  20.033  0.00  0.00    +0.145 HD
ATOM     41  H   UNL     1      11.323   8.336  19.205  0.00  0.00    +0.145 HD
ENDBRANCH  21  25
BRANCH  21  24
ATOM     24  C   UNL     1      12.181  10.603  22.402  0.00  0.00    +0.067 C 
BRANCH  24  28
ATOM     28  C   UNL     1      11.412  11.802  22.901  0.00  0.00    -0.045 A 
ATOM     32  C   UNL     1      10.972  12.772  22.001  0.00  0.00    +0.004 A 
ATOM     33  C   UNL     1      11.145  11.941  24.262  0.00  0.00    +0.004 A 
ATOM     35  C   UNL     1      10.262  13.881  22.462  0.00  0.00    +0.000 A 
ATOM     36  C   UNL     1      10.435  13.050  24.724  0.00  0.00    +0.000 A 
ATOM     37  C   UNL     1       9.994  14.020  23.823  0.00  0.00    +0.000 A 
ENDBRANCH  24  28
ENDBRANCH  21  24
ENDBRANCH  10  21
ENDBRANCH  16  19
BRANCH  14   9
ATOM      9  N   UNL     1      15.277  12.791  15.721  0.00  0.00    -0.185 NA
ATOM     38  H   UNL     1      16.258  12.837  16.024  0.00  0.00    +0.148 HD
BRANCH   9   1
ATOM      1  S   UNL     1      14.601  14.138  14.940  0.00  0.00    +0.077 S 
ATOM      4  O   UNL     1      15.649  15.089  14.619  0.00  0.00    -0.152 OA
ATOM      5  O   UNL     1      13.428  14.567  15.678  0.00  0.00    -0.152 OA
BRANCH   1  23
ATOM     11  N   UNL     1      14.885  13.050  12.423  0.00  0.00    -0.216 NA
ATOM     12  N   UNL     1      12.786  12.640  11.825  0.00  0.00    -0.338 N 
ATOM     23  C   UNL     1      14.026  13.430  13.425  0.00  0.00    +0.211 A 
ATOM     26  C   UNL     1      12.719  13.186  13.075  0.00  0.00    +0.135 A 
ATOM     29  C   UNL     1      14.106  12.578  11.475  0.00  0.00    +0.201 A 
ATOM     34  C   UNL     1      11.669  12.209  11.020  0.00  0.00    +0.150 C 
ENDBRANCH   1  23
ENDBRANCH   9   1
ENDBRANCH  14   9
TORSDOF 9
ENDMDL
MODEL 3
REMARK VINA RESULT:      -6.6     13.221     16.517
REMARK  Name = 44716830
REMARK  10 active torsions:
REMARK  status: ('A' for Active; 'I' for Inactive)
REMARK    1  A    between atoms: S_1  and  N_9
REMARK    2  A    between atoms: S_1  and  C_23
REMARK    3  A    between atoms: N_9  and  C_14
REMARK    4  A    between atoms: N_10  and  C_21
REMARK    5  A    between atoms: N_12  and  C_34
REMARK    6  A    between atoms: C_16  and  C_19
REMARK    7  A    between atoms: C_20  and  C_22
REMARK    8  A    between atoms: C_21  and  C_24
REMARK    9  A    between atoms: C_21  and  C_25
REMARK   10  A    between atoms: C_24  and  C_28
REMARK                            x       y       z     vdW  Elec       q    Type
REMARK                         _______ _______ _______ _____ _____    ______ ____
ROOT
ATOM      3  O   UNL     1      10.686   6.455   0.460  0.00  0.00    -0.267 OA
ATOM      8  N   UNL     1      11.268   7.017   2.661  0.00  0.00    -0.283 N 
ATOM     14  C   UNL     1      11.664   9.068   4.688  0.00  0.00    +0.080 C 
ATOM     15  C   UNL     1      12.529   7.806   4.676  0.00  0.00    +0.052 C 
ATOM     16  C   UNL     1      11.867   6.632   3.952  0.00  0.00    +0.164 C 
ATOM     17  C   UNL     1      11.200   9.416   3.277  0.00  0.00    +0.039 C 
ATOM     18  C   UNL     1      10.461   8.241   2.647  0.00  0.00    +0.110 C 
ATOM     20  C   UNL     1      11.290   6.221   1.506  0.00  0.00    +0.283 C 
ENDROOT
BRANCH  20  22
ATOM      6  O   UNL     1      13.432   5.119   1.262  0.00  0.00    -0.458 OA
ATOM     22  C   UNL     1      12.103   5.000   1.521  0.00  0.00    +0.189 A 
ATOM     27  C   UNL     1      11.772   3.686   1.758  0.00  0.00    +0.054 A 
ATOM     30  C   UNL     1      12.974   2.951   1.638  0.00  0.00    +0.042 A 
ATOM     31  C   UNL     1      13.956   3.867   1.336  0.00  0.00    +0.196 A 
ENDBRANCH  20  22
BRANCH  16  19
ATOM      2  O   UNL     1      10.088   5.086   4.338  0.00  0.00    -0.274 OA
ATOM     10  N   UNL     1      10.647   6.601   6.014  0.00  0.00    -0.302 N 
ATOM     19  C   UNL     1      10.776   6.006   4.770  0.00  0.00    +0.234 C 
ATOM     39  H   UNL     1      11.331   7.293   6.308  0.00  0.00    +0.150 HD
BRANCH  10  21
ATOM     21  C   UNL     1       9.655   6.198   6.984  0.00  0.00    +0.163 C 
BRANCH  21  25
ATOM      7  O   UNL     1      10.882   5.449   8.942  0.00  0.00    -0.274 OA
ATOM     13  N   UNL     1      10.146   3.876   7.438  0.00  0.00    -0.328 N 
ATOM     25  C   UNL     1      10.309   5.168   7.892  0.00  0.00    +0.231 C 
ATOM     40  H   UNL     1      10.523   3.090   7.959  0.00  0.00    +0.145 HD
ATOM     41  H   UNL     1       9.651   3.658   6.581  0.00  0.00    +0.145 HD
ENDBRANCH  21  25
BRANCH  21  24
ATOM     24  C   UNL     1       9.135   7.382   7.808  0.00  0.00    +0.067 C 
BRANCH  24  28
ATOM     28  C   UNL     1       8.862   8.605   6.965  0.00  0.00    -0.045 A 
ATOM     32  C   UNL     1       8.113   8.491   5.794  0.00  0.00    +0.004 A 
ATOM     33  C   UNL     1       9.360   9.847   7.356  0.00  0.00    +0.004 A 
ATOM     35  C   UNL     1       7.861   9.620   5.014  0.00  0.00    +0.000 A 
ATOM     36  C   UNL     1       9.108  10.976   6.577  0.00  0.00    +0.000 A 
ATOM     37  C   UNL     1       8.359  10.862   5.405  0.00  0.00    +0.000 A 
ENDBRANCH  24  28
ENDBRANCH  21  24
ENDBRANCH  10  21
ENDBRANCH  16  19
BRANCH  14   9
ATOM      9  N   UNL     1      12.449  10.199   5.238  0.00  0.00    -0.185 NA
ATOM     38  H   UNL     1      12.961  10.765   4.549  0.00  0.00    +0.148 HD
BRANCH   9   1
ATOM      1  S   UNL     1      13.032  10.128   6.831  0.00  0.00    +0.077 S 
ATOM      4  O   UNL     1      12.699   8.841   7.411  0.00  0.00    -0.152 OA
ATOM      5  O   UNL     1      12.667  11.353   7.517  0.00  0.00    -0.152 OA
BRANCH   1  23
ATOM     11  N   UNL     1      15.529  11.293   6.865  0.00  0.00    -0.216 NA
ATOM     12  N   UNL     1      16.837   9.674   6.090  0.00  0.00    -0.338 N 
ATOM     23  C   UNL     1      14.781  10.177   6.583  0.00  0.00    +0.211 A 
ATOM     26  C   UNL     1      15.572   9.160   6.100  0.00  0.00    +0.135 A 
ATOM     29  C   UNL     1      16.762  10.956   6.558  0.00  0.00    +0.201 A 
ATOM     34  C   UNL     1      18.034   8.990   5.664  0.00  0.00    +0.150 C 
ENDBRANCH   1  23
ENDBRANCH   9   1
ENDBRANCH  14   9
TORSDOF 9
ENDMDL
MODEL 4
REMARK VINA RESULT:      -6.5     26.888     30.411
REMARK  Name = 44716830
REMARK  10 active torsions:
REMARK  status: ('A' for Active; 'I' for Inactive)
REMARK    1  A    between atoms: S_1  and  N_9
REMARK    2  A    between atoms: S_1  and  C_23
REMARK    3  A    between atoms: N_9  and  C_14
REMARK    4  A    between atoms: N_10  and  C_21
REMARK    5  A    between atoms: N_12  and  C_34
REMARK    6  A    between atoms: C_16  and  C_19
REMARK    7  A    between atoms: C_20  and  C_22
REMARK    8  A    between atoms: C_21  and  C_24
REMARK    9  A    between atoms: C_21  and  C_25
REMARK   10  A    between atoms: C_24  and  C_28
REMARK                            x       y       z     vdW  Elec       q    Type
REMARK                         _______ _______ _______ _____ _____    ______ ____
ROOT
ATOM      3  O   UNL     1      -4.458 -15.015  16.828  0.00  0.00    -0.267 OA
ATOM      8  N   UNL     1      -5.231 -12.809  16.649  0.00  0.00    -0.283 N 
ATOM     14  C   UNL     1      -6.400 -10.466  17.922  0.00  0.00    +0.080 C 
ATOM     15  C   UNL     1      -6.718 -10.801  16.463  0.00  0.00    +0.052 C 
ATOM     16  C   UNL     1      -5.651 -11.677  15.803  0.00  0.00    +0.164 C 
ATOM     17  C   UNL     1      -6.091 -11.735  18.710  0.00  0.00    +0.039 C 
ATOM     18  C   UNL     1      -4.953 -12.511  18.058  0.00  0.00    +0.110 C 
ATOM     20  C   UNL     1      -4.937 -14.093  16.169  0.00  0.00    +0.283 C 
ENDROOT
BRANCH  20  22
ATOM      6  O   UNL     1      -4.217 -14.227  13.861  0.00  0.00    -0.458 OA
ATOM     22  C   UNL     1      -5.223 -14.390  14.761  0.00  0.00    +0.189 A 
ATOM     27  C   UNL     1      -6.368 -14.824  14.134  0.00  0.00    +0.054 A 
ATOM     30  C   UNL     1      -6.045 -14.937  12.761  0.00  0.00    +0.042 A 
ATOM     31  C   UNL     1      -4.725 -14.563  12.646  0.00  0.00    +0.196 A 
ENDBRANCH  20  22
BRANCH  16  19
ATOM      2  O   UNL     1      -3.953 -10.051  16.224  0.00  0.00    -0.274 OA
ATOM     10  N   UNL     1      -3.896 -11.247  14.229  0.00  0.00    -0.302 N 
ATOM     19  C   UNL     1      -4.411 -10.900  15.467  0.00  0.00    +0.234 C 
ATOM     39  H   UNL     1      -4.299 -12.031  13.724  0.00  0.00    +0.150 HD
BRANCH  10  21
ATOM     21  C   UNL     1      -2.720 -10.629  13.661  0.00  0.00    +0.163 C 
BRANCH  21  25
ATOM      7  O   UNL     1      -1.140 -11.740  15.135  0.00  0.00    -0.274 OA
ATOM     13  N   UNL     1      -1.204  -9.444  15.123  0.00  0.00    -0.328 N 
ATOM     25  C   UNL     1      -1.627 -10.692  14.718  0.00  0.00    +0.231 C 
ATOM     40  H   UNL     1      -0.468  -9.343  15.815  0.00  0.00    +0.145 HD
ATOM     41  H   UNL     1      -1.600  -8.587  14.753  0.00  0.00    +0.145 HD
ENDBRANCH  21  25
BRANCH  21  24
ATOM     24  C   UNL     1      -2.260 -11.328  12.376  0.00  0.00    +0.067 C 
BRANCH  24  28
ATOM     28  C   UNL     1      -3.004 -10.848  11.153  0.00  0.00    -0.045 A 
ATOM     32  C   UNL     1      -3.772 -11.743  10.409  0.00  0.00    +0.004 A 
ATOM     33  C   UNL     1      -2.923  -9.511  10.767  0.00  0.00    +0.004 A 
ATOM     35  C   UNL     1      -4.459 -11.300   9.278  0.00  0.00    +0.000 A 
ATOM     36  C   UNL     1      -3.610  -9.068   9.637  0.00  0.00    +0.000 A 
ATOM     37  C   UNL     1      -4.378  -9.963   8.892  0.00  0.00    +0.000 A 
ENDBRANCH  24  28
ENDBRANCH  21  24
ENDBRANCH  10  21
ENDBRANCH  16  19
BRANCH  14   9
ATOM      9  N   UNL     1      -7.563  -9.781  18.535  0.00  0.00    -0.185 NA
ATOM     38  H   UNL     1      -7.341  -9.041  19.212  0.00  0.00    +0.148 HD
BRANCH   9   1
ATOM      1  S   UNL     1      -9.047 -10.595  18.672  0.00  0.00    +0.077 S 
ATOM      4  O   UNL     1      -9.406 -10.715  20.072  0.00  0.00    -0.152 OA
ATOM      5  O   UNL     1      -9.015 -11.771  17.823  0.00  0.00    -0.152 OA
BRANCH   1  23
ATOM     11  N   UNL     1     -11.495  -9.732  17.746  0.00  0.00    -0.216 NA
ATOM     12  N   UNL     1     -11.037  -7.705  16.962  0.00  0.00    -0.338 N 
ATOM     23  C   UNL     1     -10.163  -9.448  17.921  0.00  0.00    +0.211 A 
ATOM     26  C   UNL     1      -9.857  -8.196  17.442  0.00  0.00    +0.135 A 
ATOM     29  C   UNL     1     -11.992  -8.662  17.167  0.00  0.00    +0.201 A 
ATOM     34  C   UNL     1     -11.241  -6.414  16.351  0.00  0.00    +0.150 C 
ENDBRANCH   1  23
ENDBRANCH   9   1
ENDBRANCH  14   9
TORSDOF 9
ENDMDL
MODEL 5
REMARK VINA RESULT:      -6.5     28.240     30.603
REMARK  Name = 44716830
REMARK  10 active torsions:
REMARK  status: ('A' for Active; 'I' for Inactive)
REMARK    1  A    between atoms: S_1  and  N_9
REMARK    2  A    between atoms: S_1  and  C_23
REMARK    3  A    between atoms: N_9  and  C_14
REMARK    4  A    between atoms: N_10  and  C_21
REMARK    5  A    between atoms: N_12  and  C_34
REMARK    6  A    between atoms: C_16  and  C_19
REMARK    7  A    between atoms: C_20  and  C_22
REMARK    8  A    between atoms: C_21  and  C_24
REMARK    9  A    between atoms: C_21  and  C_25
REMARK   10  A    between atoms: C_24  and  C_28
REMARK                            x       y       z     vdW  Elec       q    Type
REMARK                         _______ _______ _______ _____ _____    ______ ____
ROOT
ATOM      3  O   UNL     1     -13.228  -9.497  15.729  0.00  0.00    -0.267 OA
ATOM      8  N   UNL     1     -10.918  -9.383  16.118  0.00  0.00    -0.283 N 
ATOM     14  C   UNL     1      -8.614 -10.188  17.705  0.00  0.00    +0.080 C 
ATOM     15  C   UNL     1      -8.677  -8.797  17.072  0.00  0.00    +0.052 C 
ATOM     16  C   UNL     1      -9.621  -8.727  15.870  0.00  0.00    +0.164 C 
ATOM     17  C   UNL     1     -10.018 -10.703  18.011  0.00  0.00    +0.039 C 
ATOM     18  C   UNL     1     -10.878 -10.704  16.754  0.00  0.00    +0.110 C 
ATOM     20  C   UNL     1     -12.152  -8.904  15.654  0.00  0.00    +0.283 C 
ENDROOT
BRANCH  20  22
ATOM      6  O   UNL     1     -12.313  -7.523  13.672  0.00  0.00    -0.458 OA
ATOM     22  C   UNL     1     -12.190  -7.580  15.024  0.00  0.00    +0.189 A 
ATOM     27  C   UNL     1     -12.123  -6.314  15.558  0.00  0.00    +0.054 A 
ATOM     30  C   UNL     1     -12.212  -5.422  14.464  0.00  0.00    +0.042 A 
ATOM     31  C   UNL     1     -12.326  -6.205  13.339  0.00  0.00    +0.196 A 
ENDBRANCH  20  22
BRANCH  16  19
ATOM      2  O   UNL     1      -9.713  -9.643  13.665  0.00  0.00    -0.274 OA
ATOM     10  N   UNL     1      -7.679  -9.632  14.797  0.00  0.00    -0.302 N 
ATOM     19  C   UNL     1      -9.032  -9.374  14.650  0.00  0.00    +0.234 C 
ATOM     39  H   UNL     1      -7.191  -9.282  15.617  0.00  0.00    +0.150 HD
BRANCH  10  21
ATOM     21  C   UNL     1      -6.881 -10.271  13.776  0.00  0.00    +0.163 C 
BRANCH  21  25
ATOM      7  O   UNL     1      -7.553 -12.536  14.344  0.00  0.00    -0.274 OA
ATOM     13  N   UNL     1      -8.046 -11.737  12.248  0.00  0.00    -0.328 N 
ATOM     25  C   UNL     1      -7.501 -11.635  13.510  0.00  0.00    +0.231 C 
ATOM     40  H   UNL     1      -8.504 -12.591  11.946  0.00  0.00    +0.145 HD
ATOM     41  H   UNL     1      -8.016 -10.976  11.577  0.00  0.00    +0.145 HD
ENDBRANCH  21  25
BRANCH  21  24
ATOM     24  C   UNL     1      -6.828  -9.448  12.482  0.00  0.00    +0.067 C 
BRANCH  24  28
ATOM     28  C   UNL     1      -5.472  -9.490  11.820  0.00  0.00    -0.045 A 
ATOM     32  C   UNL     1      -4.449 -10.258  12.374  0.00  0.00    +0.004 A 
ATOM     33  C   UNL     1      -5.242  -8.759  10.655  0.00  0.00    +0.004 A 
ATOM     35  C   UNL     1      -3.195 -10.297  11.763  0.00  0.00    +0.000 A 
ATOM     36  C   UNL     1      -3.989  -8.797  10.044  0.00  0.00    +0.000 A 
ATOM     37  C   UNL     1      -2.966  -9.565  10.599  0.00  0.00    +0.000 A 
ENDBRANCH  24  28
ENDBRANCH  21  24
ENDBRANCH  10  21
ENDBRANCH  16  19
BRANCH  14   9
ATOM      9  N   UNL     1      -7.833 -10.122  18.964  0.00  0.00    -0.185 NA
ATOM     38  H   UNL     1      -7.642  -9.178  19.324  0.00  0.00    +0.148 HD
BRANCH   9   1
ATOM      1  S   UNL     1      -6.762 -11.379  19.360  0.00  0.00    +0.077 S 
ATOM      4  O   UNL     1      -7.484 -12.636  19.396  0.00  0.00    -0.152 OA
ATOM      5  O   UNL     1      -5.957 -10.967  20.494  0.00  0.00    -0.152 OA
BRANCH   1  23
ATOM     11  N   UNL     1      -4.992 -10.297  17.545  0.00  0.00    -0.216 NA
ATOM     12  N   UNL     1      -4.564 -12.009  16.196  0.00  0.00    -0.338 N 
ATOM     23  C   UNL     1      -5.693 -11.405  17.952  0.00  0.00    +0.211 A 
ATOM     26  C   UNL     1      -5.444 -12.479  17.129  0.00  0.00    +0.135 A 
ATOM     29  C   UNL     1      -4.322 -10.695  16.486  0.00  0.00    +0.201 A 
ATOM     34  C   UNL     1      -3.994 -12.760  15.104  0.00  0.00    +0.150 C 
ENDBRANCH   1  23
ENDBRANCH   9   1
ENDBRANCH  14   9
TORSDOF 9
ENDMDL
MODEL 6
REMARK VINA RESULT:      -6.4      3.050      5.623
REMARK  Name = 44716830
REMARK  10 active torsions:
REMARK  status: ('A' for Active; 'I' for Inactive)
REMARK    1  A    between atoms: S_1  and  N_9
REMARK    2  A    between atoms: S_1  and  C_23
REMARK    3  A    between atoms: N_9  and  C_14
REMARK    4  A    between atoms: N_10  and  C_21
REMARK    5  A    between atoms: N_12  and  C_34
REMARK    6  A    between atoms: C_16  and  C_19
REMARK    7  A    between atoms: C_20  and  C_22
REMARK    8  A    between atoms: C_21  and  C_24
REMARK    9  A    between atoms: C_21  and  C_25
REMARK   10  A    between atoms: C_24  and  C_28
REMARK                            x       y       z     vdW  Elec       q    Type
REMARK                         _______ _______ _______ _____ _____    ______ ____
ROOT
ATOM      3  O   UNL     1      12.050   6.885  18.478  0.00  0.00    -0.267 OA
ATOM      8  N   UNL     1      13.154   8.780  17.649  0.00  0.00    -0.283 N 
ATOM     14  C   UNL     1      13.513  10.719  15.506  0.00  0.00    +0.080 C 
ATOM     15  C   UNL     1      14.698  10.284  16.371  0.00  0.00    +0.052 C 
ATOM     16  C   UNL     1      14.275   9.734  17.735  0.00  0.00    +0.164 C 
ATOM     17  C   UNL     1      12.478   9.601  15.411  0.00  0.00    +0.039 C 
ATOM     18  C   UNL     1      12.023   9.168  16.798  0.00  0.00    +0.110 C 
ATOM     20  C   UNL     1      13.033   7.624  18.432  0.00  0.00    +0.283 C 
ENDROOT
BRANCH  20  22
ATOM      6  O   UNL     1      14.028   7.354  20.623  0.00  0.00    -0.458 OA
ATOM     22  C   UNL     1      14.168   7.236  19.276  0.00  0.00    +0.189 A 
ATOM     27  C   UNL     1      15.415   6.748  18.960  0.00  0.00    +0.054 A 
ATOM     30  C   UNL     1      16.084   6.553  20.192  0.00  0.00    +0.042 A 
ATOM     31  C   UNL     1      15.198   6.936  21.173  0.00  0.00    +0.196 A 
ENDBRANCH  20  22
BRANCH  16  19
ATOM      2  O   UNL     1      13.571  11.951  18.279  0.00  0.00    -0.274 OA
ATOM     10  N   UNL     1      13.841  10.401  19.995  0.00  0.00    -0.302 N 
ATOM     19  C   UNL     1      13.850  10.823  18.676  0.00  0.00    +0.234 C 
ATOM     39  H   UNL     1      13.997   9.419  20.204  0.00  0.00    +0.150 HD
BRANCH  10  21
ATOM     21  C   UNL     1      13.490  11.265  21.099  0.00  0.00    +0.163 C 
BRANCH  21  25
ATOM      7  O   UNL     1      11.876   9.606  21.838  0.00  0.00    -0.274 OA
ATOM     13  N   UNL     1      11.285  11.825  21.914  0.00  0.00    -0.328 N 
ATOM     25  C   UNL     1      12.148  10.787  21.634  0.00  0.00    +0.231 C 
ATOM     40  H   UNL     1      10.360  11.645  22.290  0.00  0.00    +0.145 HD
ATOM     41  H   UNL     1      11.532  12.797  21.761  0.00  0.00    +0.145 HD
ENDBRANCH  21  25
BRANCH  21  24
ATOM     24  C   UNL     1      14.546  11.243  22.210  0.00  0.00    +0.067 C 
BRANCH  24  28
ATOM     28  C   UNL     1      15.957  11.209  21.674  0.00  0.00    -0.045 A 
ATOM     32  C   UNL     1      16.729  10.056  21.816  0.00  0.00    +0.004 A 
ATOM     33  C   UNL     1      16.489  12.331  21.039  0.00  0.00    +0.004 A 
ATOM     35  C   UNL     1      18.033  10.024  21.321  0.00  0.00    +0.000 A 
ATOM     36  C   UNL     1      17.792  12.299  20.545  0.00  0.00    +0.000 A 
ATOM     37  C   UNL     1      18.565  11.146  20.686  0.00  0.00    +0.000 A 
ENDBRANCH  24  28
ENDBRANCH  21  24
ENDBRANCH  10  21
ENDBRANCH  16  19
BRANCH  14   9
ATOM      9  N   UNL     1      13.994  11.058  14.145  0.00  0.00    -0.185 NA
ATOM     38  H   UNL     1      14.806  10.524  13.812  0.00  0.00    +0.148 HD
BRANCH   9   1
ATOM      1  S   UNL     1      13.723  12.611  13.516  0.00  0.00    +0.077 S 
ATOM      4  O   UNL     1      14.844  12.997  12.680  0.00  0.00    -0.152 OA
ATOM      5  O   UNL     1      13.282  13.480  14.591  0.00  0.00    -0.152 OA
BRANCH   1  23
ATOM     11  N   UNL     1      12.463  11.957  11.154  0.00  0.00    -0.216 NA
ATOM     12  N   UNL     1      10.313  12.164  11.671  0.00  0.00    -0.338 N 
ATOM     23  C   UNL     1      12.327  12.341  12.466  0.00  0.00    +0.211 A 
ATOM     26  C   UNL     1      11.002  12.476  12.808  0.00  0.00    +0.135 A 
ATOM     29  C   UNL     1      11.231  11.859  10.705  0.00  0.00    +0.201 A 
ATOM     34  C   UNL     1       8.878  12.157  11.516  0.00  0.00    +0.150 C 
ENDBRANCH   1  23
ENDBRANCH   9   1
ENDBRANCH  14   9
TORSDOF 9
ENDMDL
MODEL 7
REMARK VINA RESULT:      -6.4      2.337      5.138
REMARK  Name = 44716830
REMARK  10 active torsions:
REMARK  status: ('A' for Active; 'I' for Inactive)
REMARK    1  A    between atoms: S_1  and  N_9
REMARK    2  A    between atoms: S_1  and  C_23
REMARK    3  A    between atoms: N_9  and  C_14
REMARK    4  A    between atoms: N_10  and  C_21
REMARK    5  A    between atoms: N_12  and  C_34
REMARK    6  A    between atoms: C_16  and  C_19
REMARK    7  A    between atoms: C_20  and  C_22
REMARK    8  A    between atoms: C_21  and  C_24
REMARK    9  A    between atoms: C_21  and  C_25
REMARK   10  A    between atoms: C_24  and  C_28
REMARK                            x       y       z     vdW  Elec       q    Type
REMARK                         _______ _______ _______ _____ _____    ______ ____
ROOT
ATOM      3  O   UNL     1      12.064   6.576  19.076  0.00  0.00    -0.267 OA
ATOM      8  N   UNL     1      13.021   8.528  18.197  0.00  0.00    -0.283 N 
ATOM     14  C   UNL     1      13.316  10.373  15.965  0.00  0.00    +0.080 C 
ATOM     15  C   UNL     1      14.481  10.113  16.920  0.00  0.00    +0.052 C 
ATOM     16  C   UNL     1      14.031   9.597  18.289  0.00  0.00    +0.164 C 
ATOM     17  C   UNL     1      12.408   9.150  15.878  0.00  0.00    +0.039 C 
ATOM     18  C   UNL     1      11.912   8.747  17.261  0.00  0.00    +0.110 C 
ATOM     20  C   UNL     1      12.968   7.410  19.042  0.00  0.00    +0.283 C 
ENDROOT
BRANCH  20  22
ATOM      6  O   UNL     1      13.962   7.682  21.233  0.00  0.00    -0.458 OA
ATOM     22  C   UNL     1      14.081   7.190  19.972  0.00  0.00    +0.189 A 
ATOM     27  C   UNL     1      15.288   6.549  19.814  0.00  0.00    +0.054 A 
ATOM     30  C   UNL     1      15.952   6.653  21.059  0.00  0.00    +0.042 A 
ATOM     31  C   UNL     1      15.105   7.351  21.889  0.00  0.00    +0.196 A 
ENDBRANCH  20  22
BRANCH  16  19
ATOM      2  O   UNL     1      13.248  11.817  18.698  0.00  0.00    -0.274 OA
ATOM     10  N   UNL     1      13.174  10.260  20.427  0.00  0.00    -0.302 N 
ATOM     19  C   UNL     1      13.439  10.686  19.136  0.00  0.00    +0.234 C 
ATOM     39  H   UNL     1      13.282   9.276  20.658  0.00  0.00    +0.150 HD
BRANCH  10  21
ATOM     21  C   UNL     1      12.623  11.122  21.446  0.00  0.00    +0.163 C 
BRANCH  21  25
ATOM      7  O   UNL     1      10.931   9.381  21.547  0.00  0.00    -0.274 OA
ATOM     13  N   UNL     1      10.670  11.245  22.864  0.00  0.00    -0.328 N 
ATOM     25  C   UNL     1      11.328  10.482  21.923  0.00  0.00    +0.231 C 
ATOM     40  H   UNL     1       9.798  10.927  23.275  0.00  0.00    +0.145 HD
ATOM     41  H   UNL     1      11.022  12.142  23.182  0.00  0.00    +0.145 HD
ENDBRANCH  21  25
BRANCH  21  24
ATOM     24  C   UNL     1      13.587  11.318  22.623  0.00  0.00    +0.067 C 
BRANCH  24  28
ATOM     28  C   UNL     1      14.957  11.776  22.186  0.00  0.00    -0.045 A 
ATOM     32  C   UNL     1      15.125  13.049  21.641  0.00  0.00    +0.004 A 
ATOM     33  C   UNL     1      16.053  10.927  22.324  0.00  0.00    +0.004 A 
ATOM     35  C   UNL     1      16.391  13.473  21.236  0.00  0.00    +0.000 A 
ATOM     36  C   UNL     1      17.319  11.350  21.919  0.00  0.00    +0.000 A 
ATOM     37  C   UNL     1      17.488  12.623  21.374  0.00  0.00    +0.000 A 
ENDBRANCH  24  28
ENDBRANCH  21  24
ENDBRANCH  10  21
ENDBRANCH  16  19
BRANCH  14   9
ATOM      9  N   UNL     1      13.845  10.685  14.615  0.00  0.00    -0.185 NA
ATOM     38  H   UNL     1      14.426   9.956  14.182  0.00  0.00    +0.148 HD
BRANCH   9   1
ATOM      1  S   UNL     1      14.088  12.302  14.156  0.00  0.00    +0.077 S 
ATOM      4  O   UNL     1      13.953  13.160  15.318  0.00  0.00    -0.152 OA
ATOM      5  O   UNL     1      13.314  12.569  12.958  0.00  0.00    -0.152 OA
BRANCH   1  23
ATOM     11  N   UNL     1      16.807  12.247  14.602  0.00  0.00    -0.216 NA
ATOM     12  N   UNL     1      17.643  12.312  12.544  0.00  0.00    -0.338 N 
ATOM     23  C   UNL     1      15.790  12.295  13.680  0.00  0.00    +0.211 A 
ATOM     26  C   UNL     1      16.285  12.337  12.398  0.00  0.00    +0.135 A 
ATOM     29  C   UNL     1      17.909  12.258  13.884  0.00  0.00    +0.201 A 
ATOM     34  C   UNL     1      18.618  12.339  11.481  0.00  0.00    +0.150 C 
ENDBRANCH   1  23
ENDBRANCH   9   1
ENDBRANCH  14   9
TORSDOF 9
ENDMDL
MODEL 8
REMARK VINA RESULT:      -6.4     27.013     30.094
REMARK  Name = 44716830
REMARK  10 active torsions:
REMARK  status: ('A' for Active; 'I' for Inactive)
REMARK    1  A    between atoms: S_1  and  N_9
REMARK    2  A    between atoms: S_1  and  C_23
REMARK    3  A    between atoms: N_9  and  C_14
REMARK    4  A    between atoms: N_10  and  C_21
REMARK    5  A    between atoms: N_12  and  C_34
REMARK    6  A    between atoms: C_16  and  C_19
REMARK    7  A    between atoms: C_20  and  C_22
REMARK    8  A    between atoms: C_21  and  C_24
REMARK    9  A    between atoms: C_21  and  C_25
REMARK   10  A    between atoms: C_24  and  C_28
REMARK                            x       y       z     vdW  Elec       q    Type
REMARK                         _______ _______ _______ _____ _____    ______ ____
ROOT
ATOM      3  O   UNL     1      -7.539  -9.192  17.377  0.00  0.00    -0.267 OA
ATOM      8  N   UNL     1      -7.198 -10.450  15.428  0.00  0.00    -0.283 N 
ATOM     14  C   UNL     1      -8.246 -11.498  12.922  0.00  0.00    +0.080 C 
ATOM     15  C   UNL     1      -7.225 -12.296  13.735  0.00  0.00    +0.052 C 
ATOM     16  C   UNL     1      -6.388 -11.422  14.671  0.00  0.00    +0.164 C 
ATOM     17  C   UNL     1      -9.090 -10.616  13.837  0.00  0.00    +0.039 C 
ATOM     18  C   UNL     1      -8.204  -9.698  14.669  0.00  0.00    +0.110 C 
ATOM     20  C   UNL     1      -6.968 -10.093  16.764  0.00  0.00    +0.283 C 
ENDROOT
BRANCH  20  22
ATOM      6  O   UNL     1      -4.655 -10.565  17.304  0.00  0.00    -0.458 OA
ATOM     22  C   UNL     1      -5.966 -10.851  17.522  0.00  0.00    +0.189 A 
ATOM     27  C   UNL     1      -6.094 -11.848  18.461  0.00  0.00    +0.054 A 
ATOM     30  C   UNL     1      -4.778 -12.196  18.846  0.00  0.00    +0.042 A 
ATOM     31  C   UNL     1      -3.938 -11.388  18.114  0.00  0.00    +0.196 A 
ENDBRANCH  20  22
BRANCH  16  19
ATOM      2  O   UNL     1      -5.640  -9.709  13.184  0.00  0.00    -0.274 OA
ATOM     10  N   UNL     1      -4.065 -11.105  14.177  0.00  0.00    -0.302 N 
ATOM     19  C   UNL     1      -5.345 -10.638  13.930  0.00  0.00    +0.234 C 
ATOM     39  H   UNL     1      -3.924 -11.819  14.886  0.00  0.00    +0.150 HD
BRANCH  10  21
ATOM     21  C   UNL     1      -2.885 -10.537  13.567  0.00  0.00    +0.163 C 
BRANCH  21  25
ATOM      7  O   UNL     1      -1.082  -9.566  14.876  0.00  0.00    -0.274 OA
ATOM     13  N   UNL     1      -1.706 -11.735  15.304  0.00  0.00    -0.328 N 
ATOM     25  C   UNL     1      -1.789 -10.539  14.623  0.00  0.00    +0.231 C 
ATOM     40  H   UNL     1      -1.025 -11.866  16.045  0.00  0.00    +0.145 HD
ATOM     41  H   UNL     1      -2.312 -12.522  15.100  0.00  0.00    +0.145 HD
ENDBRANCH  21  25
BRANCH  21  24
ATOM     24  C   UNL     1      -2.435 -11.324  12.330  0.00  0.00    +0.067 C 
BRANCH  24  28
ATOM     28  C   UNL     1      -3.127 -10.871  11.068  0.00  0.00    -0.045 A 
ATOM     32  C   UNL     1      -3.808 -11.796  10.276  0.00  0.00    +0.004 A 
ATOM     33  C   UNL     1      -3.084  -9.529  10.692  0.00  0.00    +0.004 A 
ATOM     35  C   UNL     1      -4.447 -11.378   9.109  0.00  0.00    +0.000 A 
ATOM     36  C   UNL     1      -3.723  -9.112   9.524  0.00  0.00    +0.000 A 
ATOM     37  C   UNL     1      -4.404 -10.037   8.732  0.00  0.00    +0.000 A 
ENDBRANCH  24  28
ENDBRANCH  21  24
ENDBRANCH  10  21
ENDBRANCH  16  19
BRANCH  14   9
ATOM      9  N   UNL     1      -9.133 -12.433  12.190  0.00  0.00    -0.185 NA
ATOM     38  H   UNL     1      -9.436 -13.265  12.712  0.00  0.00    +0.148 HD
BRANCH   9   1
ATOM      1  S   UNL     1      -9.060 -12.515  10.496  0.00  0.00    +0.077 S 
ATOM      4  O   UNL     1     -10.288 -13.095   9.986  0.00  0.00    -0.152 OA
ATOM      5  O   UNL     1      -7.776 -13.069  10.109  0.00  0.00    -0.152 OA
BRANCH   1  23
ATOM     11  N   UNL     1     -10.112  -9.978  10.272  0.00  0.00    -0.216 NA
ATOM     12  N   UNL     1      -8.462  -8.845   9.308  0.00  0.00    -0.338 N 
ATOM     23  C   UNL     1      -9.039 -10.805  10.048  0.00  0.00    +0.211 A 
ATOM     26  C   UNL     1      -8.005 -10.124   9.451  0.00  0.00    +0.135 A 
ATOM     29  C   UNL     1      -9.731  -8.805   9.815  0.00  0.00    +0.201 A 
ATOM     34  C   UNL     1      -7.740  -7.739   8.728  0.00  0.00    +0.150 C 
ENDBRANCH   1  23
ENDBRANCH   9   1
ENDBRANCH  14   9
TORSDOF 9
ENDMDL
MODEL 9
REMARK VINA RESULT:      -6.4     12.035     16.782
REMARK  Name = 44716830
REMARK  10 active torsions:
REMARK  status: ('A' for Active; 'I' for Inactive)
REMARK    1  A    between atoms: S_1  and  N_9
REMARK    2  A    between atoms: S_1  and  C_23
REMARK    3  A    between atoms: N_9  and  C_14
REMARK    4  A    between atoms: N_10  and  C_21
REMARK    5  A    between atoms: N_12  and  C_34
REMARK    6  A    between atoms: C_16  and  C_19
REMARK    7  A    between atoms: C_20  and  C_22
REMARK    8  A    between atoms: C_21  and  C_24
REMARK    9  A    between atoms: C_21  and  C_25
REMARK   10  A    between atoms: C_24  and  C_28
REMARK                            x       y       z     vdW  Elec       q    Type
REMARK                         _______ _______ _______ _____ _____    ______ ____
ROOT
ATOM      3  O   UNL     1      11.357   6.516   0.175  0.00  0.00    -0.267 OA
ATOM      8  N   UNL     1      11.681   7.029   2.440  0.00  0.00    -0.283 N 
ATOM     14  C   UNL     1      11.784   9.030   4.552  0.00  0.00    +0.080 C 
ATOM     15  C   UNL     1      12.691   7.798   4.599  0.00  0.00    +0.052 C 
ATOM     16  C   UNL     1      12.153   6.626   3.777  0.00  0.00    +0.164 C 
ATOM     17  C   UNL     1      11.461   9.405   3.109  0.00  0.00    +0.039 C 
ATOM     18  C   UNL     1      10.836   8.226   2.373  0.00  0.00    +0.110 C 
ATOM     20  C   UNL     1      11.855   6.271   1.273  0.00  0.00    +0.283 C 
ENDROOT
BRANCH  20  22
ATOM      6  O   UNL     1      12.095   3.867   1.438  0.00  0.00    -0.458 OA
ATOM     22  C   UNL     1      12.705   5.077   1.342  0.00  0.00    +0.189 A 
ATOM     27  C   UNL     1      14.073   4.930   1.327  0.00  0.00    +0.054 A 
ATOM     30  C   UNL     1      14.319   3.540   1.419  0.00  0.00    +0.042 A 
ATOM     31  C   UNL     1      13.084   2.936   1.484  0.00  0.00    +0.196 A 
ENDBRANCH  20  22
BRANCH  16  19
ATOM      2  O   UNL     1      10.364   5.049   3.906  0.00  0.00    -0.274 OA
ATOM     10  N   UNL     1      10.769   6.444   5.724  0.00  0.00    -0.302 N 
ATOM     19  C   UNL     1      11.005   5.939   4.456  0.00  0.00    +0.234 C 
ATOM     39  H   UNL     1      11.420   7.115   6.121  0.00  0.00    +0.150 HD
BRANCH  10  21
ATOM     21  C   UNL     1       9.704   5.969   6.578  0.00  0.00    +0.163 C 
BRANCH  21  25
ATOM      7  O   UNL     1       9.846   4.129   8.158  0.00  0.00    -0.274 OA
ATOM     13  N   UNL     1      11.585   5.628   8.057  0.00  0.00    -0.328 N 
ATOM     25  C   UNL     1      10.349   5.144   7.682  0.00  0.00    +0.231 C 
ATOM     40  H   UNL     1      12.130   5.161   8.776  0.00  0.00    +0.145 HD
ATOM     41  H   UNL     1      11.997   6.454   7.639  0.00  0.00    +0.145 HD
ENDBRANCH  21  25
BRANCH  21  24
ATOM     24  C   UNL     1       8.887   7.119   7.180  0.00  0.00    +0.067 C 
BRANCH  24  28
ATOM     28  C   UNL     1       8.553   8.189   6.169  0.00  0.00    -0.045 A 
ATOM     32  C   UNL     1       8.874   9.521   6.432  0.00  0.00    +0.004 A 
ATOM     33  C   UNL     1       7.923   7.847   4.974  0.00  0.00    +0.004 A 
ATOM     35  C   UNL     1       8.565  10.510   5.498  0.00  0.00    +0.000 A 
ATOM     36  C   UNL     1       7.614   8.836   4.040  0.00  0.00    +0.000 A 
ATOM     37  C   UNL     1       7.935  10.168   4.303  0.00  0.00    +0.000 A 
ENDBRANCH  24  28
ENDBRANCH  21  24
ENDBRANCH  10  21
ENDBRANCH  16  19
BRANCH  14   9
ATOM      9  N   UNL     1      12.466  10.169   5.213  0.00  0.00    -0.185 NA
ATOM     38  H   UNL     1      13.005  10.788   4.595  0.00  0.00    +0.148 HD
BRANCH   9   1
ATOM      1  S   UNL     1      12.915  10.053   6.846  0.00  0.00    +0.077 S 
ATOM      4  O   UNL     1      14.295  10.473   6.999  0.00  0.00    -0.152 OA
ATOM      5  O   UNL     1      12.483   8.766   7.359  0.00  0.00    -0.152 OA
BRANCH   1  23
ATOM     11  N   UNL     1      11.430  12.374   6.903  0.00  0.00    -0.216 NA
ATOM     12  N   UNL     1      10.687  12.429   8.996  0.00  0.00    -0.338 N 
ATOM     23  C   UNL     1      11.886  11.279   7.596  0.00  0.00    +0.211 A 
ATOM     26  C   UNL     1      11.438  11.293   8.896  0.00  0.00    +0.135 A 
ATOM     29  C   UNL     1      10.710  13.045   7.776  0.00  0.00    +0.201 A 
ATOM     34  C   UNL     1       9.995  12.896  10.173  0.00  0.00    +0.150 C 
ENDBRANCH   1  23
ENDBRANCH   9   1
ENDBRANCH  14   9
TORSDOF 9
ENDMDL
MODEL 10
REMARK VINA RESULT:      -6.4     27.169     30.371
REMARK  Name = 44716830
REMARK  10 active torsions:
REMARK  status: ('A' for Active; 'I' for Inactive)
REMARK    1  A    between atoms: S_1  and  N_9
REMARK    2  A    between atoms: S_1  and  C_23
REMARK    3  A    between atoms: N_9  and  C_14
REMARK    4  A    between atoms: N_10  and  C_21
REMARK    5  A    between atoms: N_12  and  C_34
REMARK    6  A    between atoms: C_16  and  C_19
REMARK    7  A    between atoms: C_20  and  C_22
REMARK    8  A    between atoms: C_21  and  C_24
REMARK    9  A    between atoms: C_21  and  C_25
REMARK   10  A    between atoms: C_24  and  C_28
REMARK                            x       y       z     vdW  Elec       q    Type
REMARK                         _______ _______ _______ _____ _____    ______ ____
ROOT
ATOM      3  O   UNL     1      -4.378 -12.264   9.743  0.00  0.00    -0.267 OA
ATOM      8  N   UNL     1      -5.645 -11.154  11.374  0.00  0.00    -0.283 N 
ATOM     14  C   UNL     1      -8.255 -10.353  12.387  0.00  0.00    +0.080 C 
ATOM     15  C   UNL     1      -7.034  -9.452  12.578  0.00  0.00    +0.052 C 
ATOM     16  C   UNL     1      -5.709 -10.213  12.508  0.00  0.00    +0.164 C 
ATOM     17  C   UNL     1      -8.109 -11.193  11.121  0.00  0.00    +0.039 C 
ATOM     18  C   UNL     1      -6.820 -12.004  11.157  0.00  0.00    +0.110 C 
ATOM     20  C   UNL     1      -4.498 -11.392  10.603  0.00  0.00    +0.283 C 
ENDROOT
BRANCH  20  22
ATOM      6  O   UNL     1      -2.427 -10.916  11.764  0.00  0.00    -0.458 OA
ATOM     22  C   UNL     1      -3.327 -10.535  10.819  0.00  0.00    +0.189 A 
ATOM     27  C   UNL     1      -2.934  -9.360  10.222  0.00  0.00    +0.054 A 
ATOM     30  C   UNL     1      -1.715  -8.995  10.839  0.00  0.00    +0.042 A 
ATOM     31  C   UNL     1      -1.449  -9.973  11.770  0.00  0.00    +0.196 A 
ENDBRANCH  20  22
BRANCH  16  19
ATOM      2  O   UNL     1      -6.259 -11.827  14.180  0.00  0.00    -0.274 OA
ATOM     10  N   UNL     1      -4.232 -10.694  14.333  0.00  0.00    -0.302 N 
ATOM     19  C   UNL     1      -5.448 -11.011  13.752  0.00  0.00    +0.234 C 
ATOM     39  H   UNL     1      -3.594 -10.072  13.844  0.00  0.00    +0.150 HD
BRANCH  10  21
ATOM     21  C   UNL     1      -3.755 -11.305  15.553  0.00  0.00    +0.163 C 
BRANCH  21  25
ATOM      7  O   UNL     1      -1.421 -10.816  16.019  0.00  0.00    -0.274 OA
ATOM     13  N   UNL     1      -1.917 -12.511  14.550  0.00  0.00    -0.328 N 
ATOM     25  C   UNL     1      -2.251 -11.483  15.406  0.00  0.00    +0.231 C 
ATOM     40  H   UNL     1      -0.945 -12.746  14.373  0.00  0.00    +0.145 HD
ATOM     41  H   UNL     1      -2.614 -13.069  14.068  0.00  0.00    +0.145 HD
ENDBRANCH  21  25
BRANCH  21  24
ATOM     24  C   UNL     1      -4.074 -10.456  16.789  0.00  0.00    +0.067 C 
BRANCH  24  28
ATOM     28  C   UNL     1      -5.106 -11.095  17.686  0.00  0.00    -0.045 A 
ATOM     32  C   UNL     1      -5.551 -12.390  17.423  0.00  0.00    +0.004 A 
ATOM     33  C   UNL     1      -5.615 -10.391  18.776  0.00  0.00    +0.004 A 
ATOM     35  C   UNL     1      -6.506 -12.982  18.251  0.00  0.00    +0.000 A 
ATOM     36  C   UNL     1      -6.569 -10.982  19.604  0.00  0.00    +0.000 A 
ATOM     37  C   UNL     1      -7.015 -12.278  19.341  0.00  0.00    +0.000 A 
ENDBRANCH  24  28
ENDBRANCH  21  24
ENDBRANCH  10  21
ENDBRANCH  16  19
BRANCH  14   9
ATOM      9  N   UNL     1      -9.474  -9.516  12.281  0.00  0.00    -0.185 NA
ATOM     38  H   UNL     1      -9.320  -8.529  12.042  0.00  0.00    +0.148 HD
BRANCH   9   1
ATOM      1  S   UNL     1     -10.865  -9.937  13.159  0.00  0.00    +0.077 S 
ATOM      4  O   UNL     1     -11.072 -11.370  13.080  0.00  0.00    -0.152 OA
ATOM      5  O   UNL     1     -11.936  -9.024  12.804  0.00  0.00    -0.152 OA
BRANCH   1  23
ATOM     11  N   UNL     1      -9.751  -8.370  15.135  0.00  0.00    -0.216 NA
ATOM     12  N   UNL     1     -10.034  -9.606  16.959  0.00  0.00    -0.338 N 
ATOM     23  C   UNL     1     -10.384  -9.547  14.815  0.00  0.00    +0.211 A 
ATOM     26  C   UNL     1     -10.569 -10.329  15.931  0.00  0.00    +0.135 A 
ATOM     29  C   UNL     1      -9.556  -8.438  16.433  0.00  0.00    +0.201 A 
ATOM     34  C   UNL     1      -9.983 -10.002  18.345  0.00  0.00    +0.150 C 
ENDBRANCH   1  23
ENDBRANCH   9   1
ENDBRANCH  14   9
TORSDOF 9
ENDMDL
