MODEL 1
REMARK VINA RESULT:      -7.4      0.000      0.000
REMARK  Name = 40779690
REMARK  8 active torsions:
REMARK  status: ('A' for Active; 'I' for Inactive)
REMARK    1  A    between atoms: N_6  and  C_15
REMARK    2  A    between atoms: N_7  and  C_16
REMARK    3  A    between atoms: C_9  and  C_15
REMARK    4  A    between atoms: C_11  and  C_16
REMARK    5  A    between atoms: C_19  and  C_22
REMARK    6  A    between atoms: C_22  and  C_24
REMARK    7  A    between atoms: C_23  and  C_25
REMARK    8  A    between atoms: C_35  and  C_36
REMARK                            x       y       z     vdW  Elec       q    Type
REMARK                         _______ _______ _______ _____ _____    ______ ____
ROOT
ATOM      5  N   UNL     1       8.986   8.143   6.839  0.00  0.00    -0.298 NA
ATOM      8  C   UNL     1      10.113   5.803   6.985  0.00  0.00    -0.003 C 
ATOM      9  C   UNL     1      11.161   6.903   6.705  0.00  0.00    +0.020 C 
ATOM     10  C   UNL     1       9.036   5.833   5.884  0.00  0.00    +0.024 C 
ATOM     11  C   UNL     1       8.297   7.188   5.930  0.00  0.00    +0.074 C 
ATOM     12  C   UNL     1      10.424   8.243   6.486  0.00  0.00    +0.089 C 
ATOM     13  C   UNL     1       9.420   6.171   8.310  0.00  0.00    +0.019 C 
ATOM     14  C   UNL     1       8.886   7.612   8.221  0.00  0.00    +0.085 C 
ENDROOT
BRANCH   9  15
ATOM     15  C   UNL     1      12.086   6.571   5.537  0.00  0.00    +0.089 C 
BRANCH  15   6
ATOM      6  N   UNL     1      13.230   7.481   5.500  0.00  0.00    -0.302 NA
ATOM     17  C   UNL     1      13.751   7.597   4.132  0.00  0.00    +0.084 C 
ATOM     18  C   UNL     1      14.276   7.032   6.429  0.00  0.00    +0.084 C 
ATOM     19  C   UNL     1      16.035   8.197   5.036  0.00  0.00    -0.004 C 
ATOM     20  C   UNL     1      14.915   8.588   4.066  0.00  0.00    +0.019 C 
ATOM     21  C   UNL     1      15.458   8.003   6.443  0.00  0.00    +0.019 C 
BRANCH  19  22
ATOM     22  C   UNL     1      17.147   9.242   5.039  0.00  0.00    +0.038 C 
BRANCH  22  24
ATOM     24  C   UNL     1      18.491   8.621   5.302  0.00  0.00    -0.047 A 
ATOM     26  C   UNL     1      19.111   8.796   6.539  0.00  0.00    +0.003 A 
ATOM     27  C   UNL     1      19.119   7.870   4.307  0.00  0.00    +0.003 A 
ATOM     30  C   UNL     1      20.358   8.219   6.783  0.00  0.00    +0.000 A 
ATOM     31  C   UNL     1      20.366   7.294   4.551  0.00  0.00    +0.000 A 
ATOM     32  C   UNL     1      20.985   7.469   5.788  0.00  0.00    +0.000 A 
ENDBRANCH  22  24
ENDBRANCH  19  22
ENDBRANCH  15   6
ENDBRANCH   9  15
BRANCH  11  16
ATOM     16  C   UNL     1       8.083   7.767   4.530  0.00  0.00    +0.123 C 
BRANCH  16   7
ATOM      4  O   UNL     1      10.350   8.478   2.918  0.00  0.00    -0.270 OA
ATOM      7  N   UNL     1       8.727   6.938   3.525  0.00  0.00    -0.310 N 
ATOM     23  C   UNL     1       9.818   7.377   2.800  0.00  0.00    +0.244 C 
ATOM     37  H   UNL     1       8.294   6.041   3.330  0.00  0.00    +0.149 HD
BRANCH  23  25
ATOM     25  C   UNL     1      10.344   6.421   1.793  0.00  0.00    +0.037 A 
ATOM     28  C   UNL     1      10.229   6.708   0.432  0.00  0.00    +0.013 A 
ATOM     29  C   UNL     1      10.951   5.234   2.206  0.00  0.00    +0.013 A 
ATOM     33  C   UNL     1      10.722   5.810  -0.515  0.00  0.00    +0.013 A 
ATOM     34  C   UNL     1      11.444   4.337   1.259  0.00  0.00    +0.013 A 
ATOM     35  C   UNL     1      11.330   4.624  -0.102  0.00  0.00    +0.055 A 
BRANCH  35  36
ATOM      1  F   UNL     1      12.543   4.262  -2.130  0.00  0.00    -0.166 F 
ATOM      2  F   UNL     1      10.867   2.942  -1.716  0.00  0.00    -0.166 F 
ATOM      3  F   UNL     1      12.720   2.741  -0.594  0.00  0.00    -0.166 F 
ATOM     36  C   UNL     1      11.856   3.663  -1.113  0.00  0.00    +0.417 C 
ENDBRANCH  35  36
ENDBRANCH  23  25
ENDBRANCH  16   7
ENDBRANCH  11  16
TORSDOF 8
ENDMDL
MODEL 2
REMARK VINA RESULT:      -7.4     30.589     35.279
REMARK  Name = 40779690
REMARK  8 active torsions:
REMARK  status: ('A' for Active; 'I' for Inactive)
REMARK    1  A    between atoms: N_6  and  C_15
REMARK    2  A    between atoms: N_7  and  C_16
REMARK    3  A    between atoms: C_9  and  C_15
REMARK    4  A    between atoms: C_11  and  C_16
REMARK    5  A    between atoms: C_19  and  C_22
REMARK    6  A    between atoms: C_22  and  C_24
REMARK    7  A    between atoms: C_23  and  C_25
REMARK    8  A    between atoms: C_35  and  C_36
REMARK                            x       y       z     vdW  Elec       q    Type
REMARK                         _______ _______ _______ _____ _____    ______ ____
ROOT
ATOM      5  N   UNL     1     -17.639   2.911  24.034  0.00  0.00    -0.298 NA
ATOM      8  C   UNL     1     -18.288   4.376  21.985  0.00  0.00    -0.003 C 
ATOM      9  C   UNL     1     -16.861   4.711  22.472  0.00  0.00    +0.020 C 
ATOM     10  C   UNL     1     -19.282   4.572  23.146  0.00  0.00    +0.024 C 
ATOM     11  C   UNL     1     -18.944   3.581  24.281  0.00  0.00    +0.074 C 
ATOM     12  C   UNL     1     -16.584   3.920  23.770  0.00  0.00    +0.089 C 
ATOM     13  C   UNL     1     -18.299   2.878  21.626  0.00  0.00    +0.019 C 
ATOM     14  C   UNL     1     -17.781   2.064  22.825  0.00  0.00    +0.085 C 
ENDROOT
BRANCH   9  15
ATOM     15  C   UNL     1     -16.624   6.207  22.662  0.00  0.00    +0.089 C 
BRANCH  15   6
ATOM      6  N   UNL     1     -15.214   6.542  22.474  0.00  0.00    -0.302 NA
ATOM     17  C   UNL     1     -15.079   7.838  21.796  0.00  0.00    +0.084 C 
ATOM     18  C   UNL     1     -14.527   5.480  21.726  0.00  0.00    +0.084 C 
ATOM     19  C   UNL     1     -12.821   7.149  20.891  0.00  0.00    -0.004 C 
ATOM     20  C   UNL     1     -13.609   8.230  21.639  0.00  0.00    +0.019 C 
ATOM     21  C   UNL     1     -13.037   5.790  21.567  0.00  0.00    +0.019 C 
BRANCH  19  22
ATOM     22  C   UNL     1     -11.337   7.498  20.826  0.00  0.00    +0.038 C 
BRANCH  22  24
ATOM     24  C   UNL     1     -10.984   8.179  19.533  0.00  0.00    -0.047 A 
ATOM     26  C   UNL     1     -10.427   9.458  19.547  0.00  0.00    +0.003 A 
ATOM     27  C   UNL     1     -11.213   7.532  18.318  0.00  0.00    +0.003 A 
ATOM     30  C   UNL     1     -10.099  10.090  18.347  0.00  0.00    +0.000 A 
ATOM     31  C   UNL     1     -10.885   8.164  17.119  0.00  0.00    +0.000 A 
ATOM     32  C   UNL     1     -10.328   9.442  17.133  0.00  0.00    +0.000 A 
ENDBRANCH  22  24
ENDBRANCH  19  22
ENDBRANCH  15   6
ENDBRANCH   9  15
BRANCH  11  16
ATOM     16  C   UNL     1     -19.006   4.249  25.656  0.00  0.00    +0.123 C 
BRANCH  16   7
ATOM      4  O   UNL     1     -17.153   5.445  27.494  0.00  0.00    -0.270 OA
ATOM      7  N   UNL     1     -18.155   3.552  26.607  0.00  0.00    -0.310 N 
ATOM     23  C   UNL     1     -17.294   4.226  27.451  0.00  0.00    +0.244 C 
ATOM     37  H   UNL     1     -18.173   2.539  26.576  0.00  0.00    +0.149 HD
BRANCH  23  25
ATOM     25  C   UNL     1     -16.473   3.369  28.344  0.00  0.00    +0.037 A 
ATOM     28  C   UNL     1     -16.610   1.980  28.297  0.00  0.00    +0.013 A 
ATOM     29  C   UNL     1     -15.567   3.950  29.232  0.00  0.00    +0.013 A 
ATOM     33  C   UNL     1     -15.839   1.175  29.137  0.00  0.00    +0.013 A 
ATOM     34  C   UNL     1     -14.797   3.145  30.071  0.00  0.00    +0.013 A 
ATOM     35  C   UNL     1     -14.934   1.757  30.024  0.00  0.00    +0.055 A 
BRANCH  35  36
ATOM      1  F   UNL     1     -14.851   0.048  31.696  0.00  0.00    -0.166 F 
ATOM      2  F   UNL     1     -13.355   1.622  31.795  0.00  0.00    -0.166 F 
ATOM      3  F   UNL     1     -13.230   0.093  30.254  0.00  0.00    -0.166 F 
ATOM     36  C   UNL     1     -14.111   0.896  30.922  0.00  0.00    +0.417 C 
ENDBRANCH  35  36
ENDBRANCH  23  25
ENDBRANCH  16   7
ENDBRANCH  11  16
TORSDOF 8
ENDMDL
MODEL 3
REMARK VINA RESULT:      -7.3     24.558     26.873
REMARK  Name = 40779690
REMARK  8 active torsions:
REMARK  status: ('A' for Active; 'I' for Inactive)
REMARK    1  A    between atoms: N_6  and  C_15
REMARK    2  A    between atoms: N_7  and  C_16
REMARK    3  A    between atoms: C_9  and  C_15
REMARK    4  A    between atoms: C_11  and  C_16
REMARK    5  A    between atoms: C_19  and  C_22
REMARK    6  A    between atoms: C_22  and  C_24
REMARK    7  A    between atoms: C_23  and  C_25
REMARK    8  A    between atoms: C_35  and  C_36
REMARK                            x       y       z     vdW  Elec       q    Type
REMARK                         _______ _______ _______ _____ _____    ______ ____
ROOT
ATOM      5  N   UNL     1      -8.995  -9.720   7.826  0.00  0.00    -0.298 NA
ATOM      8  C   UNL     1      -7.282 -11.268   6.629  0.00  0.00    -0.003 C 
ATOM      9  C   UNL     1      -6.633 -10.561   7.840  0.00  0.00    +0.020 C 
ATOM     10  C   UNL     1      -7.844 -10.211   5.662  0.00  0.00    +0.024 C 
ATOM     11  C   UNL     1      -8.959  -9.411   6.372  0.00  0.00    +0.074 C 
ATOM     12  C   UNL     1      -7.647  -9.551   8.422  0.00  0.00    +0.089 C 
ATOM     13  C   UNL     1      -8.478 -12.074   7.169  0.00  0.00    +0.019 C 
ATOM     14  C   UNL     1      -9.393 -11.141   7.982  0.00  0.00    +0.085 C 
ENDROOT
BRANCH   9  15
ATOM     15  C   UNL     1      -5.301  -9.893   7.505  0.00  0.00    +0.089 C 
BRANCH  15   6
ATOM      6  N   UNL     1      -4.297 -10.190   8.525  0.00  0.00    -0.302 NA
ATOM     17  C   UNL     1      -4.725 -11.325   9.353  0.00  0.00    +0.084 C 
ATOM     18  C   UNL     1      -4.032  -9.003   9.349  0.00  0.00    +0.084 C 
ATOM     19  C   UNL     1      -3.310 -10.480  11.271  0.00  0.00    -0.004 C 
ATOM     20  C   UNL     1      -3.660 -11.685  10.391  0.00  0.00    +0.019 C 
ATOM     21  C   UNL     1      -2.943  -9.282  10.387  0.00  0.00    +0.019 C 
BRANCH  19  22
ATOM     22  C   UNL     1      -2.177 -10.816  12.236  0.00  0.00    +0.038 C 
BRANCH  22  24
ATOM     24  C   UNL     1      -2.626 -10.731  13.669  0.00  0.00    -0.047 A 
ATOM     26  C   UNL     1      -1.683 -10.607  14.690  0.00  0.00    +0.003 A 
ATOM     27  C   UNL     1      -3.986 -10.778  13.979  0.00  0.00    +0.003 A 
ATOM     30  C   UNL     1      -2.099 -10.528  16.019  0.00  0.00    +0.000 A 
ATOM     31  C   UNL     1      -4.402 -10.699  15.308  0.00  0.00    +0.000 A 
ATOM     32  C   UNL     1      -3.459 -10.574  16.327  0.00  0.00    +0.000 A 
ENDBRANCH  22  24
ENDBRANCH  19  22
ENDBRANCH  15   6
ENDBRANCH   9  15
BRANCH  11  16
ATOM     16  C   UNL     1      -8.845  -7.910   6.097  0.00  0.00    +0.123 C 
BRANCH  16   7
ATOM      4  O   UNL     1      -7.981  -6.002   8.061  0.00  0.00    -0.270 OA
ATOM      7  N   UNL     1      -9.693  -7.154   7.004  0.00  0.00    -0.310 N 
ATOM     23  C   UNL     1      -9.174  -6.256   7.917  0.00  0.00    +0.244 C 
ATOM     37  H   UNL     1     -10.684  -7.366   6.984  0.00  0.00    +0.149 HD
BRANCH  23  25
ATOM     25  C   UNL     1     -10.170  -5.583   8.790  0.00  0.00    +0.037 A 
ATOM     28  C   UNL     1     -10.207  -4.189   8.860  0.00  0.00    +0.013 A 
ATOM     29  C   UNL     1     -11.068  -6.343   9.540  0.00  0.00    +0.013 A 
ATOM     33  C   UNL     1     -11.143  -3.558   9.681  0.00  0.00    +0.013 A 
ATOM     34  C   UNL     1     -12.002  -5.711  10.360  0.00  0.00    +0.013 A 
ATOM     35  C   UNL     1     -12.040  -4.318  10.430  0.00  0.00    +0.055 A 
BRANCH  35  36
ATOM      1  F   UNL     1     -13.869  -2.791  10.637  0.00  0.00    -0.166 F 
ATOM      2  F   UNL     1     -12.455  -2.889  12.284  0.00  0.00    -0.166 F 
ATOM      3  F   UNL     1     -13.869  -4.510  11.960  0.00  0.00    -0.166 F 
ATOM     36  C   UNL     1     -13.039  -3.643  11.308  0.00  0.00    +0.417 C 
ENDBRANCH  35  36
ENDBRANCH  23  25
ENDBRANCH  16   7
ENDBRANCH  11  16
TORSDOF 8
ENDMDL
MODEL 4
REMARK VINA RESULT:      -7.2      4.552      8.398
REMARK  Name = 40779690
REMARK  8 active torsions:
REMARK  status: ('A' for Active; 'I' for Inactive)
REMARK    1  A    between atoms: N_6  and  C_15
REMARK    2  A    between atoms: N_7  and  C_16
REMARK    3  A    between atoms: C_9  and  C_15
REMARK    4  A    between atoms: C_11  and  C_16
REMARK    5  A    between atoms: C_19  and  C_22
REMARK    6  A    between atoms: C_22  and  C_24
REMARK    7  A    between atoms: C_23  and  C_25
REMARK    8  A    between atoms: C_35  and  C_36
REMARK                            x       y       z     vdW  Elec       q    Type
REMARK                         _______ _______ _______ _____ _____    ______ ____
ROOT
ATOM      5  N   UNL     1      15.033   6.037   0.360  0.00  0.00    -0.298 NA
ATOM      8  C   UNL     1      13.990   3.672   0.649  0.00  0.00    -0.003 C 
ATOM      9  C   UNL     1      13.248   4.470  -0.446  0.00  0.00    +0.020 C 
ATOM     10  C   UNL     1      13.951   4.461   1.971  0.00  0.00    +0.024 C 
ATOM     11  C   UNL     1      14.707   5.796   1.791  0.00  0.00    +0.074 C 
ATOM     12  C   UNL     1      13.812   5.909  -0.475  0.00  0.00    +0.089 C 
ATOM     13  C   UNL     1      15.465   3.581   0.217  0.00  0.00    +0.019 C 
ATOM     14  C   UNL     1      15.998   4.996  -0.071  0.00  0.00    +0.085 C 
ENDROOT
BRANCH   9  15
ATOM     15  C   UNL     1      11.731   4.464  -0.274  0.00  0.00    +0.089 C 
BRANCH  15   6
ATOM      6  N   UNL     1      11.262   5.734   0.277  0.00  0.00    -0.302 NA
ATOM     17  C   UNL     1      10.553   5.513   1.545  0.00  0.00    +0.084 C 
ATOM     18  C   UNL     1      10.407   6.432  -0.693  0.00  0.00    +0.084 C 
ATOM     19  C   UNL     1       9.228   7.637   1.192  0.00  0.00    -0.004 C 
ATOM     20  C   UNL     1      10.102   6.837   2.164  0.00  0.00    +0.019 C 
ATOM     21  C   UNL     1       9.951   7.789  -0.151  0.00  0.00    +0.019 C 
BRANCH  19  22
ATOM     22  C   UNL     1       8.864   9.000   1.776  0.00  0.00    +0.038 C 
BRANCH  22  24
ATOM     24  C   UNL     1       8.887   8.983   3.279  0.00  0.00    -0.047 A 
ATOM     26  C   UNL     1       9.836   9.737   3.971  0.00  0.00    +0.003 A 
ATOM     27  C   UNL     1       7.960   8.214   3.983  0.00  0.00    +0.003 A 
ATOM     30  C   UNL     1       9.857   9.723   5.365  0.00  0.00    +0.000 A 
ATOM     31  C   UNL     1       7.981   8.199   5.377  0.00  0.00    +0.000 A 
ATOM     32  C   UNL     1       8.930   8.953   6.068  0.00  0.00    +0.000 A 
ENDBRANCH  22  24
ENDBRANCH  19  22
ENDBRANCH  15   6
ENDBRANCH   9  15
BRANCH  11  16
ATOM     16  C   UNL     1      13.951   6.967   2.423  0.00  0.00    +0.123 C 
BRANCH  16   7
ATOM      4  O   UNL     1      13.131   8.544   4.677  0.00  0.00    -0.270 OA
ATOM      7  N   UNL     1      13.153   6.518   3.551  0.00  0.00    -0.310 N 
ATOM     23  C   UNL     1      12.812   7.361   4.590  0.00  0.00    +0.244 C 
ATOM     37  H   UNL     1      12.912   5.533   3.575  0.00  0.00    +0.149 HD
BRANCH  23  25
ATOM     25  C   UNL     1      12.014   6.742   5.681  0.00  0.00    +0.037 A 
ATOM     28  C   UNL     1      10.909   5.948   5.372  0.00  0.00    +0.013 A 
ATOM     29  C   UNL     1      12.368   6.957   7.013  0.00  0.00    +0.013 A 
ATOM     33  C   UNL     1      10.160   5.368   6.396  0.00  0.00    +0.013 A 
ATOM     34  C   UNL     1      11.619   6.377   8.036  0.00  0.00    +0.013 A 
ATOM     35  C   UNL     1      10.515   5.582   7.728  0.00  0.00    +0.055 A 
BRANCH  35  36
ATOM      1  F   UNL     1       9.469   3.632   8.636  0.00  0.00    -0.166 F 
ATOM      2  F   UNL     1       8.487   5.542   8.967  0.00  0.00    -0.166 F 
ATOM      3  F   UNL     1      10.307   5.046  10.050  0.00  0.00    -0.166 F 
ATOM     36  C   UNL     1       9.713   4.962   8.822  0.00  0.00    +0.417 C 
ENDBRANCH  35  36
ENDBRANCH  23  25
ENDBRANCH  16   7
ENDBRANCH  11  16
TORSDOF 8
ENDMDL
MODEL 5
REMARK VINA RESULT:      -7.2     24.477     27.409
REMARK  Name = 40779690
REMARK  8 active torsions:
REMARK  status: ('A' for Active; 'I' for Inactive)
REMARK    1  A    between atoms: N_6  and  C_15
REMARK    2  A    between atoms: N_7  and  C_16
REMARK    3  A    between atoms: C_9  and  C_15
REMARK    4  A    between atoms: C_11  and  C_16
REMARK    5  A    between atoms: C_19  and  C_22
REMARK    6  A    between atoms: C_22  and  C_24
REMARK    7  A    between atoms: C_23  and  C_25
REMARK    8  A    between atoms: C_35  and  C_36
REMARK                            x       y       z     vdW  Elec       q    Type
REMARK                         _______ _______ _______ _____ _____    ______ ____
ROOT
ATOM      5  N   UNL     1      -7.347 -10.767  16.929  0.00  0.00    -0.298 NA
ATOM      8  C   UNL     1      -5.757 -11.468  18.865  0.00  0.00    -0.003 C 
ATOM      9  C   UNL     1      -5.013 -10.596  17.829  0.00  0.00    +0.020 C 
ATOM     10  C   UNL     1      -6.350 -12.702  18.160  0.00  0.00    +0.024 C 
ATOM     11  C   UNL     1      -7.394 -12.242  17.118  0.00  0.00    +0.074 C 
ATOM     12  C   UNL     1      -5.959 -10.331  16.637  0.00  0.00    +0.089 C 
ATOM     13  C   UNL     1      -6.939 -10.631  19.389  0.00  0.00    +0.019 C 
ATOM     14  C   UNL     1      -7.774 -10.129  18.198  0.00  0.00    +0.085 C 
ENDROOT
BRANCH   9  15
ATOM     15  C   UNL     1      -3.687 -11.200  17.373  0.00  0.00    +0.089 C 
BRANCH  15   6
ATOM      6  N   UNL     1      -3.282 -10.655  16.078  0.00  0.00    -0.302 NA
ATOM     17  C   UNL     1      -3.880 -11.431  14.984  0.00  0.00    +0.084 C 
ATOM     18  C   UNL     1      -1.817 -10.625  15.968  0.00  0.00    +0.084 C 
ATOM     19  C   UNL     1      -1.990 -10.750  13.448  0.00  0.00    -0.004 C 
ATOM     20  C   UNL     1      -3.510 -10.841  13.622  0.00  0.00    +0.019 C 
ATOM     21  C   UNL     1      -1.376 -10.007  14.639  0.00  0.00    +0.019 C 
BRANCH  19  22
ATOM     22  C   UNL     1      -1.628 -10.069  12.131  0.00  0.00    +0.038 C 
BRANCH  22  24
ATOM     24  C   UNL     1      -2.664 -10.325  11.071  0.00  0.00    -0.047 A 
ATOM     26  C   UNL     1      -3.164 -11.613  10.880  0.00  0.00    +0.003 A 
ATOM     27  C   UNL     1      -3.124  -9.274  10.278  0.00  0.00    +0.003 A 
ATOM     30  C   UNL     1      -4.125 -11.850   9.898  0.00  0.00    +0.000 A 
ATOM     31  C   UNL     1      -4.085  -9.511   9.295  0.00  0.00    +0.000 A 
ATOM     32  C   UNL     1      -4.585 -10.799   9.105  0.00  0.00    +0.000 A 
ENDBRANCH  22  24
ENDBRANCH  19  22
ENDBRANCH  15   6
ENDBRANCH   9  15
BRANCH  11  16
ATOM     16  C   UNL     1      -7.256 -13.005  15.799  0.00  0.00    +0.123 C 
BRANCH  16   7
ATOM      4  O   UNL     1      -6.322 -13.430  13.118  0.00  0.00    -0.270 OA
ATOM      7  N   UNL     1      -7.436 -12.112  14.666  0.00  0.00    -0.310 N 
ATOM     23  C   UNL     1      -6.944 -12.412  13.410  0.00  0.00    +0.244 C 
ATOM     37  H   UNL     1      -7.883 -11.222  14.855  0.00  0.00    +0.149 HD
BRANCH  23  25
ATOM     25  C   UNL     1      -7.188 -11.385  12.365  0.00  0.00    +0.037 A 
ATOM     28  C   UNL     1      -6.705 -10.087  12.537  0.00  0.00    +0.013 A 
ATOM     29  C   UNL     1      -7.902 -11.716  11.213  0.00  0.00    +0.013 A 
ATOM     33  C   UNL     1      -6.935  -9.122  11.556  0.00  0.00    +0.013 A 
ATOM     34  C   UNL     1      -8.132 -10.751  10.233  0.00  0.00    +0.013 A 
ATOM     35  C   UNL     1      -7.648  -9.454  10.404  0.00  0.00    +0.055 A 
BRANCH  35  36
ATOM      1  F   UNL     1      -8.125  -8.946   8.116  0.00  0.00    -0.166 F 
ATOM      2  F   UNL     1      -6.840  -7.570   9.201  0.00  0.00    -0.166 F 
ATOM      3  F   UNL     1      -8.975  -7.627   9.614  0.00  0.00    -0.166 F 
ATOM     36  C   UNL     1      -7.894  -8.422   9.356  0.00  0.00    +0.417 C 
ENDBRANCH  35  36
ENDBRANCH  23  25
ENDBRANCH  16   7
ENDBRANCH  11  16
TORSDOF 8
ENDMDL
MODEL 6
REMARK VINA RESULT:      -7.2     30.450     35.340
REMARK  Name = 40779690
REMARK  8 active torsions:
REMARK  status: ('A' for Active; 'I' for Inactive)
REMARK    1  A    between atoms: N_6  and  C_15
REMARK    2  A    between atoms: N_7  and  C_16
REMARK    3  A    between atoms: C_9  and  C_15
REMARK    4  A    between atoms: C_11  and  C_16
REMARK    5  A    between atoms: C_19  and  C_22
REMARK    6  A    between atoms: C_22  and  C_24
REMARK    7  A    between atoms: C_23  and  C_25
REMARK    8  A    between atoms: C_35  and  C_36
REMARK                            x       y       z     vdW  Elec       q    Type
REMARK                         _______ _______ _______ _____ _____    ______ ____
ROOT
ATOM      5  N   UNL     1     -18.593   3.957  21.848  0.00  0.00    -0.298 NA
ATOM      8  C   UNL     1     -17.585   2.468  23.728  0.00  0.00    -0.003 C 
ATOM      9  C   UNL     1     -18.910   3.115  24.188  0.00  0.00    +0.020 C 
ATOM     10  C   UNL     1     -16.598   3.573  23.305  0.00  0.00    +0.024 C 
ATOM     11  C   UNL     1     -17.176   4.338  22.094  0.00  0.00    +0.074 C 
ATOM     12  C   UNL     1     -19.387   4.095  23.093  0.00  0.00    +0.089 C 
ATOM     13  C   UNL     1     -17.904   1.638  22.470  0.00  0.00    +0.019 C 
ATOM     14  C   UNL     1     -18.619   2.531  21.440  0.00  0.00    +0.085 C 
ENDROOT
BRANCH   9  15
ATOM     15  C   UNL     1     -18.807   3.797  25.550  0.00  0.00    +0.089 C 
BRANCH  15   6
ATOM      6  N   UNL     1     -17.865   3.092  26.418  0.00  0.00    -0.302 NA
ATOM     17  C   UNL     1     -18.584   2.229  27.364  0.00  0.00    +0.084 C 
ATOM     18  C   UNL     1     -17.001   4.048  27.124  0.00  0.00    +0.084 C 
ATOM     19  C   UNL     1     -16.655   2.377  28.991  0.00  0.00    -0.004 C 
ATOM     20  C   UNL     1     -17.611   1.442  28.244  0.00  0.00    +0.019 C 
ATOM     21  C   UNL     1     -15.973   3.323  27.996  0.00  0.00    +0.019 C 
BRANCH  19  22
ATOM     22  C   UNL     1     -15.623   1.584  29.788  0.00  0.00    +0.038 C 
BRANCH  22  24
ATOM     24  C   UNL     1     -14.946   2.438  30.825  0.00  0.00    -0.047 A 
ATOM     26  C   UNL     1     -13.569   2.648  30.765  0.00  0.00    +0.003 A 
ATOM     27  C   UNL     1     -15.696   3.020  31.847  0.00  0.00    +0.003 A 
ATOM     30  C   UNL     1     -12.941   3.441  31.726  0.00  0.00    +0.000 A 
ATOM     31  C   UNL     1     -15.069   3.812  32.808  0.00  0.00    +0.000 A 
ATOM     32  C   UNL     1     -13.692   4.022  32.747  0.00  0.00    +0.000 A 
ENDBRANCH  22  24
ENDBRANCH  19  22
ENDBRANCH  15   6
ENDBRANCH   9  15
BRANCH  11  16
ATOM     16  C   UNL     1     -16.995   5.850  22.238  0.00  0.00    +0.123 C 
BRANCH  16   7
ATOM      4  O   UNL     1     -14.221   6.128  22.924  0.00  0.00    -0.270 OA
ATOM      7  N   UNL     1     -15.930   6.327  21.371  0.00  0.00    -0.310 N 
ATOM     23  C   UNL     1     -14.621   6.423  21.801  0.00  0.00    +0.244 C 
ATOM     37  H   UNL     1     -16.205   6.653  20.450  0.00  0.00    +0.149 HD
BRANCH  23  25
ATOM     25  C   UNL     1     -13.657   6.954  20.803  0.00  0.00    +0.037 A 
ATOM     28  C   UNL     1     -12.287   6.908  21.065  0.00  0.00    +0.013 A 
ATOM     29  C   UNL     1     -14.120   7.499  19.606  0.00  0.00    +0.013 A 
ATOM     33  C   UNL     1     -11.381   7.406  20.128  0.00  0.00    +0.013 A 
ATOM     34  C   UNL     1     -13.214   7.998  18.670  0.00  0.00    +0.013 A 
ATOM     35  C   UNL     1     -11.844   7.951  18.931  0.00  0.00    +0.055 A 
BRANCH  35  36
ATOM      1  F   UNL     1     -10.301   7.518  17.155  0.00  0.00    -0.166 F 
ATOM      2  F   UNL     1      -9.838   9.154  18.510  0.00  0.00    -0.166 F 
ATOM      3  F   UNL     1     -11.433   9.365  17.046  0.00  0.00    -0.166 F 
ATOM     36  C   UNL     1     -10.876   8.485  17.930  0.00  0.00    +0.417 C 
ENDBRANCH  35  36
ENDBRANCH  23  25
ENDBRANCH  16   7
ENDBRANCH  11  16
TORSDOF 8
ENDMDL
MODEL 7
REMARK VINA RESULT:      -7.2      4.761      6.941
REMARK  Name = 40779690
REMARK  8 active torsions:
REMARK  status: ('A' for Active; 'I' for Inactive)
REMARK    1  A    between atoms: N_6  and  C_15
REMARK    2  A    between atoms: N_7  and  C_16
REMARK    3  A    between atoms: C_9  and  C_15
REMARK    4  A    between atoms: C_11  and  C_16
REMARK    5  A    between atoms: C_19  and  C_22
REMARK    6  A    between atoms: C_22  and  C_24
REMARK    7  A    between atoms: C_23  and  C_25
REMARK    8  A    between atoms: C_35  and  C_36
REMARK                            x       y       z     vdW  Elec       q    Type
REMARK                         _______ _______ _______ _____ _____    ______ ____
ROOT
ATOM      5  N   UNL     1      10.552   7.032   7.871  0.00  0.00    -0.298 NA
ATOM      8  C   UNL     1       9.395   5.237   6.386  0.00  0.00    -0.003 C 
ATOM      9  C   UNL     1      10.692   5.751   5.720  0.00  0.00    +0.020 C 
ATOM     10  C   UNL     1       8.454   6.426   6.654  0.00  0.00    +0.024 C 
ATOM     11  C   UNL     1       9.126   7.394   7.653  0.00  0.00    +0.074 C 
ATOM     12  C   UNL     1      11.257   6.910   6.571  0.00  0.00    +0.089 C 
ATOM     13  C   UNL     1       9.794   4.655   7.755  0.00  0.00    +0.019 C 
ATOM     14  C   UNL     1      10.591   5.710   8.543  0.00  0.00    +0.085 C 
ENDROOT
BRANCH   9  15
ATOM     15  C   UNL     1      10.499   6.162   4.263  0.00  0.00    +0.089 C 
BRANCH  15   6
ATOM      6  N   UNL     1      11.493   5.522   3.403  0.00  0.00    -0.302 NA
ATOM     17  C   UNL     1      11.887   6.424   2.313  0.00  0.00    +0.084 C 
ATOM     18  C   UNL     1      10.979   4.250   2.878  0.00  0.00    +0.084 C 
ATOM     19  C   UNL     1      12.510   4.440   0.874  0.00  0.00    -0.004 C 
ATOM     20  C   UNL     1      12.968   5.791   1.434  0.00  0.00    +0.019 C 
ATOM     21  C   UNL     1      12.028   3.541   2.020  0.00  0.00    +0.019 C 
BRANCH  19  22
ATOM     22  C   UNL     1      13.627   3.767   0.082  0.00  0.00    +0.038 C 
BRANCH  22  24
ATOM     24  C   UNL     1      13.233   3.542  -1.351  0.00  0.00    -0.047 A 
ATOM     26  C   UNL     1      12.194   2.662  -1.659  0.00  0.00    +0.003 A 
ATOM     27  C   UNL     1      13.906   4.211  -2.373  0.00  0.00    +0.003 A 
ATOM     30  C   UNL     1      11.828   2.453  -2.989  0.00  0.00    +0.000 A 
ATOM     31  C   UNL     1      13.539   4.002  -3.703  0.00  0.00    +0.000 A 
ATOM     32  C   UNL     1      12.501   3.123  -4.010  0.00  0.00    +0.000 A 
ENDBRANCH  22  24
ENDBRANCH  19  22
ENDBRANCH  15   6
ENDBRANCH   9  15
BRANCH  11  16
ATOM     16  C   UNL     1       8.952   8.856   7.233  0.00  0.00    +0.123 C 
BRANCH  16   7
ATOM      4  O   UNL     1       9.947   9.857   4.733  0.00  0.00    -0.270 OA
ATOM      7  N   UNL     1       8.218   8.949   5.982  0.00  0.00    -0.310 N 
ATOM     23  C   UNL     1       8.792   9.450   4.830  0.00  0.00    +0.244 C 
ATOM     37  H   UNL     1       7.237   8.693   6.010  0.00  0.00    +0.149 HD
BRANCH  23  25
ATOM     25  C   UNL     1       7.901   9.504   3.642  0.00  0.00    +0.037 A 
ATOM     28  C   UNL     1       8.396   9.160   2.383  0.00  0.00    +0.013 A 
ATOM     29  C   UNL     1       6.571   9.900   3.784  0.00  0.00    +0.013 A 
ATOM     33  C   UNL     1       7.559   9.212   1.268  0.00  0.00    +0.013 A 
ATOM     34  C   UNL     1       5.736   9.952   2.669  0.00  0.00    +0.013 A 
ATOM     35  C   UNL     1       6.230   9.608   1.410  0.00  0.00    +0.055 A 
BRANCH  35  36
ATOM      1  F   UNL     1       4.151   9.007   0.391  0.00  0.00    -0.166 F 
ATOM      2  F   UNL     1       5.904   9.106  -0.890  0.00  0.00    -0.166 F 
ATOM      3  F   UNL     1       4.989  10.934  -0.147  0.00  0.00    -0.166 F 
ATOM     36  C   UNL     1       5.336   9.664   0.218  0.00  0.00    +0.417 C 
ENDBRANCH  35  36
ENDBRANCH  23  25
ENDBRANCH  16   7
ENDBRANCH  11  16
TORSDOF 8
ENDMDL
MODEL 8
REMARK VINA RESULT:      -7.1     29.960     34.592
REMARK  Name = 40779690
REMARK  8 active torsions:
REMARK  status: ('A' for Active; 'I' for Inactive)
REMARK    1  A    between atoms: N_6  and  C_15
REMARK    2  A    between atoms: N_7  and  C_16
REMARK    3  A    between atoms: C_9  and  C_15
REMARK    4  A    between atoms: C_11  and  C_16
REMARK    5  A    between atoms: C_19  and  C_22
REMARK    6  A    between atoms: C_22  and  C_24
REMARK    7  A    between atoms: C_23  and  C_25
REMARK    8  A    between atoms: C_35  and  C_36
REMARK                            x       y       z     vdW  Elec       q    Type
REMARK                         _______ _______ _______ _____ _____    ______ ____
ROOT
ATOM      5  N   UNL     1     -18.677   5.297  20.788  0.00  0.00    -0.298 NA
ATOM      8  C   UNL     1     -17.992   6.924  22.699  0.00  0.00    -0.003 C 
ATOM      9  C   UNL     1     -16.749   6.427  21.927  0.00  0.00    +0.020 C 
ATOM     10  C   UNL     1     -18.767   5.713  23.252  0.00  0.00    +0.024 C 
ATOM     11  C   UNL     1     -19.277   4.853  22.075  0.00  0.00    +0.074 C 
ATOM     12  C   UNL     1     -17.199   5.359  20.904  0.00  0.00    +0.089 C 
ATOM     13  C   UNL     1     -18.907   7.621  21.675  0.00  0.00    +0.019 C 
ATOM     14  C   UNL     1     -19.175   6.664  20.499  0.00  0.00    +0.085 C 
ENDROOT
BRANCH   9  15
ATOM     15  C   UNL     1     -15.643   5.903  22.839  0.00  0.00    +0.089 C 
BRANCH  15   6
ATOM      6  N   UNL     1     -14.356   6.510  22.501  0.00  0.00    -0.302 NA
ATOM     17  C   UNL     1     -14.555   7.829  21.886  0.00  0.00    +0.084 C 
ATOM     18  C   UNL     1     -13.585   5.625  21.618  0.00  0.00    +0.084 C 
ATOM     19  C   UNL     1     -12.343   7.618  20.679  0.00  0.00    -0.004 C 
ATOM     20  C   UNL     1     -13.217   8.502  21.575  0.00  0.00    +0.019 C 
ATOM     21  C   UNL     1     -12.213   6.222  21.299  0.00  0.00    +0.019 C 
BRANCH  19  22
ATOM     22  C   UNL     1     -10.972   8.249  20.456  0.00  0.00    +0.038 C 
BRANCH  22  24
ATOM     24  C   UNL     1     -10.809   8.734  19.042  0.00  0.00    -0.047 A 
ATOM     26  C   UNL     1     -11.011   7.858  17.975  0.00  0.00    +0.003 A 
ATOM     27  C   UNL     1     -10.454  10.061  18.797  0.00  0.00    +0.003 A 
ATOM     30  C   UNL     1     -10.860   8.309  16.664  0.00  0.00    +0.000 A 
ATOM     31  C   UNL     1     -10.303  10.512  17.485  0.00  0.00    +0.000 A 
ATOM     32  C   UNL     1     -10.505   9.635  16.419  0.00  0.00    +0.000 A 
ENDBRANCH  22  24
ENDBRANCH  19  22
ENDBRANCH  15   6
ENDBRANCH   9  15
BRANCH  11  16
ATOM     16  C   UNL     1     -19.068   3.359  22.330  0.00  0.00    +0.123 C 
BRANCH  16   7
ATOM      4  O   UNL     1     -16.467   2.351  23.010  0.00  0.00    -0.270 OA
ATOM      7  N   UNL     1     -18.548   3.132  23.669  0.00  0.00    -0.310 N 
ATOM     23  C   UNL     1     -17.276   2.641  23.888  0.00  0.00    +0.244 C 
ATOM     37  H   UNL     1     -19.190   3.287  24.438  0.00  0.00    +0.149 HD
BRANCH  23  25
ATOM     25  C   UNL     1     -16.904   2.440  25.312  0.00  0.00    +0.037 A 
ATOM     28  C   UNL     1     -16.427   3.513  26.067  0.00  0.00    +0.013 A 
ATOM     29  C   UNL     1     -17.030   1.179  25.896  0.00  0.00    +0.013 A 
ATOM     33  C   UNL     1     -16.077   3.324  27.404  0.00  0.00    +0.013 A 
ATOM     34  C   UNL     1     -16.680   0.991  27.233  0.00  0.00    +0.013 A 
ATOM     35  C   UNL     1     -16.204   2.064  27.987  0.00  0.00    +0.055 A 
BRANCH  35  36
ATOM      1  F   UNL     1     -16.254   0.670  29.930  0.00  0.00    -0.166 F 
ATOM      2  F   UNL     1     -16.351   2.820  30.236  0.00  0.00    -0.166 F 
ATOM      3  F   UNL     1     -14.481   1.885  29.637  0.00  0.00    -0.166 F 
ATOM     36  C   UNL     1     -15.829   1.862  29.416  0.00  0.00    +0.417 C 
ENDBRANCH  35  36
ENDBRANCH  23  25
ENDBRANCH  16   7
ENDBRANCH  11  16
TORSDOF 8
ENDMDL
MODEL 9
REMARK VINA RESULT:      -7.0     30.605     35.326
REMARK  Name = 40779690
REMARK  8 active torsions:
REMARK  status: ('A' for Active; 'I' for Inactive)
REMARK    1  A    between atoms: N_6  and  C_15
REMARK    2  A    between atoms: N_7  and  C_16
REMARK    3  A    between atoms: C_9  and  C_15
REMARK    4  A    between atoms: C_11  and  C_16
REMARK    5  A    between atoms: C_19  and  C_22
REMARK    6  A    between atoms: C_22  and  C_24
REMARK    7  A    between atoms: C_23  and  C_25
REMARK    8  A    between atoms: C_35  and  C_36
REMARK                            x       y       z     vdW  Elec       q    Type
REMARK                         _______ _______ _______ _____ _____    ______ ____
ROOT
ATOM      5  N   UNL     1     -18.637   4.142  22.423  0.00  0.00    -0.298 NA
ATOM      8  C   UNL     1     -17.815   6.215  23.763  0.00  0.00    -0.003 C 
ATOM      9  C   UNL     1     -16.687   5.655  22.867  0.00  0.00    +0.020 C 
ATOM     10  C   UNL     1     -18.314   5.105  24.707  0.00  0.00    +0.024 C 
ATOM     11  C   UNL     1     -18.924   3.959  23.871  0.00  0.00    +0.074 C 
ATOM     12  C   UNL     1     -17.183   4.348  22.209  0.00  0.00    +0.089 C 
ATOM     13  C   UNL     1     -18.986   6.581  22.832  0.00  0.00    +0.019 C 
ATOM     14  C   UNL     1     -19.348   5.361  21.966  0.00  0.00    +0.085 C 
ENDROOT
BRANCH   9  15
ATOM     15  C   UNL     1     -15.372   5.446  23.614  0.00  0.00    +0.089 C 
BRANCH  15   6
ATOM      6  N   UNL     1     -14.280   6.167  22.961  0.00  0.00    -0.302 NA
ATOM     17  C   UNL     1     -14.796   7.341  22.244  0.00  0.00    +0.084 C 
ATOM     18  C   UNL     1     -13.542   5.275  22.056  0.00  0.00    +0.084 C 
ATOM     19  C   UNL     1     -12.824   7.259  20.662  0.00  0.00    -0.004 C 
ATOM     20  C   UNL     1     -13.660   8.138  21.600  0.00  0.00    +0.019 C 
ATOM     21  C   UNL     1     -12.362   6.001  21.406  0.00  0.00    +0.019 C 
BRANCH  19  22
ATOM     22  C   UNL     1     -11.634   8.033  20.102  0.00  0.00    +0.038 C 
BRANCH  22  24
ATOM     24  C   UNL     1     -11.725   8.185  18.608  0.00  0.00    -0.047 A 
ATOM     26  C   UNL     1     -10.562   8.247  17.841  0.00  0.00    +0.003 A 
ATOM     27  C   UNL     1     -12.973   8.264  17.990  0.00  0.00    +0.003 A 
ATOM     30  C   UNL     1     -10.646   8.388  16.456  0.00  0.00    +0.000 A 
ATOM     31  C   UNL     1     -13.057   8.404  16.604  0.00  0.00    +0.000 A 
ATOM     32  C   UNL     1     -11.893   8.467  15.838  0.00  0.00    +0.000 A 
ENDBRANCH  22  24
ENDBRANCH  19  22
ENDBRANCH  15   6
ENDBRANCH   9  15
BRANCH  11  16
ATOM     16  C   UNL     1     -18.486   2.586  24.384  0.00  0.00    +0.123 C 
BRANCH  16   7
ATOM      4  O   UNL     1     -16.528   0.798  25.486  0.00  0.00    -0.270 OA
ATOM      7  N   UNL     1     -17.837   2.701  25.680  0.00  0.00    -0.310 N 
ATOM     23  C   UNL     1     -16.904   1.782  26.118  0.00  0.00    +0.244 C 
ATOM     37  H   UNL     1     -18.153   3.455  26.281  0.00  0.00    +0.149 HD
BRANCH  23  25
ATOM     25  C   UNL     1     -16.354   2.027  27.476  0.00  0.00    +0.037 A 
ATOM     28  C   UNL     1     -16.291   0.984  28.402  0.00  0.00    +0.013 A 
ATOM     29  C   UNL     1     -15.901   3.299  27.827  0.00  0.00    +0.013 A 
ATOM     33  C   UNL     1     -15.775   1.214  29.677  0.00  0.00    +0.013 A 
ATOM     34  C   UNL     1     -15.385   3.528  29.103  0.00  0.00    +0.013 A 
ATOM     35  C   UNL     1     -15.322   2.485  30.028  0.00  0.00    +0.055 A 
BRANCH  35  36
ATOM      1  F   UNL     1     -14.276   3.993  31.562  0.00  0.00    -0.166 F 
ATOM      2  F   UNL     1     -13.741   1.890  31.701  0.00  0.00    -0.166 F 
ATOM      3  F   UNL     1     -15.689   2.571  32.390  0.00  0.00    -0.166 F 
ATOM     36  C   UNL     1     -14.771   2.731  31.391  0.00  0.00    +0.417 C 
ENDBRANCH  35  36
ENDBRANCH  23  25
ENDBRANCH  16   7
ENDBRANCH  11  16
TORSDOF 8
ENDMDL
MODEL 10
REMARK VINA RESULT:      -7.0     24.918     29.243
REMARK  Name = 40779690
REMARK  8 active torsions:
REMARK  status: ('A' for Active; 'I' for Inactive)
REMARK    1  A    between atoms: N_6  and  C_15
REMARK    2  A    between atoms: N_7  and  C_16
REMARK    3  A    between atoms: C_9  and  C_15
REMARK    4  A    between atoms: C_11  and  C_16
REMARK    5  A    between atoms: C_19  and  C_22
REMARK    6  A    between atoms: C_22  and  C_24
REMARK    7  A    between atoms: C_23  and  C_25
REMARK    8  A    between atoms: C_35  and  C_36
REMARK                            x       y       z     vdW  Elec       q    Type
REMARK                         _______ _______ _______ _____ _____    ______ ____
ROOT
ATOM      5  N   UNL     1      -6.674 -12.526  18.621  0.00  0.00    -0.298 NA
ATOM      8  C   UNL     1      -6.383  -9.973  18.216  0.00  0.00    -0.003 C 
ATOM      9  C   UNL     1      -7.760 -10.457  17.710  0.00  0.00    +0.020 C 
ATOM     10  C   UNL     1      -5.271 -10.776  17.517  0.00  0.00    +0.024 C 
ATOM     11  C   UNL     1      -5.398 -12.266  17.901  0.00  0.00    +0.074 C 
ATOM     12  C   UNL     1      -7.821 -11.995  17.842  0.00  0.00    +0.089 C 
ATOM     13  C   UNL     1      -6.313 -10.311  19.717  0.00  0.00    +0.019 C 
ATOM     14  C   UNL     1      -6.623 -11.805  19.916  0.00  0.00    +0.085 C 
ENDROOT
BRANCH   9  15
ATOM     15  C   UNL     1      -8.073 -10.001  16.287  0.00  0.00    +0.089 C 
BRANCH  15   6
ATOM      6  N   UNL     1      -9.439  -9.487  16.191  0.00  0.00    -0.302 NA
ATOM     17  C   UNL     1      -9.831  -9.328  14.784  0.00  0.00    +0.084 C 
ATOM     18  C   UNL     1      -9.564  -8.219  16.923  0.00  0.00    +0.084 C 
ATOM     19  C   UNL     1     -11.490  -7.534  15.434  0.00  0.00    -0.004 C 
ATOM     20  C   UNL     1     -11.276  -8.842  14.665  0.00  0.00    +0.019 C 
ATOM     21  C   UNL     1     -11.001  -7.696  16.878  0.00  0.00    +0.019 C 
BRANCH  19  22
ATOM     22  C   UNL     1     -12.955  -7.108  15.395  0.00  0.00    +0.038 C 
BRANCH  22  24
ATOM     24  C   UNL     1     -13.180  -5.983  14.422  0.00  0.00    -0.047 A 
ATOM     26  C   UNL     1     -14.478  -5.622  14.061  0.00  0.00    +0.003 A 
ATOM     27  C   UNL     1     -12.090  -5.302  13.879  0.00  0.00    +0.003 A 
ATOM     30  C   UNL     1     -14.687  -4.579  13.159  0.00  0.00    +0.000 A 
ATOM     31  C   UNL     1     -12.300  -4.259  12.977  0.00  0.00    +0.000 A 
ATOM     32  C   UNL     1     -13.598  -3.898  12.617  0.00  0.00    +0.000 A 
ENDBRANCH  22  24
ENDBRANCH  19  22
ENDBRANCH  15   6
ENDBRANCH   9  15
BRANCH  11  16
ATOM     16  C   UNL     1      -5.214 -13.184  16.691  0.00  0.00    +0.123 C 
BRANCH  16   7
ATOM      4  O   UNL     1      -3.185 -13.640  14.712  0.00  0.00    -0.270 OA
ATOM      7  N   UNL     1      -4.990 -12.407  15.483  0.00  0.00    -0.310 N 
ATOM     23  C   UNL     1      -3.979 -12.711  14.592  0.00  0.00    +0.244 C 
ATOM     37  H   UNL     1      -5.569 -11.583  15.358  0.00  0.00    +0.149 HD
BRANCH  23  25
ATOM     25  C   UNL     1      -3.865 -11.805  13.420  0.00  0.00    +0.037 A 
ATOM     28  C   UNL     1      -4.930 -10.970  13.077  0.00  0.00    +0.013 A 
ATOM     29  C   UNL     1      -2.694 -11.788  12.662  0.00  0.00    +0.013 A 
ATOM     33  C   UNL     1      -4.822 -10.120  11.977  0.00  0.00    +0.013 A 
ATOM     34  C   UNL     1      -2.587 -10.937  11.562  0.00  0.00    +0.013 A 
ATOM     35  C   UNL     1      -3.652 -10.103  11.219  0.00  0.00    +0.055 A 
BRANCH  35  36
ATOM      1  F   UNL     1      -3.905  -9.776   8.863  0.00  0.00    -0.166 F 
ATOM      2  F   UNL     1      -2.263  -8.747   9.847  0.00  0.00    -0.166 F 
ATOM      3  F   UNL     1      -4.309  -8.071  10.141  0.00  0.00    -0.166 F 
ATOM     36  C   UNL     1      -3.537  -9.194  10.043  0.00  0.00    +0.417 C 
ENDBRANCH  35  36
ENDBRANCH  23  25
ENDBRANCH  16   7
ENDBRANCH  11  16
TORSDOF 8
ENDMDL
