MODEL 1
REMARK VINA RESULT:      -7.6      0.000      0.000
REMARK  Name = 75536331
REMARK  11 active torsions:
REMARK  status: ('A' for Active; 'I' for Inactive)
REMARK    1  A    between atoms: O_2  and  C_12
REMARK    2  A    between atoms: O_5  and  C_21
REMARK    3  A    between atoms: O_5  and  C_25
REMARK    4  A    between atoms: O_6  and  C_28
REMARK    5  A    between atoms: O_6  and  C_34
REMARK    6  A    between atoms: N_7  and  C_16
REMARK    7  A    between atoms: N_9  and  C_22
REMARK    8  A    between atoms: C_10  and  C_15
REMARK    9  A    between atoms: C_11  and  C_16
REMARK   10  A    between atoms: C_15  and  C_17
REMARK   11  A    between atoms: C_20  and  C_21
REMARK                            x       y       z     vdW  Elec       q    Type
REMARK                         _______ _______ _______ _____ _____    ______ ____
ROOT
ATOM      1  O   UNL     1     -16.619   1.446  26.203  0.00  0.00    -0.369 OA
ATOM     10  C   UNL     1     -17.461   1.946  27.244  0.00  0.00    +0.125 C 
ATOM     11  C   UNL     1     -16.526   2.281  25.041  0.00  0.00    +0.164 C 
ATOM     12  C   UNL     1     -17.913   2.581  24.456  0.00  0.00    +0.145 C 
ATOM     13  C   UNL     1     -18.887   2.149  26.735  0.00  0.00    +0.034 C 
ATOM     14  C   UNL     1     -18.897   3.069  25.517  0.00  0.00    +0.036 C 
ENDROOT
BRANCH  12   2
ATOM      2  O   UNL     1     -18.443   1.382  23.888  0.00  0.00    -0.389 OA
ATOM     35  H   UNL     1     -17.866   1.125  23.149  0.00  0.00    +0.210 HD
ENDBRANCH  12   2
BRANCH  10  15
ATOM     15  C   UNL     1     -17.432   0.934  28.383  0.00  0.00    +0.090 C 
BRANCH  15  17
ATOM      3  O   UNL     1     -14.229   0.599  30.003  0.00  0.00    -0.356 OA
ATOM      8  N   UNL     1     -15.206   0.178  29.108  0.00  0.00    -0.083 NA
ATOM     17  C   UNL     1     -16.190   1.074  29.221  0.00  0.00    +0.086 A 
ATOM     18  C   UNL     1     -15.892   2.075  30.162  0.00  0.00    +0.074 A 
ATOM     20  C   UNL     1     -14.650   1.730  30.624  0.00  0.00    +0.175 A 
BRANCH  20  21
ATOM     21  C   UNL     1     -13.733   2.317  31.609  0.00  0.00    +0.306 C 
BRANCH  21   5
ATOM      5  O   UNL     1     -14.447   2.689  32.792  0.00  0.00    -0.484 OA
BRANCH   5  25
ATOM     25  C   UNL     1     -14.264   3.968  33.235  0.00  0.00    +0.121 A 
ATOM     29  C   UNL     1     -14.339   4.251  34.599  0.00  0.00    +0.045 A 
ATOM     30  C   UNL     1     -14.006   4.992  32.325  0.00  0.00    +0.045 A 
ATOM     31  C   UNL     1     -14.153   5.558  35.051  0.00  0.00    +0.004 A 
ATOM     32  C   UNL     1     -13.822   6.298  32.776  0.00  0.00    +0.004 A 
ATOM     33  C   UNL     1     -13.895   6.581  34.141  0.00  0.00    +0.000 A 
ENDBRANCH   5  25
ENDBRANCH  21   5
ENDBRANCH  20  21
ENDBRANCH  15  17
ENDBRANCH  10  15
BRANCH  11  16
ATOM     16  C   UNL     1     -15.716   3.541  25.332  0.00  0.00    +0.140 C 
BRANCH  16   7
ATOM      4  O   UNL     1     -15.641   5.841  23.626  0.00  0.00    -0.253 OA
ATOM      7  N   UNL     1     -14.775   3.800  24.285  0.00  0.00    -0.297 N 
ATOM      9  N   UNL     1     -13.764   4.934  22.548  0.00  0.00    -0.269 N 
ATOM     19  C   UNL     1     -14.801   4.956  23.484  0.00  0.00    +0.304 C 
ATOM     36  H   UNL     1     -14.081   3.089  24.077  0.00  0.00    +0.150 HD
ATOM     37  H   UNL     1     -13.152   4.121  22.566  0.00  0.00    +0.156 HD
BRANCH   9  22
ATOM     22  C   UNL     1     -13.455   5.908  21.571  0.00  0.00    +0.035 A 
ATOM     23  C   UNL     1     -14.481   6.529  20.856  0.00  0.00    +0.027 A 
ATOM     24  C   UNL     1     -12.126   6.250  21.322  0.00  0.00    +0.027 A 
ATOM     26  C   UNL     1     -14.175   7.490  19.893  0.00  0.00    +0.047 A 
ATOM     27  C   UNL     1     -11.821   7.211  20.358  0.00  0.00    +0.047 A 
ATOM     28  C   UNL     1     -12.846   7.830  19.643  0.00  0.00    +0.120 A 
BRANCH  28   6
ATOM      6  O   UNL     1     -12.549   8.768  18.703  0.00  0.00    -0.495 OA
ATOM     34  C   UNL     1     -12.145  10.053  19.172  0.00  0.00    +0.277 C 
ENDBRANCH  28   6
ENDBRANCH   9  22
ENDBRANCH  16   7
ENDBRANCH  11  16
TORSDOF 10
ENDMDL
MODEL 2
REMARK VINA RESULT:      -7.4     27.142     31.239
REMARK  Name = 75536331
REMARK  11 active torsions:
REMARK  status: ('A' for Active; 'I' for Inactive)
REMARK    1  A    between atoms: O_2  and  C_12
REMARK    2  A    between atoms: O_5  and  C_21
REMARK    3  A    between atoms: O_5  and  C_25
REMARK    4  A    between atoms: O_6  and  C_28
REMARK    5  A    between atoms: O_6  and  C_34
REMARK    6  A    between atoms: N_7  and  C_16
REMARK    7  A    between atoms: N_9  and  C_22
REMARK    8  A    between atoms: C_10  and  C_15
REMARK    9  A    between atoms: C_11  and  C_16
REMARK   10  A    between atoms: C_15  and  C_17
REMARK   11  A    between atoms: C_20  and  C_21
REMARK                            x       y       z     vdW  Elec       q    Type
REMARK                         _______ _______ _______ _____ _____    ______ ____
ROOT
ATOM      1  O   UNL     1      11.397  10.828  21.445  0.00  0.00    -0.369 OA
ATOM     10  C   UNL     1      11.344   9.710  22.332  0.00  0.00    +0.125 C 
ATOM     11  C   UNL     1      12.086  11.978  21.954  0.00  0.00    +0.164 C 
ATOM     12  C   UNL     1      11.495  12.436  23.294  0.00  0.00    +0.145 C 
ATOM     13  C   UNL     1      10.653  10.091  23.641  0.00  0.00    +0.034 C 
ATOM     14  C   UNL     1      11.349  11.285  24.288  0.00  0.00    +0.036 C 
ENDROOT
BRANCH  12   2
ATOM      2  O   UNL     1      10.193  12.979  23.062  0.00  0.00    -0.389 OA
ATOM     35  H   UNL     1      10.308  13.854  22.655  0.00  0.00    +0.210 HD
ENDBRANCH  12   2
BRANCH  10  15
ATOM     15  C   UNL     1      10.582   8.596  21.622  0.00  0.00    +0.090 C 
BRANCH  15  17
ATOM      3  O   UNL     1      12.422   6.585  19.264  0.00  0.00    -0.356 OA
ATOM      8  N   UNL     1      11.738   6.762  20.462  0.00  0.00    -0.083 NA
ATOM     17  C   UNL     1      11.361   8.043  20.459  0.00  0.00    +0.086 A 
ATOM     18  C   UNL     1      11.772   8.717  19.297  0.00  0.00    +0.074 A 
ATOM     20  C   UNL     1      12.434   7.757  18.579  0.00  0.00    +0.175 A 
BRANCH  20  21
ATOM     21  C   UNL     1      13.119   7.751  17.280  0.00  0.00    +0.306 C 
BRANCH  21   5
ATOM      5  O   UNL     1      14.344   8.484  17.361  0.00  0.00    -0.484 OA
BRANCH   5  25
ATOM     25  C   UNL     1      14.328   9.754  16.857  0.00  0.00    +0.121 A 
ATOM     29  C   UNL     1      13.973   9.971  15.526  0.00  0.00    +0.045 A 
ATOM     30  C   UNL     1      14.669  10.832  17.672  0.00  0.00    +0.045 A 
ATOM     31  C   UNL     1      13.957  11.268  15.011  0.00  0.00    +0.004 A 
ATOM     32  C   UNL     1      14.654  12.128  17.158  0.00  0.00    +0.004 A 
ATOM     33  C   UNL     1      14.298  12.346  15.827  0.00  0.00    +0.000 A 
ENDBRANCH   5  25
ENDBRANCH  21   5
ENDBRANCH  20  21
ENDBRANCH  15  17
ENDBRANCH  10  15
BRANCH  11  16
ATOM     16  C   UNL     1      13.591  11.733  22.019  0.00  0.00    +0.140 C 
BRANCH  16   7
ATOM      4  O   UNL     1      15.987  10.186  22.281  0.00  0.00    -0.253 OA
ATOM      7  N   UNL     1      13.959  10.587  21.245  0.00  0.00    -0.297 N 
ATOM      9  N   UNL     1      15.243   8.807  20.534  0.00  0.00    -0.269 N 
ATOM     19  C   UNL     1      15.157   9.875  21.431  0.00  0.00    +0.304 C 
ATOM     36  H   UNL     1      13.343  10.301  20.490  0.00  0.00    +0.150 HD
ATOM     37  H   UNL     1      14.464   8.688  19.891  0.00  0.00    +0.156 HD
BRANCH   9  22
ATOM     22  C   UNL     1      16.288   7.862  20.406  0.00  0.00    +0.035 A 
ATOM     23  C   UNL     1      17.386   7.915  21.265  0.00  0.00    +0.027 A 
ATOM     24  C   UNL     1      16.220   6.876  19.421  0.00  0.00    +0.027 A 
ATOM     26  C   UNL     1      18.415   6.983  21.139  0.00  0.00    +0.047 A 
ATOM     27  C   UNL     1      17.250   5.944  19.295  0.00  0.00    +0.047 A 
ATOM     28  C   UNL     1      18.348   5.998  20.154  0.00  0.00    +0.120 A 
BRANCH  28   6
ATOM      6  O   UNL     1      19.352   5.089  20.031  0.00  0.00    -0.495 OA
ATOM     34  C   UNL     1      20.600   5.413  20.641  0.00  0.00    +0.277 C 
ENDBRANCH  28   6
ENDBRANCH   9  22
ENDBRANCH  16   7
ENDBRANCH  11  16
TORSDOF 10
ENDMDL
MODEL 3
REMARK VINA RESULT:      -7.4     19.721     22.755
REMARK  Name = 75536331
REMARK  11 active torsions:
REMARK  status: ('A' for Active; 'I' for Inactive)
REMARK    1  A    between atoms: O_2  and  C_12
REMARK    2  A    between atoms: O_5  and  C_21
REMARK    3  A    between atoms: O_5  and  C_25
REMARK    4  A    between atoms: O_6  and  C_28
REMARK    5  A    between atoms: O_6  and  C_34
REMARK    6  A    between atoms: N_7  and  C_16
REMARK    7  A    between atoms: N_9  and  C_22
REMARK    8  A    between atoms: C_10  and  C_15
REMARK    9  A    between atoms: C_11  and  C_16
REMARK   10  A    between atoms: C_15  and  C_17
REMARK   11  A    between atoms: C_20  and  C_21
REMARK                            x       y       z     vdW  Elec       q    Type
REMARK                         _______ _______ _______ _____ _____    ______ ____
ROOT
ATOM      1  O   UNL     1      -5.905  -8.344   9.854  0.00  0.00    -0.369 OA
ATOM     10  C   UNL     1      -5.146  -9.421   9.301  0.00  0.00    +0.125 C 
ATOM     11  C   UNL     1      -7.325  -8.454   9.693  0.00  0.00    +0.164 C 
ATOM     12  C   UNL     1      -7.708  -8.624   8.216  0.00  0.00    +0.145 C 
ATOM     13  C   UNL     1      -5.408  -9.553   7.801  0.00  0.00    +0.034 C 
ATOM     14  C   UNL     1      -6.900  -9.722   7.529  0.00  0.00    +0.036 C 
ENDROOT
BRANCH  12   2
ATOM      2  O   UNL     1      -7.449  -7.398   7.528  0.00  0.00    -0.389 OA
ATOM     35  H   UNL     1      -8.304  -6.961   7.374  0.00  0.00    +0.210 HD
ENDBRANCH  12   2
BRANCH  10  15
ATOM     15  C   UNL     1      -3.674  -9.131   9.570  0.00  0.00    +0.090 C 
BRANCH  15  17
ATOM      3  O   UNL     1      -1.853 -10.307  12.451  0.00  0.00    -0.356 OA
ATOM      8  N   UNL     1      -1.929  -9.663  11.220  0.00  0.00    -0.083 NA
ATOM     17  C   UNL     1      -3.215  -9.737  10.870  0.00  0.00    +0.086 A 
ATOM     18  C   UNL     1      -3.992 -10.407  11.830  0.00  0.00    +0.074 A 
ATOM     20  C   UNL     1      -3.089 -10.745  12.802  0.00  0.00    +0.175 A 
BRANCH  20  21
ATOM     21  C   UNL     1      -3.193 -11.451  14.085  0.00  0.00    +0.306 C 
BRANCH  21   5
ATOM      5  O   UNL     1      -3.937 -10.669  15.024  0.00  0.00    -0.484 OA
BRANCH   5  25
ATOM     25  C   UNL     1      -4.281 -11.286  16.193  0.00  0.00    +0.121 A 
ATOM     29  C   UNL     1      -4.394 -10.542  17.368  0.00  0.00    +0.045 A 
ATOM     30  C   UNL     1      -4.516 -12.660  16.214  0.00  0.00    +0.045 A 
ATOM     31  C   UNL     1      -4.745 -11.173  18.562  0.00  0.00    +0.004 A 
ATOM     32  C   UNL     1      -4.866 -13.291  17.407  0.00  0.00    +0.004 A 
ATOM     33  C   UNL     1      -4.980 -12.547  18.582  0.00  0.00    +0.000 A 
ENDBRANCH   5  25
ENDBRANCH  21   5
ENDBRANCH  20  21
ENDBRANCH  15  17
ENDBRANCH  10  15
BRANCH  11  16
ATOM     16  C   UNL     1      -7.898  -9.549  10.587  0.00  0.00    +0.140 C 
BRANCH  16   7
ATOM      4  O   UNL     1      -9.064 -10.712  12.931  0.00  0.00    -0.253 OA
ATOM      7  N   UNL     1      -7.436  -9.406  11.934  0.00  0.00    -0.297 N 
ATOM      9  N   UNL     1      -7.391  -9.692  14.224  0.00  0.00    -0.269 N 
ATOM     19  C   UNL     1      -8.063 -10.008  13.040  0.00  0.00    +0.304 C 
ATOM     36  H   UNL     1      -6.641  -8.798  12.106  0.00  0.00    +0.150 HD
ATOM     37  H   UNL     1      -6.573  -9.093  14.137  0.00  0.00    +0.156 HD
BRANCH   9  22
ATOM     22  C   UNL     1      -7.709 -10.102  15.539  0.00  0.00    +0.035 A 
ATOM     23  C   UNL     1      -8.006 -11.441  15.800  0.00  0.00    +0.027 A 
ATOM     24  C   UNL     1      -7.725  -9.169  16.576  0.00  0.00    +0.027 A 
ATOM     26  C   UNL     1      -8.319 -11.844  17.097  0.00  0.00    +0.047 A 
ATOM     27  C   UNL     1      -8.039  -9.574  17.873  0.00  0.00    +0.047 A 
ATOM     28  C   UNL     1      -8.336 -10.912  18.134  0.00  0.00    +0.120 A 
BRANCH  28   6
ATOM      6  O   UNL     1      -8.642 -11.307  19.400  0.00  0.00    -0.495 OA
ATOM     34  C   UNL     1      -8.458 -12.686  19.712  0.00  0.00    +0.277 C 
ENDBRANCH  28   6
ENDBRANCH   9  22
ENDBRANCH  16   7
ENDBRANCH  11  16
TORSDOF 10
ENDMDL
MODEL 4
REMARK VINA RESULT:      -7.4     31.315     37.093
REMARK  Name = 75536331
REMARK  11 active torsions:
REMARK  status: ('A' for Active; 'I' for Inactive)
REMARK    1  A    between atoms: O_2  and  C_12
REMARK    2  A    between atoms: O_5  and  C_21
REMARK    3  A    between atoms: O_5  and  C_25
REMARK    4  A    between atoms: O_6  and  C_28
REMARK    5  A    between atoms: O_6  and  C_34
REMARK    6  A    between atoms: N_7  and  C_16
REMARK    7  A    between atoms: N_9  and  C_22
REMARK    8  A    between atoms: C_10  and  C_15
REMARK    9  A    between atoms: C_11  and  C_16
REMARK   10  A    between atoms: C_15  and  C_17
REMARK   11  A    between atoms: C_20  and  C_21
REMARK                            x       y       z     vdW  Elec       q    Type
REMARK                         _______ _______ _______ _____ _____    ______ ____
ROOT
ATOM      1  O   UNL     1      11.394   6.203   7.136  0.00  0.00    -0.369 OA
ATOM     10  C   UNL     1      11.275   7.588   6.808  0.00  0.00    +0.125 C 
ATOM     11  C   UNL     1      10.203   5.427   6.949  0.00  0.00    +0.164 C 
ATOM     12  C   UNL     1       9.022   6.021   7.729  0.00  0.00    +0.145 C 
ATOM     13  C   UNL     1      10.185   8.250   7.650  0.00  0.00    +0.034 C 
ATOM     14  C   UNL     1       8.856   7.518   7.480  0.00  0.00    +0.036 C 
ENDROOT
BRANCH  12   2
ATOM      2  O   UNL     1       9.252   5.834   9.127  0.00  0.00    -0.389 OA
ATOM     35  H   UNL     1       9.427   4.889   9.273  0.00  0.00    +0.210 HD
ENDBRANCH  12   2
BRANCH  10  15
ATOM     15  C   UNL     1      12.629   8.240   7.067  0.00  0.00    +0.090 C 
BRANCH  15  17
ATOM      3  O   UNL     1      14.287   7.352   3.992  0.00  0.00    -0.356 OA
ATOM      8  N   UNL     1      13.156   7.463   4.793  0.00  0.00    -0.083 NA
ATOM     17  C   UNL     1      13.596   7.977   5.944  0.00  0.00    +0.086 A 
ATOM     18  C   UNL     1      14.983   8.210   5.928  0.00  0.00    +0.074 A 
ATOM     20  C   UNL     1      15.368   7.801   4.680  0.00  0.00    +0.175 A 
BRANCH  20  21
ATOM     21  C   UNL     1      16.656   7.756   3.977  0.00  0.00    +0.306 C 
BRANCH  21   5
ATOM      5  O   UNL     1      17.500   8.823   4.420  0.00  0.00    -0.484 OA
BRANCH   5  25
ATOM     25  C   UNL     1      18.662   8.461   5.042  0.00  0.00    +0.121 A 
ATOM     29  C   UNL     1      18.893   8.839   6.364  0.00  0.00    +0.045 A 
ATOM     30  C   UNL     1      19.618   7.716   4.353  0.00  0.00    +0.045 A 
ATOM     31  C   UNL     1      20.079   8.470   6.998  0.00  0.00    +0.004 A 
ATOM     32  C   UNL     1      20.805   7.347   4.986  0.00  0.00    +0.004 A 
ATOM     33  C   UNL     1      21.036   7.725   6.310  0.00  0.00    +0.000 A 
ENDBRANCH   5  25
ENDBRANCH  21   5
ENDBRANCH  20  21
ENDBRANCH  15  17
ENDBRANCH  10  15
BRANCH  11  16
ATOM     16  C   UNL     1       9.900   5.231   5.466  0.00  0.00    +0.140 C 
BRANCH  16   7
ATOM      4  O   UNL     1      10.129   5.122   2.613  0.00  0.00    -0.253 OA
ATOM      7  N   UNL     1      11.108   5.103   4.708  0.00  0.00    -0.297 N 
ATOM      9  N   UNL     1      12.457   4.927   2.844  0.00  0.00    -0.269 N 
ATOM     19  C   UNL     1      11.143   5.055   3.303  0.00  0.00    +0.304 C 
ATOM     36  H   UNL     1      11.982   4.993   5.213  0.00  0.00    +0.150 HD
ATOM     37  H   UNL     1      13.185   4.886   3.553  0.00  0.00    +0.156 HD
BRANCH   9  22
ATOM     22  C   UNL     1      12.905   4.846   1.505  0.00  0.00    +0.035 A 
ATOM     23  C   UNL     1      13.065   6.009   0.751  0.00  0.00    +0.027 A 
ATOM     24  C   UNL     1      13.188   3.603   0.939  0.00  0.00    +0.027 A 
ATOM     26  C   UNL     1      13.507   5.928  -0.569  0.00  0.00    +0.047 A 
ATOM     27  C   UNL     1      13.630   3.522  -0.381  0.00  0.00    +0.047 A 
ATOM     28  C   UNL     1      13.789   4.685  -1.136  0.00  0.00    +0.120 A 
BRANCH  28   6
ATOM      6  O   UNL     1      14.221   4.606  -2.424  0.00  0.00    -0.495 OA
ATOM     34  C   UNL     1      15.597   4.891  -2.666  0.00  0.00    +0.277 C 
ENDBRANCH  28   6
ENDBRANCH   9  22
ENDBRANCH  16   7
ENDBRANCH  11  16
TORSDOF 10
ENDMDL
MODEL 5
REMARK VINA RESULT:      -7.3     18.394     20.775
REMARK  Name = 75536331
REMARK  11 active torsions:
REMARK  status: ('A' for Active; 'I' for Inactive)
REMARK    1  A    between atoms: O_2  and  C_12
REMARK    2  A    between atoms: O_5  and  C_21
REMARK    3  A    between atoms: O_5  and  C_25
REMARK    4  A    between atoms: O_6  and  C_28
REMARK    5  A    between atoms: O_6  and  C_34
REMARK    6  A    between atoms: N_7  and  C_16
REMARK    7  A    between atoms: N_9  and  C_22
REMARK    8  A    between atoms: C_10  and  C_15
REMARK    9  A    between atoms: C_11  and  C_16
REMARK   10  A    between atoms: C_15  and  C_17
REMARK   11  A    between atoms: C_20  and  C_21
REMARK                            x       y       z     vdW  Elec       q    Type
REMARK                         _______ _______ _______ _____ _____    ______ ____
ROOT
ATOM      1  O   UNL     1      -3.562 -10.372  14.139  0.00  0.00    -0.369 OA
ATOM     10  C   UNL     1      -3.195 -11.534  14.884  0.00  0.00    +0.125 C 
ATOM     11  C   UNL     1      -3.680 -10.566  12.723  0.00  0.00    +0.164 C 
ATOM     12  C   UNL     1      -2.388 -11.147  12.131  0.00  0.00    +0.145 C 
ATOM     13  C   UNL     1      -1.851 -12.081  14.404  0.00  0.00    +0.034 C 
ATOM     14  C   UNL     1      -1.891 -12.365  12.905  0.00  0.00    +0.036 C 
ENDROOT
BRANCH  12   2
ATOM      2  O   UNL     1      -1.366 -10.149  12.186  0.00  0.00    -0.389 OA
ATOM     35  H   UNL     1      -0.673 -10.402  11.552  0.00  0.00    +0.210 HD
ENDBRANCH  12   2
BRANCH  10  15
ATOM     15  C   UNL     1      -3.124 -11.135  16.353  0.00  0.00    +0.090 C 
BRANCH  15  17
ATOM      3  O   UNL     1      -6.517 -11.870  17.322  0.00  0.00    -0.356 OA
ATOM      8  N   UNL     1      -5.440 -11.959  16.448  0.00  0.00    -0.083 NA
ATOM     17  C   UNL     1      -4.464 -11.257  17.028  0.00  0.00    +0.086 A 
ATOM     18  C   UNL     1      -4.862 -10.708  18.260  0.00  0.00    +0.074 A 
ATOM     20  C   UNL     1      -6.160 -11.122  18.397  0.00  0.00    +0.175 A 
BRANCH  20  21
ATOM     21  C   UNL     1      -7.186 -10.926  19.429  0.00  0.00    +0.306 C 
BRANCH  21   5
ATOM      5  O   UNL     1      -8.196 -11.932  19.322  0.00  0.00    -0.484 OA
BRANCH   5  25
ATOM     25  C   UNL     1      -9.458 -11.499  19.028  0.00  0.00    +0.121 A 
ATOM     29  C   UNL     1     -10.107 -11.965  17.884  0.00  0.00    +0.045 A 
ATOM     30  C   UNL     1     -10.097 -10.589  19.870  0.00  0.00    +0.045 A 
ATOM     31  C   UNL     1     -11.395 -11.521  17.584  0.00  0.00    +0.004 A 
ATOM     32  C   UNL     1     -11.384 -10.145  19.570  0.00  0.00    +0.004 A 
ATOM     33  C   UNL     1     -12.034 -10.611  18.426  0.00  0.00    +0.000 A 
ENDBRANCH   5  25
ENDBRANCH  21   5
ENDBRANCH  20  21
ENDBRANCH  15  17
ENDBRANCH  10  15
BRANCH  11  16
ATOM     16  C   UNL     1      -4.917 -11.392  12.381  0.00  0.00    +0.140 C 
BRANCH  16   7
ATOM      4  O   UNL     1      -6.851  -9.332  12.851  0.00  0.00    -0.253 OA
ATOM      7  N   UNL     1      -5.875 -11.344  13.443  0.00  0.00    -0.297 N 
ATOM      9  N   UNL     1      -7.604 -10.520  14.730  0.00  0.00    -0.269 N 
ATOM     19  C   UNL     1      -6.797 -10.296  13.611  0.00  0.00    +0.304 C 
ATOM     36  H   UNL     1      -5.857 -12.083  14.139  0.00  0.00    +0.150 HD
ATOM     37  H   UNL     1      -7.428 -11.374  15.254  0.00  0.00    +0.156 HD
BRANCH   9  22
ATOM     22  C   UNL     1      -8.644  -9.702  15.229  0.00  0.00    +0.035 A 
ATOM     23  C   UNL     1      -8.472  -9.010  16.429  0.00  0.00    +0.027 A 
ATOM     24  C   UNL     1      -9.840  -9.585  14.521  0.00  0.00    +0.027 A 
ATOM     26  C   UNL     1      -9.498  -8.203  16.920  0.00  0.00    +0.047 A 
ATOM     27  C   UNL     1     -10.866  -8.778  15.013  0.00  0.00    +0.047 A 
ATOM     28  C   UNL     1     -10.695  -8.087  16.213  0.00  0.00    +0.120 A 
BRANCH  28   6
ATOM      6  O   UNL     1     -11.695  -7.299  16.692  0.00  0.00    -0.495 OA
ATOM     34  C   UNL     1     -11.905  -6.048  16.041  0.00  0.00    +0.277 C 
ENDBRANCH  28   6
ENDBRANCH   9  22
ENDBRANCH  16   7
ENDBRANCH  11  16
TORSDOF 10
ENDMDL
MODEL 6
REMARK VINA RESULT:      -7.3     18.527     21.703
REMARK  Name = 75536331
REMARK  11 active torsions:
REMARK  status: ('A' for Active; 'I' for Inactive)
REMARK    1  A    between atoms: O_2  and  C_12
REMARK    2  A    between atoms: O_5  and  C_21
REMARK    3  A    between atoms: O_5  and  C_25
REMARK    4  A    between atoms: O_6  and  C_28
REMARK    5  A    between atoms: O_6  and  C_34
REMARK    6  A    between atoms: N_7  and  C_16
REMARK    7  A    between atoms: N_9  and  C_22
REMARK    8  A    between atoms: C_10  and  C_15
REMARK    9  A    between atoms: C_11  and  C_16
REMARK   10  A    between atoms: C_15  and  C_17
REMARK   11  A    between atoms: C_20  and  C_21
REMARK                            x       y       z     vdW  Elec       q    Type
REMARK                         _______ _______ _______ _____ _____    ______ ____
ROOT
ATOM      1  O   UNL     1      -6.552 -11.806  17.170  0.00  0.00    -0.369 OA
ATOM     10  C   UNL     1      -5.160 -11.698  17.473  0.00  0.00    +0.125 C 
ATOM     11  C   UNL     1      -7.417 -10.999  17.980  0.00  0.00    +0.164 C 
ATOM     12  C   UNL     1      -7.211 -11.286  19.474  0.00  0.00    +0.145 C 
ATOM     13  C   UNL     1      -4.892 -12.091  18.926  0.00  0.00    +0.034 C 
ATOM     14  C   UNL     1      -5.739 -11.247  19.875  0.00  0.00    +0.036 C 
ENDROOT
BRANCH  12   2
ATOM      2  O   UNL     1      -7.708 -12.594  19.764  0.00  0.00    -0.389 OA
ATOM     35  H   UNL     1      -7.055 -13.038  20.331  0.00  0.00    +0.210 HD
ENDBRANCH  12   2
BRANCH  10  15
ATOM     15  C   UNL     1      -4.409 -12.618  16.517  0.00  0.00    +0.090 C 
BRANCH  15  17
ATOM      3  O   UNL     1      -2.169 -10.368  14.810  0.00  0.00    -0.356 OA
ATOM      8  N   UNL     1      -2.770 -10.871  15.958  0.00  0.00    -0.083 NA
ATOM     17  C   UNL     1      -3.584 -11.839  15.529  0.00  0.00    +0.086 A 
ATOM     18  C   UNL     1      -3.538 -11.992  14.132  0.00  0.00    +0.074 A 
ATOM     20  C   UNL     1      -2.636 -11.045  13.729  0.00  0.00    +0.175 A 
BRANCH  20  21
ATOM     21  C   UNL     1      -2.101 -10.641  12.422  0.00  0.00    +0.306 C 
BRANCH  21   5
ATOM      5  O   UNL     1      -2.629 -11.478  11.390  0.00  0.00    -0.484 OA
BRANCH   5  25
ATOM     25  C   UNL     1      -3.359 -10.857  10.416  0.00  0.00    +0.121 A 
ATOM     29  C   UNL     1      -3.307  -9.469  10.284  0.00  0.00    +0.045 A 
ATOM     30  C   UNL     1      -4.157 -11.609   9.555  0.00  0.00    +0.045 A 
ATOM     31  C   UNL     1      -4.052  -8.835   9.290  0.00  0.00    +0.004 A 
ATOM     32  C   UNL     1      -4.902 -10.976   8.562  0.00  0.00    +0.004 A 
ATOM     33  C   UNL     1      -4.850  -9.587   8.429  0.00  0.00    +0.000 A 
ENDBRANCH   5  25
ENDBRANCH  21   5
ENDBRANCH  20  21
ENDBRANCH  15  17
ENDBRANCH  10  15
BRANCH  11  16
ATOM     16  C   UNL     1      -7.275  -9.519  17.632  0.00  0.00    +0.140 C 
BRANCH  16   7
ATOM      4  O   UNL     1      -9.120  -8.804  15.561  0.00  0.00    -0.253 OA
ATOM      7  N   UNL     1      -8.520  -8.832  17.794  0.00  0.00    -0.297 N 
ATOM      9  N   UNL     1     -10.515  -7.845  17.186  0.00  0.00    -0.269 N 
ATOM     19  C   UNL     1      -9.377  -8.513  16.726  0.00  0.00    +0.304 C 
ATOM     36  H   UNL     1      -8.775  -8.517  18.725  0.00  0.00    +0.150 HD
ATOM     37  H   UNL     1     -10.573  -7.683  18.189  0.00  0.00    +0.156 HD
BRANCH   9  22
ATOM     22  C   UNL     1     -11.605  -7.361  16.426  0.00  0.00    +0.035 A 
ATOM     23  C   UNL     1     -11.464  -6.201  15.664  0.00  0.00    +0.027 A 
ATOM     24  C   UNL     1     -12.821  -8.045  16.438  0.00  0.00    +0.027 A 
ATOM     26  C   UNL     1     -12.539  -5.726  14.914  0.00  0.00    +0.047 A 
ATOM     27  C   UNL     1     -13.896  -7.569  15.688  0.00  0.00    +0.047 A 
ATOM     28  C   UNL     1     -13.755  -6.408  14.927  0.00  0.00    +0.120 A 
BRANCH  28   6
ATOM      6  O   UNL     1     -14.804  -5.944  14.195  0.00  0.00    -0.495 OA
ATOM     34  C   UNL     1     -14.610  -5.822  12.787  0.00  0.00    +0.277 C 
ENDBRANCH  28   6
ENDBRANCH   9  22
ENDBRANCH  16   7
ENDBRANCH  11  16
TORSDOF 10
ENDMDL
MODEL 7
REMARK VINA RESULT:      -7.2     16.114     18.256
REMARK  Name = 75536331
REMARK  11 active torsions:
REMARK  status: ('A' for Active; 'I' for Inactive)
REMARK    1  A    between atoms: O_2  and  C_12
REMARK    2  A    between atoms: O_5  and  C_21
REMARK    3  A    between atoms: O_5  and  C_25
REMARK    4  A    between atoms: O_6  and  C_28
REMARK    5  A    between atoms: O_6  and  C_34
REMARK    6  A    between atoms: N_7  and  C_16
REMARK    7  A    between atoms: N_9  and  C_22
REMARK    8  A    between atoms: C_10  and  C_15
REMARK    9  A    between atoms: C_11  and  C_16
REMARK   10  A    between atoms: C_15  and  C_17
REMARK   11  A    between atoms: C_20  and  C_21
REMARK                            x       y       z     vdW  Elec       q    Type
REMARK                         _______ _______ _______ _____ _____    ______ ____
ROOT
ATOM      1  O   UNL     1     -10.082  -8.853  17.377  0.00  0.00    -0.369 OA
ATOM     10  C   UNL     1     -11.140  -9.795  17.189  0.00  0.00    +0.125 C 
ATOM     11  C   UNL     1     -10.027  -7.797  16.409  0.00  0.00    +0.164 C 
ATOM     12  C   UNL     1      -9.948  -8.352  14.980  0.00  0.00    +0.145 C 
ATOM     13  C   UNL     1     -11.033 -10.462  15.818  0.00  0.00    +0.034 C 
ATOM     14  C   UNL     1     -11.013  -9.413  14.710  0.00  0.00    +0.036 C 
ENDROOT
BRANCH  12   2
ATOM      2  O   UNL     1      -8.669  -8.962  14.792  0.00  0.00    -0.389 OA
ATOM     35  H   UNL     1      -8.109  -8.329  14.312  0.00  0.00    +0.210 HD
ENDBRANCH  12   2
BRANCH  10  15
ATOM     15  C   UNL     1     -11.038 -10.829  18.304  0.00  0.00    +0.090 C 
BRANCH  15  17
ATOM      3  O   UNL     1      -7.891 -11.019  20.051  0.00  0.00    -0.356 OA
ATOM      8  N   UNL     1      -9.243 -10.700  19.980  0.00  0.00    -0.083 NA
ATOM     17  C   UNL     1      -9.613 -11.036  18.742  0.00  0.00    +0.086 A 
ATOM     18  C   UNL     1      -8.549 -11.568  17.993  0.00  0.00    +0.074 A 
ATOM     20  C   UNL     1      -7.491 -11.535  18.861  0.00  0.00    +0.175 A 
BRANCH  20  21
ATOM     21  C   UNL     1      -6.080 -11.929  18.759  0.00  0.00    +0.306 C 
BRANCH  21   5
ATOM      5  O   UNL     1      -5.269 -10.795  18.441  0.00  0.00    -0.484 OA
BRANCH   5  25
ATOM     25  C   UNL     1      -4.743 -10.757  17.181  0.00  0.00    +0.121 A 
ATOM     29  C   UNL     1      -5.542 -10.378  16.102  0.00  0.00    +0.045 A 
ATOM     30  C   UNL     1      -3.408 -11.099  16.972  0.00  0.00    +0.045 A 
ATOM     31  C   UNL     1      -5.005 -10.341  14.815  0.00  0.00    +0.004 A 
ATOM     32  C   UNL     1      -2.870 -11.063  15.686  0.00  0.00    +0.004 A 
ATOM     33  C   UNL     1      -3.670 -10.683  14.606  0.00  0.00    +0.000 A 
ENDBRANCH   5  25
ENDBRANCH  21   5
ENDBRANCH  20  21
ENDBRANCH  15  17
ENDBRANCH  10  15
BRANCH  11  16
ATOM     16  C   UNL     1     -11.176  -6.811  16.603  0.00  0.00    +0.140 C 
BRANCH  16   7
ATOM      4  O   UNL     1     -13.263  -6.303  14.708  0.00  0.00    -0.253 OA
ATOM      7  N   UNL     1     -11.175  -5.814  15.576  0.00  0.00    -0.297 N 
ATOM      9  N   UNL     1     -11.958  -4.580  13.790  0.00  0.00    -0.269 N 
ATOM     19  C   UNL     1     -12.240  -5.623  14.678  0.00  0.00    +0.304 C 
ATOM     36  H   UNL     1     -10.342  -5.246  15.460  0.00  0.00    +0.150 HD
ATOM     37  H   UNL     1     -11.060  -4.117  13.903  0.00  0.00    +0.156 HD
BRANCH   9  22
ATOM     22  C   UNL     1     -12.773  -4.086  12.745  0.00  0.00    +0.035 A 
ATOM     23  C   UNL     1     -14.065  -3.638  13.020  0.00  0.00    +0.027 A 
ATOM     24  C   UNL     1     -12.283  -4.045  11.439  0.00  0.00    +0.027 A 
ATOM     26  C   UNL     1     -14.867  -3.151  11.989  0.00  0.00    +0.047 A 
ATOM     27  C   UNL     1     -13.086  -3.558  10.408  0.00  0.00    +0.047 A 
ATOM     28  C   UNL     1     -14.379  -3.111  10.683  0.00  0.00    +0.120 A 
BRANCH  28   6
ATOM      6  O   UNL     1     -15.162  -2.635   9.677  0.00  0.00    -0.495 OA
ATOM     34  C   UNL     1     -16.143  -1.659  10.024  0.00  0.00    +0.277 C 
ENDBRANCH  28   6
ENDBRANCH   9  22
ENDBRANCH  16   7
ENDBRANCH  11  16
TORSDOF 10
ENDMDL
MODEL 8
REMARK VINA RESULT:      -7.1     15.590     19.191
REMARK  Name = 75536331
REMARK  11 active torsions:
REMARK  status: ('A' for Active; 'I' for Inactive)
REMARK    1  A    between atoms: O_2  and  C_12
REMARK    2  A    between atoms: O_5  and  C_21
REMARK    3  A    between atoms: O_5  and  C_25
REMARK    4  A    between atoms: O_6  and  C_28
REMARK    5  A    between atoms: O_6  and  C_34
REMARK    6  A    between atoms: N_7  and  C_16
REMARK    7  A    between atoms: N_9  and  C_22
REMARK    8  A    between atoms: C_10  and  C_15
REMARK    9  A    between atoms: C_11  and  C_16
REMARK   10  A    between atoms: C_15  and  C_17
REMARK   11  A    between atoms: C_20  and  C_21
REMARK                            x       y       z     vdW  Elec       q    Type
REMARK                         _______ _______ _______ _____ _____    ______ ____
ROOT
ATOM      1  O   UNL     1      -7.238 -11.699  17.251  0.00  0.00    -0.369 OA
ATOM     10  C   UNL     1      -6.847 -10.375  16.886  0.00  0.00    +0.125 C 
ATOM     11  C   UNL     1      -6.550 -12.247  18.384  0.00  0.00    +0.164 C 
ATOM     12  C   UNL     1      -5.029 -12.217  18.182  0.00  0.00    +0.145 C 
ATOM     13  C   UNL     1      -5.354 -10.323  16.559  0.00  0.00    +0.034 C 
ATOM     14  C   UNL     1      -4.530 -10.846  17.732  0.00  0.00    +0.036 C 
ENDROOT
BRANCH  12   2
ATOM      2  O   UNL     1      -4.680 -13.162  17.168  0.00  0.00    -0.389 OA
ATOM     35  H   UNL     1      -3.904 -12.815  16.696  0.00  0.00    +0.210 HD
ENDBRANCH  12   2
BRANCH  10  15
ATOM     15  C   UNL     1      -7.679  -9.967  15.675  0.00  0.00    +0.090 C 
BRANCH  15  17
ATOM      3  O   UNL     1      -9.858  -7.582  17.273  0.00  0.00    -0.356 OA
ATOM      8  N   UNL     1      -8.773  -8.451  17.274  0.00  0.00    -0.083 NA
ATOM     17  C   UNL     1      -8.744  -8.969  16.043  0.00  0.00    +0.086 A 
ATOM     18  C   UNL     1      -9.775  -8.469  15.229  0.00  0.00    +0.074 A 
ATOM     20  C   UNL     1     -10.446  -7.601  16.049  0.00  0.00    +0.175 A 
BRANCH  20  21
ATOM     21  C   UNL     1     -11.617  -6.733  15.870  0.00  0.00    +0.306 C 
BRANCH  21   5
ATOM      5  O   UNL     1     -11.410  -5.841  14.772  0.00  0.00    -0.484 OA
BRANCH   5  25
ATOM     25  C   UNL     1     -12.531  -5.393  14.132  0.00  0.00    +0.121 A 
ATOM     29  C   UNL     1     -13.771  -5.967  14.414  0.00  0.00    +0.045 A 
ATOM     30  C   UNL     1     -12.436  -4.365  13.195  0.00  0.00    +0.045 A 
ATOM     31  C   UNL     1     -14.915  -5.510  13.759  0.00  0.00    +0.004 A 
ATOM     32  C   UNL     1     -13.579  -3.909  12.540  0.00  0.00    +0.004 A 
ATOM     33  C   UNL     1     -14.820  -4.482  12.823  0.00  0.00    +0.000 A 
ENDBRANCH   5  25
ENDBRANCH  21   5
ENDBRANCH  20  21
ENDBRANCH  15  17
ENDBRANCH  10  15
BRANCH  11  16
ATOM     16  C   UNL     1      -6.993 -11.570  19.678  0.00  0.00    +0.140 C 
BRANCH  16   7
ATOM      4  O   UNL     1      -9.787 -12.094  20.035  0.00  0.00    -0.253 OA
ATOM      7  N   UNL     1      -8.073 -10.661  19.437  0.00  0.00    -0.297 N 
ATOM      9  N   UNL     1     -10.250  -9.907  19.320  0.00  0.00    -0.269 N 
ATOM     19  C   UNL     1      -9.425 -10.991  19.635  0.00  0.00    +0.304 C 
ATOM     36  H   UNL     1      -7.853  -9.745  19.059  0.00  0.00    +0.150 HD
ATOM     37  H   UNL     1      -9.787  -9.060  19.001  0.00  0.00    +0.156 HD
BRANCH   9  22
ATOM     22  C   UNL     1     -11.662  -9.842  19.387  0.00  0.00    +0.035 A 
ATOM     23  C   UNL     1     -12.298  -9.763  20.626  0.00  0.00    +0.027 A 
ATOM     24  C   UNL     1     -12.417  -9.857  18.214  0.00  0.00    +0.027 A 
ATOM     26  C   UNL     1     -13.689  -9.698  20.692  0.00  0.00    +0.047 A 
ATOM     27  C   UNL     1     -13.809  -9.793  18.281  0.00  0.00    +0.047 A 
ATOM     28  C   UNL     1     -14.445  -9.714  19.520  0.00  0.00    +0.120 A 
BRANCH  28   6
ATOM      6  O   UNL     1     -15.803  -9.651  19.584  0.00  0.00    -0.495 OA
ATOM     34  C   UNL     1     -16.367  -8.838  20.611  0.00  0.00    +0.277 C 
ENDBRANCH  28   6
ENDBRANCH   9  22
ENDBRANCH  16   7
ENDBRANCH  11  16
TORSDOF 10
ENDMDL
MODEL 9
REMARK VINA RESULT:      -7.1      4.260      9.387
REMARK  Name = 75536331
REMARK  11 active torsions:
REMARK  status: ('A' for Active; 'I' for Inactive)
REMARK    1  A    between atoms: O_2  and  C_12
REMARK    2  A    between atoms: O_5  and  C_21
REMARK    3  A    between atoms: O_5  and  C_25
REMARK    4  A    between atoms: O_6  and  C_28
REMARK    5  A    between atoms: O_6  and  C_34
REMARK    6  A    between atoms: N_7  and  C_16
REMARK    7  A    between atoms: N_9  and  C_22
REMARK    8  A    between atoms: C_10  and  C_15
REMARK    9  A    between atoms: C_11  and  C_16
REMARK   10  A    between atoms: C_15  and  C_17
REMARK   11  A    between atoms: C_20  and  C_21
REMARK                            x       y       z     vdW  Elec       q    Type
REMARK                         _______ _______ _______ _____ _____    ______ ____
ROOT
ATOM      1  O   UNL     1     -10.998   8.752  20.393  0.00  0.00    -0.369 OA
ATOM     10  C   UNL     1     -12.045   7.862  20.001  0.00  0.00    +0.125 C 
ATOM     11  C   UNL     1     -10.964  10.001  19.689  0.00  0.00    +0.164 C 
ATOM     12  C   UNL     1     -10.888   9.784  18.172  0.00  0.00    +0.145 C 
ATOM     13  C   UNL     1     -11.937   7.523  18.515  0.00  0.00    +0.034 C 
ATOM     14  C   UNL     1     -11.940   8.796  17.672  0.00  0.00    +0.036 C 
ENDROOT
BRANCH  12   2
ATOM      2  O   UNL     1      -9.602   9.252  17.846  0.00  0.00    -0.389 OA
ATOM     35  H   UNL     1      -8.954   9.658  18.447  0.00  0.00    +0.210 HD
ENDBRANCH  12   2
BRANCH  10  15
ATOM     15  C   UNL     1     -11.920   6.603  20.853  0.00  0.00    +0.090 C 
BRANCH  15  17
ATOM      3  O   UNL     1     -15.367   6.268  21.852  0.00  0.00    -0.356 OA
ATOM      8  N   UNL     1     -14.338   6.918  21.181  0.00  0.00    -0.083 NA
ATOM     17  C   UNL     1     -13.247   6.190  21.432  0.00  0.00    +0.086 A 
ATOM     18  C   UNL     1     -13.524   5.078  22.247  0.00  0.00    +0.074 A 
ATOM     20  C   UNL     1     -14.869   5.174  22.482  0.00  0.00    +0.175 A 
BRANCH  20  21
ATOM     21  C   UNL     1     -15.827   4.363  23.244  0.00  0.00    +0.306 C 
BRANCH  21   5
ATOM      5  O   UNL     1     -15.507   4.396  24.638  0.00  0.00    -0.484 OA
BRANCH   5  25
ATOM     25  C   UNL     1     -15.985   3.365  25.397  0.00  0.00    +0.121 A 
ATOM     29  C   UNL     1     -16.019   3.479  26.786  0.00  0.00    +0.045 A 
ATOM     30  C   UNL     1     -16.438   2.198  24.782  0.00  0.00    +0.045 A 
ATOM     31  C   UNL     1     -16.507   2.426  27.561  0.00  0.00    +0.004 A 
ATOM     32  C   UNL     1     -16.924   1.145  25.555  0.00  0.00    +0.004 A 
ATOM     33  C   UNL     1     -16.959   1.259  26.946  0.00  0.00    +0.000 A 
ENDBRANCH   5  25
ENDBRANCH  21   5
ENDBRANCH  20  21
ENDBRANCH  15  17
ENDBRANCH  10  15
BRANCH  11  16
ATOM     16  C   UNL     1     -12.126  10.900  20.106  0.00  0.00    +0.140 C 
BRANCH  16   7
ATOM      4  O   UNL     1     -12.944   9.877  22.653  0.00  0.00    -0.253 OA
ATOM      7  N   UNL     1     -11.881  11.494  21.385  0.00  0.00    -0.297 N 
ATOM      9  N   UNL     1     -11.934  11.731  23.679  0.00  0.00    -0.269 N 
ATOM     19  C   UNL     1     -12.316  10.931  22.598  0.00  0.00    +0.304 C 
ATOM     36  H   UNL     1     -11.410  12.392  21.414  0.00  0.00    +0.150 HD
ATOM     37  H   UNL     1     -11.415  12.577  23.459  0.00  0.00    +0.156 HD
BRANCH   9  22
ATOM     22  C   UNL     1     -12.181  11.508  25.054  0.00  0.00    +0.035 A 
ATOM     23  C   UNL     1     -13.300  12.077  25.663  0.00  0.00    +0.027 A 
ATOM     24  C   UNL     1     -11.307  10.718  25.801  0.00  0.00    +0.027 A 
ATOM     26  C   UNL     1     -13.543  11.857  27.018  0.00  0.00    +0.047 A 
ATOM     27  C   UNL     1     -11.550  10.499  27.156  0.00  0.00    +0.047 A 
ATOM     28  C   UNL     1     -12.669  11.068  27.765  0.00  0.00    +0.120 A 
BRANCH  28   6
ATOM      6  O   UNL     1     -12.907  10.853  29.088  0.00  0.00    -0.495 OA
ATOM     34  C   UNL     1     -11.888  10.186  29.831  0.00  0.00    +0.277 C 
ENDBRANCH  28   6
ENDBRANCH   9  22
ENDBRANCH  16   7
ENDBRANCH  11  16
TORSDOF 10
ENDMDL
MODEL 10
REMARK VINA RESULT:      -7.1     20.894     23.388
REMARK  Name = 75536331
REMARK  11 active torsions:
REMARK  status: ('A' for Active; 'I' for Inactive)
REMARK    1  A    between atoms: O_2  and  C_12
REMARK    2  A    between atoms: O_5  and  C_21
REMARK    3  A    between atoms: O_5  and  C_25
REMARK    4  A    between atoms: O_6  and  C_28
REMARK    5  A    between atoms: O_6  and  C_34
REMARK    6  A    between atoms: N_7  and  C_16
REMARK    7  A    between atoms: N_9  and  C_22
REMARK    8  A    between atoms: C_10  and  C_15
REMARK    9  A    between atoms: C_11  and  C_16
REMARK   10  A    between atoms: C_15  and  C_17
REMARK   11  A    between atoms: C_20  and  C_21
REMARK                            x       y       z     vdW  Elec       q    Type
REMARK                         _______ _______ _______ _____ _____    ______ ____
ROOT
ATOM      1  O   UNL     1      -6.870 -11.914  17.078  0.00  0.00    -0.369 OA
ATOM     10  C   UNL     1      -5.564 -12.425  17.352  0.00  0.00    +0.125 C 
ATOM     11  C   UNL     1      -7.047 -10.517  17.346  0.00  0.00    +0.164 C 
ATOM     12  C   UNL     1      -6.675 -10.176  18.796  0.00  0.00    +0.145 C 
ATOM     13  C   UNL     1      -5.198 -12.212  18.821  0.00  0.00    +0.034 C 
ATOM     14  C   UNL     1      -5.312 -10.736  19.193  0.00  0.00    +0.036 C 
ENDROOT
BRANCH  12   2
ATOM      2  O   UNL     1      -7.652 -10.747  19.669  0.00  0.00    -0.389 OA
ATOM     35  H   UNL     1      -8.493 -10.286  19.512  0.00  0.00    +0.210 HD
ENDBRANCH  12   2
BRANCH  10  15
ATOM     15  C   UNL     1      -5.570 -13.910  17.006  0.00  0.00    +0.090 C 
BRANCH  15  17
ATOM      3  O   UNL     1      -3.244 -15.415  14.701  0.00  0.00    -0.356 OA
ATOM      8  N   UNL     1      -4.098 -15.466  15.796  0.00  0.00    -0.083 NA
ATOM     17  C   UNL     1      -4.590 -14.229  15.909  0.00  0.00    +0.086 A 
ATOM     18  C   UNL     1      -4.089 -13.364  14.921  0.00  0.00    +0.074 A 
ATOM     20  C   UNL     1      -3.247 -14.158  14.189  0.00  0.00    +0.175 A 
BRANCH  20  21
ATOM     21  C   UNL     1      -2.393 -13.925  13.017  0.00  0.00    +0.306 C 
BRANCH  21   5
ATOM      5  O   UNL     1      -1.902 -12.581  13.021  0.00  0.00    -0.484 OA
BRANCH   5  25
ATOM     25  C   UNL     1      -2.399 -11.749  12.058  0.00  0.00    +0.121 A 
ATOM     29  C   UNL     1      -3.367 -12.212  11.168  0.00  0.00    +0.045 A 
ATOM     30  C   UNL     1      -1.937 -10.437  11.965  0.00  0.00    +0.045 A 
ATOM     31  C   UNL     1      -3.874 -11.361  10.185  0.00  0.00    +0.004 A 
ATOM     32  C   UNL     1      -2.442  -9.587  10.982  0.00  0.00    +0.004 A 
ATOM     33  C   UNL     1      -3.412 -10.049  10.091  0.00  0.00    +0.000 A 
ENDBRANCH   5  25
ENDBRANCH  21   5
ENDBRANCH  20  21
ENDBRANCH  15  17
ENDBRANCH  10  15
BRANCH  11  16
ATOM     16  C   UNL     1      -6.304  -9.661  16.323  0.00  0.00    +0.140 C 
BRANCH  16   7
ATOM      4  O   UNL     1      -5.397 -10.323  13.688  0.00  0.00    -0.253 OA
ATOM      7  N   UNL     1      -7.052  -9.551  15.108  0.00  0.00    -0.297 N 
ATOM      9  N   UNL     1      -7.493  -9.684  12.847  0.00  0.00    -0.269 N 
ATOM     19  C   UNL     1      -6.538  -9.895  13.845  0.00  0.00    +0.304 C 
ATOM     36  H   UNL     1      -7.987  -9.158  15.154  0.00  0.00    +0.150 HD
ATOM     37  H   UNL     1      -8.395  -9.324  13.149  0.00  0.00    +0.156 HD
BRANCH   9  22
ATOM     22  C   UNL     1      -7.361  -9.909  11.457  0.00  0.00    +0.035 A 
ATOM     23  C   UNL     1      -7.597 -11.179  10.930  0.00  0.00    +0.027 A 
ATOM     24  C   UNL     1      -6.995  -8.860  10.613  0.00  0.00    +0.027 A 
ATOM     26  C   UNL     1      -7.466 -11.400   9.559  0.00  0.00    +0.047 A 
ATOM     27  C   UNL     1      -6.864  -9.082   9.242  0.00  0.00    +0.047 A 
ATOM     28  C   UNL     1      -7.099 -10.352   8.715  0.00  0.00    +0.120 A 
BRANCH  28   6
ATOM      6  O   UNL     1      -6.973 -10.568   7.378  0.00  0.00    -0.495 OA
ATOM     34  C   UNL     1      -5.691 -10.328   6.800  0.00  0.00    +0.277 C 
ENDBRANCH  28   6
ENDBRANCH   9  22
ENDBRANCH  16   7
ENDBRANCH  11  16
TORSDOF 10
ENDMDL
