MODEL 1
REMARK VINA RESULT:      -7.6      0.000      0.000
REMARK  Name = 38027244
REMARK  13 active torsions:
REMARK  status: ('A' for Active; 'I' for Inactive)
REMARK    1  A    between atoms: S_1  and  N_7
REMARK    2  A    between atoms: S_1  and  C_27
REMARK    3  A    between atoms: N_6  and  C_20
REMARK    4  A    between atoms: N_7  and  C_17
REMARK    5  A    between atoms: N_8  and  C_32
REMARK    6  A    between atoms: C_9  and  C_13
REMARK    7  A    between atoms: C_10  and  C_17
REMARK    8  A    between atoms: C_12  and  C_16
REMARK    9  A    between atoms: C_13  and  C_18
REMARK   10  A    between atoms: C_13  and  C_19
REMARK   11  A    between atoms: C_14  and  C_21
REMARK   12  A    between atoms: C_16  and  C_22
REMARK   13  A    between atoms: C_33  and  C_34
REMARK                            x       y       z     vdW  Elec       q    Type
REMARK                         _______ _______ _______ _____ _____    ______ ____
ROOT
ATOM      9  C   UNL     1      16.697   8.644  21.203  0.00  0.00    +0.000 C 
ATOM     10  C   UNL     1      16.113   7.780  20.058  0.00  0.00    +0.030 C 
ATOM     11  C   UNL     1      18.221   8.770  21.056  0.00  0.00    +0.012 C 
ATOM     12  C   UNL     1      18.922   7.399  21.073  0.00  0.00    +0.023 C 
ATOM     14  C   UNL     1      18.234   6.402  20.162  0.00  0.00    -0.073 C 
ATOM     15  C   UNL     1      16.984   6.597  19.707  0.00  0.00    -0.023 C 
ATOM     21  C   UNL     1      19.035   5.199  19.748  0.00  0.00    +0.039 C 
ENDROOT
BRANCH   9  13
ATOM     13  C   UNL     1      16.063  10.039  21.242  0.00  0.00    -0.013 C 
ATOM     18  C   UNL     1      16.792  10.927  22.245  0.00  0.00    +0.007 C 
ATOM     19  C   UNL     1      16.076  10.669  19.853  0.00  0.00    +0.007 C 
ENDBRANCH   9  13
BRANCH  12  16
ATOM     16  C   UNL     1      19.031   6.852  22.502  0.00  0.00    +0.103 C 
BRANCH  16  22
ATOM      2  O   UNL     1      21.064   7.560  23.606  0.00  0.00    -0.276 OA
ATOM      6  N   UNL     1      21.009   5.510  22.514  0.00  0.00    -0.312 N 
ATOM     22  C   UNL     1      20.468   6.711  22.948  0.00  0.00    +0.214 C 
ATOM     35  H   UNL     1      20.417   4.856  22.009  0.00  0.00    +0.149 HD
BRANCH   6  20
ATOM     20  C   UNL     1      22.366   5.110  22.792  0.00  0.00    +0.073 C 
ATOM     23  C   UNL     1      23.324   5.569  21.700  0.00  0.00    +0.022 C 
ATOM     24  C   UNL     1      22.528   3.595  22.768  0.00  0.00    +0.022 C 
ATOM     25  C   UNL     1      23.184   4.519  20.601  0.00  0.00    +0.002 C 
ATOM     26  C   UNL     1      22.713   3.241  21.293  0.00  0.00    +0.002 C 
ENDBRANCH   6  20
ENDBRANCH  16  22
ENDBRANCH  12  16
BRANCH  10  17
ATOM     17  C   UNL     1      14.701   7.291  20.398  0.00  0.00    +0.113 C 
BRANCH  17   7
ATOM      7  N   UNL     1      13.761   7.788  19.380  0.00  0.00    -0.189 NA
ATOM     36  H   UNL     1      14.078   8.576  18.803  0.00  0.00    +0.148 HD
BRANCH   7   1
ATOM      1  S   UNL     1      12.083   7.584  19.589  0.00  0.00    +0.058 S 
ATOM      3  O   UNL     1      11.836   6.327  20.272  0.00  0.00    -0.153 OA
ATOM      4  O   UNL     1      11.408   7.880  18.340  0.00  0.00    -0.153 OA
BRANCH   1  27
ATOM     27  C   UNL     1      11.698   8.897  20.708  0.00  0.00    +0.105 A 
ATOM     28  C   UNL     1      12.283  10.152  20.539  0.00  0.00    +0.030 A 
ATOM     29  C   UNL     1      10.808   8.678  21.760  0.00  0.00    +0.030 A 
ATOM     30  C   UNL     1      11.979  11.188  21.422  0.00  0.00    +0.025 A 
ATOM     31  C   UNL     1      10.504   9.714  22.643  0.00  0.00    +0.025 A 
ATOM     32  C   UNL     1      11.090  10.969  22.473  0.00  0.00    +0.033 A 
BRANCH  32   8
ATOM      5  O   UNL     1      11.448  11.165  25.457  0.00  0.00    -0.276 OA
ATOM      8  N   UNL     1      10.786  12.006  23.357  0.00  0.00    -0.286 N 
ATOM     33  C   UNL     1      10.973  12.044  24.745  0.00  0.00    +0.214 C 
ATOM     34  C   UNL     1      10.513  13.352  25.337  0.00  0.00    +0.109 C 
ATOM     37  H   UNL     1      10.375  12.833  22.929  0.00  0.00    +0.155 HD
ENDBRANCH  32   8
ENDBRANCH   1  27
ENDBRANCH   7   1
ENDBRANCH  17   7
ENDBRANCH  10  17
TORSDOF 9
ENDMDL
MODEL 2
REMARK VINA RESULT:      -7.6      2.738      4.874
REMARK  Name = 38027244
REMARK  13 active torsions:
REMARK  status: ('A' for Active; 'I' for Inactive)
REMARK    1  A    between atoms: S_1  and  N_7
REMARK    2  A    between atoms: S_1  and  C_27
REMARK    3  A    between atoms: N_6  and  C_20
REMARK    4  A    between atoms: N_7  and  C_17
REMARK    5  A    between atoms: N_8  and  C_32
REMARK    6  A    between atoms: C_9  and  C_13
REMARK    7  A    between atoms: C_10  and  C_17
REMARK    8  A    between atoms: C_12  and  C_16
REMARK    9  A    between atoms: C_13  and  C_18
REMARK   10  A    between atoms: C_13  and  C_19
REMARK   11  A    between atoms: C_14  and  C_21
REMARK   12  A    between atoms: C_16  and  C_22
REMARK   13  A    between atoms: C_33  and  C_34
REMARK                            x       y       z     vdW  Elec       q    Type
REMARK                         _______ _______ _______ _____ _____    ______ ____
ROOT
ATOM      9  C   UNL     1      17.042   7.569  20.654  0.00  0.00    +0.000 C 
ATOM     10  C   UNL     1      15.702   7.288  21.378  0.00  0.00    +0.030 C 
ATOM     11  C   UNL     1      17.893   8.557  21.466  0.00  0.00    +0.012 C 
ATOM     12  C   UNL     1      17.171   9.897  21.694  0.00  0.00    +0.023 C 
ATOM     14  C   UNL     1      15.742   9.697  22.156  0.00  0.00    -0.073 C 
ATOM     15  C   UNL     1      15.107   8.520  22.020  0.00  0.00    -0.023 C 
ATOM     21  C   UNL     1      15.075  10.868  22.823  0.00  0.00    +0.039 C 
ENDROOT
BRANCH   9  13
ATOM     13  C   UNL     1      17.835   6.282  20.407  0.00  0.00    -0.013 C 
ATOM     18  C   UNL     1      17.631   5.797  18.976  0.00  0.00    +0.007 C 
ATOM     19  C   UNL     1      19.317   6.505  20.695  0.00  0.00    +0.007 C 
ENDBRANCH   9  13
BRANCH  12  16
ATOM     16  C   UNL     1      17.222  10.773  20.435  0.00  0.00    +0.103 C 
BRANCH  16  22
ATOM      2  O   UNL     1      18.676  12.335  21.578  0.00  0.00    -0.276 OA
ATOM      6  N   UNL     1      18.790  12.147  19.265  0.00  0.00    -0.312 N 
ATOM     22  C   UNL     1      18.300  11.831  20.523  0.00  0.00    +0.214 C 
ATOM     35  H   UNL     1      18.439  11.641  18.456  0.00  0.00    +0.149 HD
BRANCH   6  20
ATOM     20  C   UNL     1      19.824  13.127  19.045  0.00  0.00    +0.073 C 
ATOM     23  C   UNL     1      19.784  13.680  17.627  0.00  0.00    +0.022 C 
ATOM     24  C   UNL     1      21.216  12.513  19.128  0.00  0.00    +0.022 C 
ATOM     25  C   UNL     1      20.519  12.639  16.787  0.00  0.00    +0.002 C 
ATOM     26  C   UNL     1      21.469  11.918  17.743  0.00  0.00    +0.002 C 
ENDBRANCH   6  20
ENDBRANCH  16  22
ENDBRANCH  12  16
BRANCH  10  17
ATOM     17  C   UNL     1      14.677   6.663  20.425  0.00  0.00    +0.113 C 
BRANCH  17   7
ATOM      7  N   UNL     1      13.469   6.305  21.185  0.00  0.00    -0.189 NA
ATOM     36  H   UNL     1      13.552   5.522  21.845  0.00  0.00    +0.148 HD
BRANCH   7   1
ATOM      1  S   UNL     1      11.925   6.647  20.552  0.00  0.00    +0.058 S 
ATOM      3  O   UNL     1      10.983   5.648  21.024  0.00  0.00    -0.153 OA
ATOM      4  O   UNL     1      12.043   6.923  19.133  0.00  0.00    -0.153 OA
BRANCH   1  27
ATOM     27  C   UNL     1      11.541   8.178  21.347  0.00  0.00    +0.105 A 
ATOM     28  C   UNL     1      11.929   9.383  20.762  0.00  0.00    +0.030 A 
ATOM     29  C   UNL     1      10.849   8.180  22.558  0.00  0.00    +0.030 A 
ATOM     30  C   UNL     1      11.625  10.592  21.389  0.00  0.00    +0.025 A 
ATOM     31  C   UNL     1      10.546   9.389  23.185  0.00  0.00    +0.025 A 
ATOM     32  C   UNL     1      10.935  10.594  22.600  0.00  0.00    +0.033 A 
BRANCH  32   8
ATOM      5  O   UNL     1      11.582  11.575  25.372  0.00  0.00    -0.276 OA
ATOM      8  N   UNL     1      10.632  11.803  23.228  0.00  0.00    -0.286 N 
ATOM     33  C   UNL     1      10.958  12.210  24.528  0.00  0.00    +0.214 C 
ATOM     34  C   UNL     1      10.445  13.596  24.827  0.00  0.00    +0.109 C 
ATOM     37  H   UNL     1      10.105  12.466  22.661  0.00  0.00    +0.155 HD
ENDBRANCH  32   8
ENDBRANCH   1  27
ENDBRANCH   7   1
ENDBRANCH  17   7
ENDBRANCH  10  17
TORSDOF 9
ENDMDL
MODEL 3
REMARK VINA RESULT:      -7.3      2.595      5.309
REMARK  Name = 38027244
REMARK  13 active torsions:
REMARK  status: ('A' for Active; 'I' for Inactive)
REMARK    1  A    between atoms: S_1  and  N_7
REMARK    2  A    between atoms: S_1  and  C_27
REMARK    3  A    between atoms: N_6  and  C_20
REMARK    4  A    between atoms: N_7  and  C_17
REMARK    5  A    between atoms: N_8  and  C_32
REMARK    6  A    between atoms: C_9  and  C_13
REMARK    7  A    between atoms: C_10  and  C_17
REMARK    8  A    between atoms: C_12  and  C_16
REMARK    9  A    between atoms: C_13  and  C_18
REMARK   10  A    between atoms: C_13  and  C_19
REMARK   11  A    between atoms: C_14  and  C_21
REMARK   12  A    between atoms: C_16  and  C_22
REMARK   13  A    between atoms: C_33  and  C_34
REMARK                            x       y       z     vdW  Elec       q    Type
REMARK                         _______ _______ _______ _____ _____    ______ ____
ROOT
ATOM      9  C   UNL     1      16.872   7.546  20.641  0.00  0.00    +0.000 C 
ATOM     10  C   UNL     1      15.565   7.265  21.423  0.00  0.00    +0.030 C 
ATOM     11  C   UNL     1      17.745   8.555  21.402  0.00  0.00    +0.012 C 
ATOM     12  C   UNL     1      17.019   9.893  21.637  0.00  0.00    +0.023 C 
ATOM     14  C   UNL     1      15.611   9.686  22.159  0.00  0.00    -0.073 C 
ATOM     15  C   UNL     1      14.984   8.501  22.067  0.00  0.00    -0.023 C 
ATOM     21  C   UNL     1      14.960  10.862  22.832  0.00  0.00    +0.039 C 
ENDROOT
BRANCH   9  13
ATOM     13  C   UNL     1      17.668   6.262  20.383  0.00  0.00    -0.013 C 
ATOM     18  C   UNL     1      17.513   5.822  18.931  0.00  0.00    +0.007 C 
ATOM     19  C   UNL     1      19.139   6.468  20.732  0.00  0.00    +0.007 C 
ENDBRANCH   9  13
BRANCH  12  16
ATOM     16  C   UNL     1      17.012  10.748  20.363  0.00  0.00    +0.103 C 
BRANCH  16  22
ATOM      2  O   UNL     1      18.663  12.275  19.471  0.00  0.00    -0.276 OA
ATOM      6  N   UNL     1      18.087  12.397  21.719  0.00  0.00    -0.312 N 
ATOM     22  C   UNL     1      18.011  11.880  20.434  0.00  0.00    +0.214 C 
ATOM     35  H   UNL     1      17.472  12.026  22.438  0.00  0.00    +0.149 HD
BRANCH   6  20
ATOM     20  C   UNL     1      18.961  13.486  22.080  0.00  0.00    +0.073 C 
ATOM     23  C   UNL     1      19.439  13.369  23.522  0.00  0.00    +0.022 C 
ATOM     24  C   UNL     1      18.235  14.825  22.073  0.00  0.00    +0.022 C 
ATOM     25  C   UNL     1      18.295  13.942  24.353  0.00  0.00    +0.002 C 
ATOM     26  C   UNL     1      17.547  14.909  23.435  0.00  0.00    +0.002 C 
ENDBRANCH   6  20
ENDBRANCH  16  22
ENDBRANCH  12  16
BRANCH  10  17
ATOM     17  C   UNL     1      14.509   6.615  20.521  0.00  0.00    +0.113 C 
BRANCH  17   7
ATOM      7  N   UNL     1      13.750   7.670  19.831  0.00  0.00    -0.189 NA
ATOM     36  H   UNL     1      14.202   8.588  19.752  0.00  0.00    +0.148 HD
BRANCH   7   1
ATOM      1  S   UNL     1      12.048   7.618  19.797  0.00  0.00    +0.058 S 
ATOM      3  O   UNL     1      11.597   6.353  20.348  0.00  0.00    -0.153 OA
ATOM      4  O   UNL     1      11.585   8.051  18.492  0.00  0.00    -0.153 OA
BRANCH   1  27
ATOM     27  C   UNL     1      11.625   8.894  20.944  0.00  0.00    +0.105 A 
ATOM     28  C   UNL     1      11.945  10.222  20.659  0.00  0.00    +0.030 A 
ATOM     29  C   UNL     1      10.971   8.574  22.134  0.00  0.00    +0.030 A 
ATOM     30  C   UNL     1      11.611  11.229  21.565  0.00  0.00    +0.025 A 
ATOM     31  C   UNL     1      10.638   9.581  23.039  0.00  0.00    +0.025 A 
ATOM     32  C   UNL     1      10.958  10.908  22.754  0.00  0.00    +0.033 A 
BRANCH  32   8
ATOM      5  O   UNL     1      12.084  11.545  25.473  0.00  0.00    -0.276 OA
ATOM      8  N   UNL     1      10.624  11.916  23.660  0.00  0.00    -0.286 N 
ATOM     33  C   UNL     1      11.183  12.167  24.920  0.00  0.00    +0.214 C 
ATOM     34  C   UNL     1      10.542  13.356  25.590  0.00  0.00    +0.109 C 
ATOM     37  H   UNL     1       9.879  12.541  23.359  0.00  0.00    +0.155 HD
ENDBRANCH  32   8
ENDBRANCH   1  27
ENDBRANCH   7   1
ENDBRANCH  17   7
ENDBRANCH  10  17
TORSDOF 9
ENDMDL
MODEL 4
REMARK VINA RESULT:      -7.1     27.696     30.407
REMARK  Name = 38027244
REMARK  13 active torsions:
REMARK  status: ('A' for Active; 'I' for Inactive)
REMARK    1  A    between atoms: S_1  and  N_7
REMARK    2  A    between atoms: S_1  and  C_27
REMARK    3  A    between atoms: N_6  and  C_20
REMARK    4  A    between atoms: N_7  and  C_17
REMARK    5  A    between atoms: N_8  and  C_32
REMARK    6  A    between atoms: C_9  and  C_13
REMARK    7  A    between atoms: C_10  and  C_17
REMARK    8  A    between atoms: C_12  and  C_16
REMARK    9  A    between atoms: C_13  and  C_18
REMARK   10  A    between atoms: C_13  and  C_19
REMARK   11  A    between atoms: C_14  and  C_21
REMARK   12  A    between atoms: C_16  and  C_22
REMARK   13  A    between atoms: C_33  and  C_34
REMARK                            x       y       z     vdW  Elec       q    Type
REMARK                         _______ _______ _______ _____ _____    ______ ____
ROOT
ATOM      9  C   UNL     1      -4.332 -11.585  12.378  0.00  0.00    +0.000 C 
ATOM     10  C   UNL     1      -3.207 -10.996  11.491  0.00  0.00    +0.030 C 
ATOM     11  C   UNL     1      -5.690 -11.463  11.670  0.00  0.00    +0.012 C 
ATOM     12  C   UNL     1      -6.045 -10.002  11.339  0.00  0.00    +0.023 C 
ATOM     14  C   UNL     1      -4.881  -9.270  10.700  0.00  0.00    -0.073 C 
ATOM     15  C   UNL     1      -3.623  -9.738  10.766  0.00  0.00    -0.023 C 
ATOM     21  C   UNL     1      -5.206  -8.013   9.941  0.00  0.00    +0.039 C 
ENDROOT
BRANCH   9  13
ATOM     13  C   UNL     1      -4.064 -13.050  12.737  0.00  0.00    -0.013 C 
ATOM     18  C   UNL     1      -4.991 -13.500  13.861  0.00  0.00    +0.007 C 
ATOM     19  C   UNL     1      -4.232 -13.940  11.509  0.00  0.00    +0.007 C 
ENDBRANCH   9  13
BRANCH  12  16
ATOM     16  C   UNL     1      -6.543  -9.258  12.584  0.00  0.00    +0.103 C 
BRANCH  16  22
ATOM      2  O   UNL     1      -8.780 -10.029  12.075  0.00  0.00    -0.276 OA
ATOM      6  N   UNL     1      -8.282  -9.296  14.223  0.00  0.00    -0.312 N 
ATOM     22  C   UNL     1      -7.986  -9.579  12.898  0.00  0.00    +0.214 C 
ATOM     35  H   UNL     1      -7.541  -8.965  14.835  0.00  0.00    +0.149 HD
BRANCH   6  20
ATOM     20  C   UNL     1      -9.587  -9.503  14.802  0.00  0.00    +0.073 C 
ATOM     23  C   UNL     1     -10.417  -8.226  14.789  0.00  0.00    +0.022 C 
ATOM     24  C   UNL     1      -9.504  -9.837  16.286  0.00  0.00    +0.022 C 
ATOM     25  C   UNL     1      -9.940  -7.446  16.012  0.00  0.00    +0.002 C 
ATOM     26  C   UNL     1      -9.393  -8.485  16.989  0.00  0.00    +0.002 C 
ENDBRANCH   6  20
ENDBRANCH  16  22
ENDBRANCH  12  16
BRANCH  10  17
ATOM     17  C   UNL     1      -1.943 -10.718  12.312  0.00  0.00    +0.113 C 
BRANCH  17   7
ATOM      7  N   UNL     1      -2.327 -10.121  13.601  0.00  0.00    -0.189 NA
ATOM     36  H   UNL     1      -2.552  -9.120  13.598  0.00  0.00    +0.148 HD
BRANCH   7   1
ATOM      1  S   UNL     1      -1.780 -10.807  15.061  0.00  0.00    +0.058 S 
ATOM      3  O   UNL     1      -0.802  -9.922  15.667  0.00  0.00    -0.153 OA
ATOM      4  O   UNL     1      -1.459 -12.204  14.839  0.00  0.00    -0.153 OA
BRANCH   1  27
ATOM     27  C   UNL     1      -3.243 -10.763  16.050  0.00  0.00    +0.105 A 
ATOM     28  C   UNL     1      -4.434 -10.274  15.513  0.00  0.00    +0.030 A 
ATOM     29  C   UNL     1      -3.208 -11.219  17.368  0.00  0.00    +0.030 A 
ATOM     30  C   UNL     1      -5.589 -10.241  16.294  0.00  0.00    +0.025 A 
ATOM     31  C   UNL     1      -4.363 -11.184  18.149  0.00  0.00    +0.025 A 
ATOM     32  C   UNL     1      -5.554 -10.695  17.611  0.00  0.00    +0.033 A 
BRANCH  32   8
ATOM      5  O   UNL     1      -7.346 -12.925  18.551  0.00  0.00    -0.276 OA
ATOM      8  N   UNL     1      -6.709 -10.660  18.392  0.00  0.00    -0.286 N 
ATOM     33  C   UNL     1      -7.511 -11.735  18.801  0.00  0.00    +0.214 C 
ATOM     34  C   UNL     1      -8.677 -11.277  19.640  0.00  0.00    +0.109 C 
ATOM     37  H   UNL     1      -7.000  -9.733  18.697  0.00  0.00    +0.155 HD
ENDBRANCH  32   8
ENDBRANCH   1  27
ENDBRANCH   7   1
ENDBRANCH  17   7
ENDBRANCH  10  17
TORSDOF 9
ENDMDL
MODEL 5
REMARK VINA RESULT:      -7.0     27.614     31.857
REMARK  Name = 38027244
REMARK  13 active torsions:
REMARK  status: ('A' for Active; 'I' for Inactive)
REMARK    1  A    between atoms: S_1  and  N_7
REMARK    2  A    between atoms: S_1  and  C_27
REMARK    3  A    between atoms: N_6  and  C_20
REMARK    4  A    between atoms: N_7  and  C_17
REMARK    5  A    between atoms: N_8  and  C_32
REMARK    6  A    between atoms: C_9  and  C_13
REMARK    7  A    between atoms: C_10  and  C_17
REMARK    8  A    between atoms: C_12  and  C_16
REMARK    9  A    between atoms: C_13  and  C_18
REMARK   10  A    between atoms: C_13  and  C_19
REMARK   11  A    between atoms: C_14  and  C_21
REMARK   12  A    between atoms: C_16  and  C_22
REMARK   13  A    between atoms: C_33  and  C_34
REMARK                            x       y       z     vdW  Elec       q    Type
REMARK                         _______ _______ _______ _____ _____    ______ ____
ROOT
ATOM      9  C   UNL     1     -15.954   6.053  21.216  0.00  0.00    +0.000 C 
ATOM     10  C   UNL     1     -14.906   5.082  21.815  0.00  0.00    +0.030 C 
ATOM     11  C   UNL     1     -15.405   6.716  19.943  0.00  0.00    +0.012 C 
ATOM     12  C   UNL     1     -14.108   7.502  20.211  0.00  0.00    +0.023 C 
ATOM     14  C   UNL     1     -13.121   6.699  21.036  0.00  0.00    -0.073 C 
ATOM     15  C   UNL     1     -13.494   5.613  21.734  0.00  0.00    -0.023 C 
ATOM     21  C   UNL     1     -11.687   7.147  21.000  0.00  0.00    +0.039 C 
ENDROOT
BRANCH   9  13
ATOM     13  C   UNL     1     -17.274   5.341  20.901  0.00  0.00    -0.013 C 
ATOM     18  C   UNL     1     -18.458   6.225  21.275  0.00  0.00    +0.007 C 
ATOM     19  C   UNL     1     -17.332   4.954  19.426  0.00  0.00    +0.007 C 
ENDBRANCH   9  13
BRANCH  12  16
ATOM     16  C   UNL     1     -14.407   8.852  20.874  0.00  0.00    +0.103 C 
BRANCH  16  22
ATOM      2  O   UNL     1     -13.755  11.161  20.561  0.00  0.00    -0.276 OA
ATOM      6  N   UNL     1     -12.980   9.543  19.085  0.00  0.00    -0.312 N 
ATOM     22  C   UNL     1     -13.694   9.994  20.185  0.00  0.00    +0.214 C 
ATOM     35  H   UNL     1     -12.961   8.547  18.882  0.00  0.00    +0.149 HD
BRANCH   6  20
ATOM     20  C   UNL     1     -12.205  10.414  18.236  0.00  0.00    +0.073 C 
ATOM     23  C   UNL     1     -11.835   9.738  16.923  0.00  0.00    +0.022 C 
ATOM     24  C   UNL     1     -10.846  10.738  18.844  0.00  0.00    +0.022 C 
ATOM     25  C   UNL     1     -10.611   8.890  17.259  0.00  0.00    +0.002 C 
ATOM     26  C   UNL     1      -9.953   9.557  18.466  0.00  0.00    +0.002 C 
ENDBRANCH   6  20
ENDBRANCH  16  22
ENDBRANCH  12  16
BRANCH  10  17
ATOM     17  C   UNL     1     -15.239   4.737  23.271  0.00  0.00    +0.113 C 
BRANCH  17   7
ATOM      7  N   UNL     1     -15.545   3.300  23.367  0.00  0.00    -0.189 NA
ATOM     36  H   UNL     1     -15.025   2.674  22.741  0.00  0.00    +0.148 HD
BRANCH   7   1
ATOM      1  S   UNL     1     -17.070   2.783  23.919  0.00  0.00    +0.058 S 
ATOM      3  O   UNL     1     -17.442   1.564  23.224  0.00  0.00    -0.153 OA
ATOM      4  O   UNL     1     -17.977   3.915  23.941  0.00  0.00    -0.153 OA
BRANCH   1  27
ATOM     27  C   UNL     1     -16.723   2.367  25.601  0.00  0.00    +0.105 A 
ATOM     28  C   UNL     1     -17.135   1.137  26.115  0.00  0.00    +0.030 A 
ATOM     29  C   UNL     1     -16.036   3.268  26.415  0.00  0.00    +0.030 A 
ATOM     30  C   UNL     1     -16.859   0.809  27.442  0.00  0.00    +0.025 A 
ATOM     31  C   UNL     1     -15.762   2.940  27.742  0.00  0.00    +0.025 A 
ATOM     32  C   UNL     1     -16.174   1.710  28.256  0.00  0.00    +0.033 A 
BRANCH  32   8
ATOM      5  O   UNL     1     -14.359  -0.395  29.414  0.00  0.00    -0.276 OA
ATOM      8  N   UNL     1     -15.899   1.381  29.584  0.00  0.00    -0.286 N 
ATOM     33  C   UNL     1     -15.042   0.386  30.070  0.00  0.00    +0.214 C 
ATOM     34  C   UNL     1     -15.022   0.350  31.577  0.00  0.00    +0.109 C 
ATOM     37  H   UNL     1     -16.390   1.940  30.279  0.00  0.00    +0.155 HD
ENDBRANCH  32   8
ENDBRANCH   1  27
ENDBRANCH   7   1
ENDBRANCH  17   7
ENDBRANCH  10  17
TORSDOF 9
ENDMDL
MODEL 6
REMARK VINA RESULT:      -6.9     27.934     30.452
REMARK  Name = 38027244
REMARK  13 active torsions:
REMARK  status: ('A' for Active; 'I' for Inactive)
REMARK    1  A    between atoms: S_1  and  N_7
REMARK    2  A    between atoms: S_1  and  C_27
REMARK    3  A    between atoms: N_6  and  C_20
REMARK    4  A    between atoms: N_7  and  C_17
REMARK    5  A    between atoms: N_8  and  C_32
REMARK    6  A    between atoms: C_9  and  C_13
REMARK    7  A    between atoms: C_10  and  C_17
REMARK    8  A    between atoms: C_12  and  C_16
REMARK    9  A    between atoms: C_13  and  C_18
REMARK   10  A    between atoms: C_13  and  C_19
REMARK   11  A    between atoms: C_14  and  C_21
REMARK   12  A    between atoms: C_16  and  C_22
REMARK   13  A    between atoms: C_33  and  C_34
REMARK                            x       y       z     vdW  Elec       q    Type
REMARK                         _______ _______ _______ _____ _____    ______ ____
ROOT
ATOM      9  C   UNL     1      -7.101 -10.526  15.599  0.00  0.00    +0.000 C 
ATOM     10  C   UNL     1      -7.581 -10.543  17.071  0.00  0.00    +0.030 C 
ATOM     11  C   UNL     1      -6.084 -11.651  15.353  0.00  0.00    +0.012 C 
ATOM     12  C   UNL     1      -4.853 -11.532  16.269  0.00  0.00    +0.023 C 
ATOM     14  C   UNL     1      -5.244 -11.277  17.711  0.00  0.00    -0.073 C 
ATOM     15  C   UNL     1      -6.472 -10.850  18.051  0.00  0.00    -0.023 C 
ATOM     21  C   UNL     1      -4.205 -11.572  18.757  0.00  0.00    +0.039 C 
ENDROOT
BRANCH   9  13
ATOM     13  C   UNL     1      -8.270 -10.660  14.618  0.00  0.00    -0.013 C 
ATOM     18  C   UNL     1      -8.200  -9.572  13.553  0.00  0.00    +0.007 C 
ATOM     19  C   UNL     1      -8.272 -12.045  13.977  0.00  0.00    +0.007 C 
ENDBRANCH   9  13
BRANCH  12  16
ATOM     16  C   UNL     1      -3.889 -10.451  15.763  0.00  0.00    +0.103 C 
BRANCH  16  22
ATOM      2  O   UNL     1      -1.819 -11.607  15.279  0.00  0.00    -0.276 OA
ATOM      6  N   UNL     1      -3.111 -10.792  13.529  0.00  0.00    -0.312 N 
ATOM     22  C   UNL     1      -2.816 -11.022  14.864  0.00  0.00    +0.214 C 
ATOM     35  H   UNL     1      -3.986 -10.333  13.288  0.00  0.00    +0.149 HD
BRANCH   6  20
ATOM     20  C   UNL     1      -2.261 -11.224  12.447  0.00  0.00    +0.073 C 
ATOM     23  C   UNL     1      -1.678 -10.043  11.683  0.00  0.00    +0.022 C 
ATOM     24  C   UNL     1      -3.043 -11.969  11.373  0.00  0.00    +0.022 C 
ATOM     25  C   UNL     1      -2.784  -9.627  10.717  0.00  0.00    +0.002 C 
ATOM     26  C   UNL     1      -3.635 -10.875  10.486  0.00  0.00    +0.002 C 
ENDBRANCH   6  20
ENDBRANCH  16  22
ENDBRANCH  12  16
BRANCH  10  17
ATOM     17  C   UNL     1      -8.247  -9.217  17.453  0.00  0.00    +0.113 C 
BRANCH  17   7
ATOM      7  N   UNL     1      -9.359  -9.485  18.380  0.00  0.00    -0.189 NA
ATOM     36  H   UNL     1      -9.114  -9.890  19.291  0.00  0.00    +0.148 HD
BRANCH   7   1
ATOM      1  S   UNL     1     -10.925  -9.777  17.778  0.00  0.00    +0.058 S 
ATOM      3  O   UNL     1     -11.889  -9.607  18.851  0.00  0.00    -0.153 OA
ATOM      4  O   UNL     1     -10.915 -10.997  16.995  0.00  0.00    -0.153 OA
BRANCH   1  27
ATOM     27  C   UNL     1     -11.130  -8.437  16.644  0.00  0.00    +0.105 A 
ATOM     28  C   UNL     1     -10.974  -7.122  17.083  0.00  0.00    +0.030 A 
ATOM     29  C   UNL     1     -11.448  -8.694  15.310  0.00  0.00    +0.030 A 
ATOM     30  C   UNL     1     -11.135  -6.065  16.187  0.00  0.00    +0.025 A 
ATOM     31  C   UNL     1     -11.609  -7.637  14.415  0.00  0.00    +0.025 A 
ATOM     32  C   UNL     1     -11.453  -6.322  14.854  0.00  0.00    +0.033 A 
BRANCH  32   8
ATOM      5  O   UNL     1     -13.952  -5.085  13.720  0.00  0.00    -0.276 OA
ATOM      8  N   UNL     1     -11.614  -5.264  13.959  0.00  0.00    -0.286 N 
ATOM     33  C   UNL     1     -12.808  -4.726  13.460  0.00  0.00    +0.214 C 
ATOM     34  C   UNL     1     -12.554  -3.584  12.510  0.00  0.00    +0.109 C 
ATOM     37  H   UNL     1     -10.750  -4.837  13.631  0.00  0.00    +0.155 HD
ENDBRANCH  32   8
ENDBRANCH   1  27
ENDBRANCH   7   1
ENDBRANCH  17   7
ENDBRANCH  10  17
TORSDOF 9
ENDMDL
MODEL 7
REMARK VINA RESULT:      -6.8     28.344     32.286
REMARK  Name = 38027244
REMARK  13 active torsions:
REMARK  status: ('A' for Active; 'I' for Inactive)
REMARK    1  A    between atoms: S_1  and  N_7
REMARK    2  A    between atoms: S_1  and  C_27
REMARK    3  A    between atoms: N_6  and  C_20
REMARK    4  A    between atoms: N_7  and  C_17
REMARK    5  A    between atoms: N_8  and  C_32
REMARK    6  A    between atoms: C_9  and  C_13
REMARK    7  A    between atoms: C_10  and  C_17
REMARK    8  A    between atoms: C_12  and  C_16
REMARK    9  A    between atoms: C_13  and  C_18
REMARK   10  A    between atoms: C_13  and  C_19
REMARK   11  A    between atoms: C_14  and  C_21
REMARK   12  A    between atoms: C_16  and  C_22
REMARK   13  A    between atoms: C_33  and  C_34
REMARK                            x       y       z     vdW  Elec       q    Type
REMARK                         _______ _______ _______ _____ _____    ______ ____
ROOT
ATOM      9  C   UNL     1      -9.306 -10.069  15.764  0.00  0.00    +0.000 C 
ATOM     10  C   UNL     1      -8.939  -9.292  17.053  0.00  0.00    +0.030 C 
ATOM     11  C   UNL     1      -9.488  -9.098  14.587  0.00  0.00    +0.012 C 
ATOM     12  C   UNL     1     -10.589  -8.055  14.859  0.00  0.00    +0.023 C 
ATOM     14  C   UNL     1     -10.450  -7.433  16.234  0.00  0.00    -0.073 C 
ATOM     15  C   UNL     1      -9.697  -7.993  17.196  0.00  0.00    -0.023 C 
ATOM     21  C   UNL     1     -11.159  -6.127  16.461  0.00  0.00    +0.039 C 
ENDROOT
BRANCH   9  13
ATOM     13  C   UNL     1      -8.246 -11.117  15.411  0.00  0.00    -0.013 C 
ATOM     18  C   UNL     1      -8.861 -12.513  15.401  0.00  0.00    +0.007 C 
ATOM     19  C   UNL     1      -7.608 -10.798  14.063  0.00  0.00    +0.007 C 
ENDBRANCH   9  13
BRANCH  12  16
ATOM     16  C   UNL     1     -11.984  -8.663  14.670  0.00  0.00    +0.103 C 
BRANCH  16  22
ATOM      2  O   UNL     1     -13.073  -8.985  12.533  0.00  0.00    -0.276 OA
ATOM      6  N   UNL     1     -12.645  -6.829  13.286  0.00  0.00    -0.312 N 
ATOM     22  C   UNL     1     -12.630  -8.213  13.379  0.00  0.00    +0.214 C 
ATOM     35  H   UNL     1     -12.289  -6.278  14.062  0.00  0.00    +0.149 HD
BRANCH   6  20
ATOM     20  C   UNL     1     -13.199  -6.120  12.159  0.00  0.00    +0.073 C 
ATOM     23  C   UNL     1     -12.221  -5.092  11.605  0.00  0.00    +0.022 C 
ATOM     24  C   UNL     1     -14.397  -5.268  12.556  0.00  0.00    +0.022 C 
ATOM     25  C   UNL     1     -12.385  -3.878  12.515  0.00  0.00    +0.002 C 
ATOM     26  C   UNL     1     -13.797  -3.969  13.093  0.00  0.00    +0.002 C 
ENDBRANCH   6  20
ENDBRANCH  16  22
ENDBRANCH  12  16
BRANCH  10  17
ATOM     17  C   UNL     1      -9.163 -10.154  18.301  0.00  0.00    +0.113 C 
BRANCH  17   7
ATOM      7  N   UNL     1      -7.938 -10.147  19.117  0.00  0.00    -0.189 NA
ATOM     36  H   UNL     1      -7.425  -9.259  19.174  0.00  0.00    +0.148 HD
BRANCH   7   1
ATOM      1  S   UNL     1      -7.060 -11.586  19.358  0.00  0.00    +0.058 S 
ATOM      3  O   UNL     1      -7.934 -12.722  19.134  0.00  0.00    -0.153 OA
ATOM      4  O   UNL     1      -6.304 -11.481  20.592  0.00  0.00    -0.153 OA
BRANCH   1  27
ATOM     27  C   UNL     1      -5.895 -11.524  18.031  0.00  0.00    +0.105 A 
ATOM     28  C   UNL     1      -5.314 -10.308  17.670  0.00  0.00    +0.030 A 
ATOM     29  C   UNL     1      -5.555 -12.690  17.346  0.00  0.00    +0.030 A 
ATOM     30  C   UNL     1      -4.393 -10.259  16.622  0.00  0.00    +0.025 A 
ATOM     31  C   UNL     1      -4.636 -12.641  16.298  0.00  0.00    +0.025 A 
ATOM     32  C   UNL     1      -4.055 -11.425  15.937  0.00  0.00    +0.033 A 
BRANCH  32   8
ATOM      5  O   UNL     1      -4.328 -10.331  13.145  0.00  0.00    -0.276 OA
ATOM      8  N   UNL     1      -3.135 -11.376  14.889  0.00  0.00    -0.286 N 
ATOM     33  C   UNL     1      -3.316 -10.853  13.602  0.00  0.00    +0.214 C 
ATOM     34  C   UNL     1      -2.072 -10.992  12.761  0.00  0.00    +0.109 C 
ATOM     37  H   UNL     1      -2.221 -11.774  15.095  0.00  0.00    +0.155 HD
ENDBRANCH  32   8
ENDBRANCH   1  27
ENDBRANCH   7   1
ENDBRANCH  17   7
ENDBRANCH  10  17
TORSDOF 9
ENDMDL
MODEL 8
REMARK VINA RESULT:      -6.6     28.752     30.547
REMARK  Name = 38027244
REMARK  13 active torsions:
REMARK  status: ('A' for Active; 'I' for Inactive)
REMARK    1  A    between atoms: S_1  and  N_7
REMARK    2  A    between atoms: S_1  and  C_27
REMARK    3  A    between atoms: N_6  and  C_20
REMARK    4  A    between atoms: N_7  and  C_17
REMARK    5  A    between atoms: N_8  and  C_32
REMARK    6  A    between atoms: C_9  and  C_13
REMARK    7  A    between atoms: C_10  and  C_17
REMARK    8  A    between atoms: C_12  and  C_16
REMARK    9  A    between atoms: C_13  and  C_18
REMARK   10  A    between atoms: C_13  and  C_19
REMARK   11  A    between atoms: C_14  and  C_21
REMARK   12  A    between atoms: C_16  and  C_22
REMARK   13  A    between atoms: C_33  and  C_34
REMARK                            x       y       z     vdW  Elec       q    Type
REMARK                         _______ _______ _______ _____ _____    ______ ____
ROOT
ATOM      9  C   UNL     1      -5.823 -11.520  17.728  0.00  0.00    +0.000 C 
ATOM     10  C   UNL     1      -7.048 -10.606  17.474  0.00  0.00    +0.030 C 
ATOM     11  C   UNL     1      -4.589 -10.978  16.989  0.00  0.00    +0.012 C 
ATOM     12  C   UNL     1      -4.818 -10.879  15.470  0.00  0.00    +0.023 C 
ATOM     14  C   UNL     1      -6.145 -10.225  15.140  0.00  0.00    -0.073 C 
ATOM     15  C   UNL     1      -7.123 -10.100  16.053  0.00  0.00    -0.023 C 
ATOM     21  C   UNL     1      -6.302  -9.676  13.749  0.00  0.00    +0.039 C 
ENDROOT
BRANCH   9  13
ATOM     13  C   UNL     1      -5.515 -11.654  19.223  0.00  0.00    -0.013 C 
ATOM     18  C   UNL     1      -4.038 -11.970  19.435  0.00  0.00    +0.007 C 
ATOM     19  C   UNL     1      -5.908 -10.381  19.965  0.00  0.00    +0.007 C 
ENDBRANCH   9  13
BRANCH  12  16
ATOM     16  C   UNL     1      -4.705 -12.256  14.803  0.00  0.00    +0.103 C 
BRANCH  16  22
ATOM      2  O   UNL     1      -2.423 -12.755  14.168  0.00  0.00    -0.276 OA
ATOM      6  N   UNL     1      -3.880 -11.860  12.595  0.00  0.00    -0.312 N 
ATOM     22  C   UNL     1      -3.532 -12.332  13.852  0.00  0.00    +0.214 C 
ATOM     35  H   UNL     1      -4.839 -11.570  12.424  0.00  0.00    +0.149 HD
BRANCH   6  20
ATOM     20  C   UNL     1      -2.958 -11.812  11.487  0.00  0.00    +0.073 C 
ATOM     23  C   UNL     1      -2.249 -10.467  11.403  0.00  0.00    +0.022 C 
ATOM     24  C   UNL     1      -3.675 -11.901  10.146  0.00  0.00    +0.022 C 
ATOM     25  C   UNL     1      -3.240  -9.555  10.685  0.00  0.00    +0.002 C 
ATOM     26  C   UNL     1      -4.129 -10.473   9.846  0.00  0.00    +0.002 C 
ENDBRANCH   6  20
ENDBRANCH  16  22
ENDBRANCH  12  16
BRANCH  10  17
ATOM     17  C   UNL     1      -8.356 -11.322  17.831  0.00  0.00    +0.113 C 
BRANCH  17   7
ATOM      7  N   UNL     1      -9.449 -10.760  17.021  0.00  0.00    -0.189 NA
ATOM     36  H   UNL     1      -9.199 -10.401  16.092  0.00  0.00    +0.148 HD
BRANCH   7   1
ATOM      1  S   UNL     1     -10.829 -10.110  17.777  0.00  0.00    +0.058 S 
ATOM      3  O   UNL     1     -10.483  -9.686  19.121  0.00  0.00    -0.153 OA
ATOM      4  O   UNL     1     -11.954 -11.000  17.561  0.00  0.00    -0.153 OA
BRANCH   1  27
ATOM     27  C   UNL     1     -11.122  -8.662  16.807  0.00  0.00    +0.105 A 
ATOM     28  C   UNL     1     -12.429  -8.249  16.548  0.00  0.00    +0.030 A 
ATOM     29  C   UNL     1     -10.046  -7.931  16.302  0.00  0.00    +0.030 A 
ATOM     30  C   UNL     1     -12.660  -7.105  15.783  0.00  0.00    +0.025 A 
ATOM     31  C   UNL     1     -10.278  -6.788  15.537  0.00  0.00    +0.025 A 
ATOM     32  C   UNL     1     -11.585  -6.376  15.278  0.00  0.00    +0.033 A 
BRANCH  32   8
ATOM      5  O   UNL     1     -12.462  -6.086  12.412  0.00  0.00    -0.276 OA
ATOM      8  N   UNL     1     -11.817  -5.232  14.512  0.00  0.00    -0.286 N 
ATOM     33  C   UNL     1     -12.225  -5.154  13.174  0.00  0.00    +0.214 C 
ATOM     34  C   UNL     1     -12.363  -3.725  12.713  0.00  0.00    +0.109 C 
ATOM     37  H   UNL     1     -11.666  -4.349  14.995  0.00  0.00    +0.155 HD
ENDBRANCH  32   8
ENDBRANCH   1  27
ENDBRANCH   7   1
ENDBRANCH  17   7
ENDBRANCH  10  17
TORSDOF 9
ENDMDL
MODEL 9
REMARK VINA RESULT:      -6.5     16.199     18.759
REMARK  Name = 38027244
REMARK  13 active torsions:
REMARK  status: ('A' for Active; 'I' for Inactive)
REMARK    1  A    between atoms: S_1  and  N_7
REMARK    2  A    between atoms: S_1  and  C_27
REMARK    3  A    between atoms: N_6  and  C_20
REMARK    4  A    between atoms: N_7  and  C_17
REMARK    5  A    between atoms: N_8  and  C_32
REMARK    6  A    between atoms: C_9  and  C_13
REMARK    7  A    between atoms: C_10  and  C_17
REMARK    8  A    between atoms: C_12  and  C_16
REMARK    9  A    between atoms: C_13  and  C_18
REMARK   10  A    between atoms: C_13  and  C_19
REMARK   11  A    between atoms: C_14  and  C_21
REMARK   12  A    between atoms: C_16  and  C_22
REMARK   13  A    between atoms: C_33  and  C_34
REMARK                            x       y       z     vdW  Elec       q    Type
REMARK                         _______ _______ _______ _____ _____    ______ ____
ROOT
ATOM      9  C   UNL     1       9.382   8.767   3.319  0.00  0.00    +0.000 C 
ATOM     10  C   UNL     1       8.521   7.709   4.054  0.00  0.00    +0.030 C 
ATOM     11  C   UNL     1      10.130   8.124   2.141  0.00  0.00    +0.012 C 
ATOM     12  C   UNL     1      11.050   6.975   2.594  0.00  0.00    +0.023 C 
ATOM     14  C   UNL     1      10.345   6.029   3.545  0.00  0.00    -0.073 C 
ATOM     15  C   UNL     1       9.208   6.369   4.176  0.00  0.00    -0.023 C 
ATOM     21  C   UNL     1      10.951   4.663   3.716  0.00  0.00    +0.039 C 
ENDROOT
BRANCH   9  13
ATOM     13  C   UNL     1       8.534   9.940   2.816  0.00  0.00    -0.013 C 
ATOM     18  C   UNL     1       9.403  10.938   2.059  0.00  0.00    +0.007 C 
ATOM     19  C   UNL     1       7.396   9.436   1.934  0.00  0.00    +0.007 C 
ENDBRANCH   9  13
BRANCH  12  16
ATOM     16  C   UNL     1      12.343   7.515   3.218  0.00  0.00    +0.103 C 
BRANCH  16  22
ATOM      2  O   UNL     1      14.654   6.802   3.312  0.00  0.00    -0.276 OA
ATOM      6  N   UNL     1      13.274   5.996   1.624  0.00  0.00    -0.312 N 
ATOM     22  C   UNL     1      13.561   6.749   2.753  0.00  0.00    +0.214 C 
ATOM     35  H   UNL     1      12.325   5.989   1.263  0.00  0.00    +0.149 HD
BRANCH   6  20
ATOM     20  C   UNL     1      14.250   5.166   0.961  0.00  0.00    +0.073 C 
ATOM     23  C   UNL     1      13.863   4.889  -0.485  0.00  0.00    +0.022 C 
ATOM     24  C   UNL     1      14.314   3.770   1.567  0.00  0.00    +0.022 C 
ATOM     25  C   UNL     1      12.864   3.738  -0.402  0.00  0.00    +0.002 C 
ATOM     26  C   UNL     1      13.181   2.995   0.896  0.00  0.00    +0.002 C 
ENDBRANCH   6  20
ENDBRANCH  16  22
ENDBRANCH  12  16
BRANCH  10  17
ATOM     17  C   UNL     1       8.108   8.201   5.446  0.00  0.00    +0.113 C 
BRANCH  17   7
ATOM      7  N   UNL     1       8.306   7.114   6.418  0.00  0.00    -0.189 NA
ATOM     36  H   UNL     1       7.632   6.339   6.389  0.00  0.00    +0.148 HD
BRANCH   7   1
ATOM      1  S   UNL     1       9.103   7.417   7.893  0.00  0.00    +0.058 S 
ATOM      3  O   UNL     1       9.034   6.230   8.726  0.00  0.00    -0.153 OA
ATOM      4  O   UNL     1       8.668   8.699   8.413  0.00  0.00    -0.153 OA
BRANCH   1  27
ATOM     27  C   UNL     1      10.777   7.615   7.362  0.00  0.00    +0.105 A 
ATOM     28  C   UNL     1      11.263   8.884   7.048  0.00  0.00    +0.030 A 
ATOM     29  C   UNL     1      11.612   6.502   7.259  0.00  0.00    +0.030 A 
ATOM     30  C   UNL     1      12.585   9.040   6.631  0.00  0.00    +0.025 A 
ATOM     31  C   UNL     1      12.933   6.658   6.841  0.00  0.00    +0.025 A 
ATOM     32  C   UNL     1      13.419   7.928   6.527  0.00  0.00    +0.033 A 
BRANCH  32   8
ATOM      5  O   UNL     1      15.275  10.288   6.753  0.00  0.00    -0.276 OA
ATOM      8  N   UNL     1      14.741   8.084   6.108  0.00  0.00    -0.286 N 
ATOM     33  C   UNL     1      15.563   9.212   6.238  0.00  0.00    +0.214 C 
ATOM     34  C   UNL     1      16.933   8.977   5.654  0.00  0.00    +0.109 C 
ATOM     37  H   UNL     1      15.150   7.272   5.650  0.00  0.00    +0.155 HD
ENDBRANCH  32   8
ENDBRANCH   1  27
ENDBRANCH   7   1
ENDBRANCH  17   7
ENDBRANCH  10  17
TORSDOF 9
ENDMDL
MODEL 10
REMARK VINA RESULT:      -6.4     15.525     17.803
REMARK  Name = 38027244
REMARK  13 active torsions:
REMARK  status: ('A' for Active; 'I' for Inactive)
REMARK    1  A    between atoms: S_1  and  N_7
REMARK    2  A    between atoms: S_1  and  C_27
REMARK    3  A    between atoms: N_6  and  C_20
REMARK    4  A    between atoms: N_7  and  C_17
REMARK    5  A    between atoms: N_8  and  C_32
REMARK    6  A    between atoms: C_9  and  C_13
REMARK    7  A    between atoms: C_10  and  C_17
REMARK    8  A    between atoms: C_12  and  C_16
REMARK    9  A    between atoms: C_13  and  C_18
REMARK   10  A    between atoms: C_13  and  C_19
REMARK   11  A    between atoms: C_14  and  C_21
REMARK   12  A    between atoms: C_16  and  C_22
REMARK   13  A    between atoms: C_33  and  C_34
REMARK                            x       y       z     vdW  Elec       q    Type
REMARK                         _______ _______ _______ _____ _____    ______ ____
ROOT
ATOM      9  C   UNL     1      10.934   6.707   3.625  0.00  0.00    +0.000 C 
ATOM     10  C   UNL     1      10.261   5.320   3.470  0.00  0.00    +0.030 C 
ATOM     11  C   UNL     1      11.793   7.026   2.392  0.00  0.00    +0.012 C 
ATOM     12  C   UNL     1      12.893   5.973   2.161  0.00  0.00    +0.023 C 
ATOM     14  C   UNL     1      12.352   4.561   2.261  0.00  0.00    -0.073 C 
ATOM     15  C   UNL     1      11.168   4.291   2.837  0.00  0.00    -0.023 C 
ATOM     21  C   UNL     1      13.183   3.472   1.641  0.00  0.00    +0.039 C 
ENDROOT
BRANCH   9  13
ATOM     13  C   UNL     1       9.902   7.818   3.840  0.00  0.00    -0.013 C 
ATOM     18  C   UNL     1      10.582   9.183   3.840  0.00  0.00    +0.007 C 
ATOM     19  C   UNL     1       8.818   7.754   2.768  0.00  0.00    +0.007 C 
ENDBRANCH   9  13
BRANCH  12  16
ATOM     16  C   UNL     1      14.068   6.180   3.125  0.00  0.00    +0.103 C 
BRANCH  16  22
ATOM      2  O   UNL     1      15.081   7.564   1.418  0.00  0.00    -0.276 OA
ATOM      6  N   UNL     1      16.042   7.466   3.531  0.00  0.00    -0.312 N 
ATOM     22  C   UNL     1      15.095   7.141   2.571  0.00  0.00    +0.214 C 
ATOM     35  H   UNL     1      15.940   7.092   4.471  0.00  0.00    +0.149 HD
BRANCH   6  20
ATOM     20  C   UNL     1      17.143   8.362   3.281  0.00  0.00    +0.073 C 
ATOM     23  C   UNL     1      18.344   8.036   4.159  0.00  0.00    +0.022 C 
ATOM     24  C   UNL     1      16.812   9.795   3.679  0.00  0.00    +0.022 C 
ATOM     25  C   UNL     1      18.035   8.705   5.496  0.00  0.00    +0.002 C 
ATOM     26  C   UNL     1      17.084   9.860   5.181  0.00  0.00    +0.002 C 
ENDBRANCH   6  20
ENDBRANCH  16  22
ENDBRANCH  12  16
BRANCH  10  17
ATOM     17  C   UNL     1       9.757   4.795   4.819  0.00  0.00    +0.113 C 
BRANCH  17   7
ATOM      7  N   UNL     1      10.762   5.084   5.855  0.00  0.00    -0.189 NA
ATOM     36  H   UNL     1      11.569   4.452   5.905  0.00  0.00    +0.148 HD
BRANCH   7   1
ATOM      1  S   UNL     1      10.318   5.918   7.272  0.00  0.00    +0.058 S 
ATOM      3  O   UNL     1      10.707   5.134   8.430  0.00  0.00    -0.153 OA
ATOM      4  O   UNL     1       8.953   6.391   7.137  0.00  0.00    -0.153 OA
BRANCH   1  27
ATOM     27  C   UNL     1      11.367   7.338   7.198  0.00  0.00    +0.105 A 
ATOM     28  C   UNL     1      12.703   7.199   6.820  0.00  0.00    +0.030 A 
ATOM     29  C   UNL     1      10.859   8.598   7.516  0.00  0.00    +0.030 A 
ATOM     30  C   UNL     1      13.530   8.321   6.761  0.00  0.00    +0.025 A 
ATOM     31  C   UNL     1      11.687   9.718   7.458  0.00  0.00    +0.025 A 
ATOM     32  C   UNL     1      13.023   9.580   7.080  0.00  0.00    +0.033 A 
BRANCH  32   8
ATOM      5  O   UNL     1      13.336  11.669   4.934  0.00  0.00    -0.276 OA
ATOM      8  N   UNL     1      13.851  10.701   7.021  0.00  0.00    -0.286 N 
ATOM     33  C   UNL     1      13.959  11.645   5.991  0.00  0.00    +0.214 C 
ATOM     34  C   UNL     1      14.975  12.712   6.313  0.00  0.00    +0.109 C 
ATOM     37  H   UNL     1      14.451  10.840   7.832  0.00  0.00    +0.155 HD
ENDBRANCH  32   8
ENDBRANCH   1  27
ENDBRANCH   7   1
ENDBRANCH  17   7
ENDBRANCH  10  17
TORSDOF 9
ENDMDL
