MODEL 1
REMARK VINA RESULT:      -5.5      0.000      0.000
REMARK  Name = 25338997
REMARK  9 active torsions:
REMARK  status: ('A' for Active; 'I' for Inactive)
REMARK    1  A    between atoms: O_1  and  C_15
REMARK    2  A    between atoms: O_1  and  C_20
REMARK    3  A    between atoms: O_4  and  C_19
REMARK    4  A    between atoms: O_4  and  C_21
REMARK    5  A    between atoms: N_6  and  C_13
REMARK    6  A    between atoms: C_8  and  C_15
REMARK    7  A    between atoms: C_13  and  C_17
REMARK    8  A    between atoms: C_13  and  C_18
REMARK    9  A    between atoms: C_16  and  C_19
REMARK                            x       y       z     vdW  Elec       q    Type
REMARK                         _______ _______ _______ _____ _____    ______ ____
ROOT
ATOM      3  O   UNL     1      10.855   8.317  22.379  0.00  0.00    -0.273 OA
ATOM      5  N   UNL     1      12.237   8.824  20.571  0.00  0.00    -0.280 N 
ATOM      6  N   UNL     1      13.793   9.983  17.364  0.00  0.00    -0.330 N 
ATOM      7  N   UNL     1      13.544   7.861  16.714  0.00  0.00    -0.240 NA
ATOM      8  C   UNL     1      12.578   7.394  20.344  0.00  0.00    +0.191 C 
ATOM      9  C   UNL     1      13.259   9.317  18.427  0.00  0.00    +0.059 A 
ATOM     10  C   UNL     1      12.564   6.956  18.864  0.00  0.00    +0.091 C 
ATOM     11  C   UNL     1      12.921   9.865  19.752  0.00  0.00    +0.163 C 
ATOM     12  C   UNL     1      13.120   8.019  18.003  0.00  0.00    +0.066 A 
ATOM     14  C   UNL     1      13.946   9.064  16.356  0.00  0.00    +0.200 A 
ATOM     16  C   UNL     1      11.437   9.146  21.677  0.00  0.00    +0.242 C 
ENDROOT
BRANCH   6  13
ATOM     13  C   UNL     1      14.142  11.383  17.296  0.00  0.00    +0.082 C 
ATOM     17  C   UNL     1      14.280  11.858  15.848  0.00  0.00    +0.030 C 
ATOM     18  C   UNL     1      15.411  11.686  18.093  0.00  0.00    +0.030 C 
ENDBRANCH   6  13
BRANCH   8  15
ATOM      2  O   UNL     1      14.251   7.651  22.062  0.00  0.00    -0.249 OA
ATOM     15  C   UNL     1      13.924   7.182  20.980  0.00  0.00    +0.328 C 
BRANCH  15   1
ATOM      1  O   UNL     1      14.692   6.400  20.169  0.00  0.00    -0.467 OA
ATOM     20  C   UNL     1      16.093   6.696  20.180  0.00  0.00    +0.280 C 
ENDBRANCH  15   1
ENDBRANCH   8  15
BRANCH  16  19
ATOM     19  C   UNL     1      11.294  10.615  21.996  0.00  0.00    +0.255 C 
BRANCH  19   4
ATOM      4  O   UNL     1      10.557  10.696  23.192  0.00  0.00    -0.374 OA
ATOM     21  C   UNL     1      11.190  11.535  24.156  0.00  0.00    +0.194 C 
ENDBRANCH  19   4
ENDBRANCH  16  19
TORSDOF 5
ENDMDL
MODEL 2
REMARK VINA RESULT:      -5.2      2.923      5.522
REMARK  Name = 25338997
REMARK  9 active torsions:
REMARK  status: ('A' for Active; 'I' for Inactive)
REMARK    1  A    between atoms: O_1  and  C_15
REMARK    2  A    between atoms: O_1  and  C_20
REMARK    3  A    between atoms: O_4  and  C_19
REMARK    4  A    between atoms: O_4  and  C_21
REMARK    5  A    between atoms: N_6  and  C_13
REMARK    6  A    between atoms: C_8  and  C_15
REMARK    7  A    between atoms: C_13  and  C_17
REMARK    8  A    between atoms: C_13  and  C_18
REMARK    9  A    between atoms: C_16  and  C_19
REMARK                            x       y       z     vdW  Elec       q    Type
REMARK                         _______ _______ _______ _____ _____    ______ ____
ROOT
ATOM      3  O   UNL     1      14.056   8.414  15.715  0.00  0.00    -0.273 OA
ATOM      5  N   UNL     1      13.486   9.280  17.805  0.00  0.00    -0.280 N 
ATOM      6  N   UNL     1      13.362  10.822  21.219  0.00  0.00    -0.330 N 
ATOM      7  N   UNL     1      13.247   8.712  21.944  0.00  0.00    -0.240 NA
ATOM      8  C   UNL     1      12.876   7.996  18.245  0.00  0.00    +0.191 C 
ATOM      9  C   UNL     1      13.348  10.034  20.106  0.00  0.00    +0.059 A 
ATOM     10  C   UNL     1      13.239   7.573  19.685  0.00  0.00    +0.091 C 
ATOM     11  C   UNL     1      13.384  10.469  18.698  0.00  0.00    +0.163 C 
ATOM     12  C   UNL     1      13.272   8.748  20.578  0.00  0.00    +0.066 A 
ATOM     14  C   UNL     1      13.300   9.980  22.301  0.00  0.00    +0.200 A 
ATOM     16  C   UNL     1      13.956   9.372  16.486  0.00  0.00    +0.242 C 
ENDROOT
BRANCH   6  13
ATOM     13  C   UNL     1      13.426  12.263  21.268  0.00  0.00    +0.082 C 
ATOM     17  C   UNL     1      14.316  12.749  22.415  0.00  0.00    +0.030 C 
ATOM     18  C   UNL     1      12.031  12.884  21.360  0.00  0.00    +0.030 C 
ENDBRANCH   6  13
BRANCH   8  15
ATOM      2  O   UNL     1      10.634   8.546  18.940  0.00  0.00    -0.249 OA
ATOM     15  C   UNL     1      11.393   8.157  18.063  0.00  0.00    +0.328 C 
BRANCH  15   1
ATOM      1  O   UNL     1      11.050   7.804  16.792  0.00  0.00    -0.467 OA
ATOM     20  C   UNL     1      10.544   8.866  15.976  0.00  0.00    +0.280 C 
ENDBRANCH  15   1
ENDBRANCH   8  15
BRANCH  16  19
ATOM     19  C   UNL     1      14.366  10.746  16.015  0.00  0.00    +0.255 C 
BRANCH  19   4
ATOM      4  O   UNL     1      13.719  10.957  14.783  0.00  0.00    -0.374 OA
ATOM     21  C   UNL     1      14.394  11.924  13.981  0.00  0.00    +0.194 C 
ENDBRANCH  19   4
ENDBRANCH  16  19
TORSDOF 5
ENDMDL
MODEL 3
REMARK VINA RESULT:      -5.0     25.732     27.389
REMARK  Name = 25338997
REMARK  9 active torsions:
REMARK  status: ('A' for Active; 'I' for Inactive)
REMARK    1  A    between atoms: O_1  and  C_15
REMARK    2  A    between atoms: O_1  and  C_20
REMARK    3  A    between atoms: O_4  and  C_19
REMARK    4  A    between atoms: O_4  and  C_21
REMARK    5  A    between atoms: N_6  and  C_13
REMARK    6  A    between atoms: C_8  and  C_15
REMARK    7  A    between atoms: C_13  and  C_17
REMARK    8  A    between atoms: C_13  and  C_18
REMARK    9  A    between atoms: C_16  and  C_19
REMARK                            x       y       z     vdW  Elec       q    Type
REMARK                         _______ _______ _______ _____ _____    ______ ____
ROOT
ATOM      3  O   UNL     1      -2.990  -9.489  10.500  0.00  0.00    -0.273 OA
ATOM      5  N   UNL     1      -3.601 -10.300  12.599  0.00  0.00    -0.280 N 
ATOM      6  N   UNL     1      -4.802 -10.837  16.109  0.00  0.00    -0.330 N 
ATOM      7  N   UNL     1      -2.633 -10.798  16.639  0.00  0.00    -0.240 NA
ATOM      8  C   UNL     1      -2.232 -10.812  12.875  0.00  0.00    +0.191 C 
ATOM      9  C   UNL     1      -4.123 -10.688  14.936  0.00  0.00    +0.059 A 
ATOM     10  C   UNL     1      -1.712 -10.520  14.299  0.00  0.00    +0.091 C 
ATOM     11  C   UNL     1      -4.688 -10.587  13.579  0.00  0.00    +0.163 C 
ATOM     12  C   UNL     1      -2.797 -10.672  15.289  0.00  0.00    +0.066 A 
ATOM     14  C   UNL     1      -3.861 -10.898  17.107  0.00  0.00    +0.200 A 
ATOM     16  C   UNL     1      -3.858  -9.741  11.338  0.00  0.00    +0.242 C 
ENDROOT
BRANCH   6  13
ATOM     13  C   UNL     1      -6.232 -10.920  16.287  0.00  0.00    +0.082 C 
ATOM     17  C   UNL     1      -6.843  -9.550  16.589  0.00  0.00    +0.030 C 
ATOM     18  C   UNL     1      -6.606 -11.936  17.367  0.00  0.00    +0.030 C 
ENDBRANCH   6  13
BRANCH   8  15
ATOM      2  O   UNL     1      -2.957 -12.789  11.702  0.00  0.00    -0.249 OA
ATOM     15  C   UNL     1      -2.272 -12.285  12.582  0.00  0.00    +0.328 C 
BRANCH  15   1
ATOM      1  O   UNL     1      -1.439 -12.943  13.437  0.00  0.00    -0.467 OA
ATOM     20  C   UNL     1      -1.832 -14.278  13.773  0.00  0.00    +0.280 C 
ENDBRANCH  15   1
ENDBRANCH   8  15
BRANCH  16  19
ATOM     19  C   UNL     1      -5.302  -9.435  11.022  0.00  0.00    +0.255 C 
BRANCH  19   4
ATOM      4  O   UNL     1      -5.294  -8.364  10.110  0.00  0.00    -0.374 OA
ATOM     21  C   UNL     1      -6.398  -8.419   9.208  0.00  0.00    +0.194 C 
ENDBRANCH  19   4
ENDBRANCH  16  19
TORSDOF 5
ENDMDL
MODEL 4
REMARK VINA RESULT:      -4.9     12.082     14.273
REMARK  Name = 25338997
REMARK  9 active torsions:
REMARK  status: ('A' for Active; 'I' for Inactive)
REMARK    1  A    between atoms: O_1  and  C_15
REMARK    2  A    between atoms: O_1  and  C_20
REMARK    3  A    between atoms: O_4  and  C_19
REMARK    4  A    between atoms: O_4  and  C_21
REMARK    5  A    between atoms: N_6  and  C_13
REMARK    6  A    between atoms: C_8  and  C_15
REMARK    7  A    between atoms: C_13  and  C_17
REMARK    8  A    between atoms: C_13  and  C_18
REMARK    9  A    between atoms: C_16  and  C_19
REMARK                            x       y       z     vdW  Elec       q    Type
REMARK                         _______ _______ _______ _____ _____    ______ ____
ROOT
ATOM      3  O   UNL     1       8.668   8.397   8.219  0.00  0.00    -0.273 OA
ATOM      5  N   UNL     1      10.066   7.366   6.664  0.00  0.00    -0.280 N 
ATOM      6  N   UNL     1      11.949   6.203   3.638  0.00  0.00    -0.330 N 
ATOM      7  N   UNL     1      10.543   4.469   3.682  0.00  0.00    -0.240 NA
ATOM      8  C   UNL     1       9.544   6.012   6.991  0.00  0.00    +0.191 C 
ATOM      9  C   UNL     1      11.152   6.383   4.729  0.00  0.00    +0.059 A 
ATOM     10  C   UNL     1       9.261   5.118   5.764  0.00  0.00    +0.091 C 
ATOM     11  C   UNL     1      11.201   7.486   5.705  0.00  0.00    +0.163 C 
ATOM     12  C   UNL     1      10.302   5.305   4.735  0.00  0.00    +0.066 A 
ATOM     14  C   UNL     1      11.544   5.036   3.040  0.00  0.00    +0.200 A 
ATOM     16  C   UNL     1       9.602   8.454   7.417  0.00  0.00    +0.242 C 
ENDROOT
BRANCH   6  13
ATOM     13  C   UNL     1      13.020   7.060   3.188  0.00  0.00    +0.082 C 
ATOM     17  C   UNL     1      12.498   8.198   2.307  0.00  0.00    +0.030 C 
ATOM     18  C   UNL     1      14.109   6.266   2.465  0.00  0.00    +0.030 C 
ENDBRANCH   6  13
BRANCH   8  15
ATOM      2  O   UNL     1      11.680   5.828   8.094  0.00  0.00    -0.249 OA
ATOM     15  C   UNL     1      10.550   5.391   7.919  0.00  0.00    +0.328 C 
BRANCH  15   1
ATOM      1  O   UNL     1      10.005   4.293   8.514  0.00  0.00    -0.467 OA
ATOM     20  C   UNL     1       9.369   4.530   9.774  0.00  0.00    +0.280 C 
ENDBRANCH  15   1
ENDBRANCH   8  15
BRANCH  16  19
ATOM     19  C   UNL     1      10.312   9.769   7.202  0.00  0.00    +0.255 C 
BRANCH  19   4
ATOM      4  O   UNL     1      10.890  10.120   8.436  0.00  0.00    -0.374 OA
ATOM     21  C   UNL     1      11.949  11.064   8.284  0.00  0.00    +0.194 C 
ENDBRANCH  19   4
ENDBRANCH  16  19
TORSDOF 5
ENDMDL
MODEL 5
REMARK VINA RESULT:      -4.6     25.522     27.250
REMARK  Name = 25338997
REMARK  9 active torsions:
REMARK  status: ('A' for Active; 'I' for Inactive)
REMARK    1  A    between atoms: O_1  and  C_15
REMARK    2  A    between atoms: O_1  and  C_20
REMARK    3  A    between atoms: O_4  and  C_19
REMARK    4  A    between atoms: O_4  and  C_21
REMARK    5  A    between atoms: N_6  and  C_13
REMARK    6  A    between atoms: C_8  and  C_15
REMARK    7  A    between atoms: C_13  and  C_17
REMARK    8  A    between atoms: C_13  and  C_18
REMARK    9  A    between atoms: C_16  and  C_19
REMARK                            x       y       z     vdW  Elec       q    Type
REMARK                         _______ _______ _______ _____ _____    ______ ____
ROOT
ATOM      3  O   UNL     1      -6.507 -11.964  17.042  0.00  0.00    -0.273 OA
ATOM      5  N   UNL     1      -5.322 -11.292  15.150  0.00  0.00    -0.280 N 
ATOM      6  N   UNL     1      -4.028 -10.560  11.709  0.00  0.00    -0.330 N 
ATOM      7  N   UNL     1      -2.672 -12.297  12.071  0.00  0.00    -0.240 NA
ATOM      8  C   UNL     1      -4.103 -12.037  15.566  0.00  0.00    +0.191 C 
ATOM      9  C   UNL     1      -4.291 -10.994  12.974  0.00  0.00    +0.059 A 
ATOM     10  C   UNL     1      -3.413 -12.824  14.432  0.00  0.00    +0.091 C 
ATOM     11  C   UNL     1      -5.260 -10.434  13.932  0.00  0.00    +0.163 C 
ATOM     12  C   UNL     1      -3.444 -12.056  13.172  0.00  0.00    +0.066 A 
ATOM     14  C   UNL     1      -3.046 -11.376  11.205  0.00  0.00    +0.200 A 
ATOM     16  C   UNL     1      -6.417 -11.271  16.026  0.00  0.00    +0.242 C 
ENDROOT
BRANCH   6  13
ATOM     13  C   UNL     1      -4.649  -9.454  11.018  0.00  0.00    +0.082 C 
ATOM     17  C   UNL     1      -6.038  -9.827  10.494  0.00  0.00    +0.030 C 
ATOM     18  C   UNL     1      -3.762  -8.928   9.888  0.00  0.00    +0.030 C 
ENDBRANCH   6  13
BRANCH   8  15
ATOM      2  O   UNL     1      -3.565 -10.089  16.882  0.00  0.00    -0.249 OA
ATOM     15  C   UNL     1      -3.185 -11.019  16.183  0.00  0.00    +0.328 C 
BRANCH  15   1
ATOM      1  O   UNL     1      -1.896 -11.301  15.840  0.00  0.00    -0.467 OA
ATOM     20  C   UNL     1      -1.082 -10.167  15.525  0.00  0.00    +0.280 C 
ENDBRANCH  15   1
ENDBRANCH   8  15
BRANCH  16  19
ATOM     19  C   UNL     1      -7.544 -10.333  15.669  0.00  0.00    +0.255 C 
BRANCH  19   4
ATOM      4  O   UNL     1      -7.448  -9.238  16.547  0.00  0.00    -0.374 OA
ATOM     21  C   UNL     1      -8.692  -8.950  17.184  0.00  0.00    +0.194 C 
ENDBRANCH  19   4
ENDBRANCH  16  19
TORSDOF 5
ENDMDL
MODEL 6
REMARK VINA RESULT:      -4.6     26.083     27.713
REMARK  Name = 25338997
REMARK  9 active torsions:
REMARK  status: ('A' for Active; 'I' for Inactive)
REMARK    1  A    between atoms: O_1  and  C_15
REMARK    2  A    between atoms: O_1  and  C_20
REMARK    3  A    between atoms: O_4  and  C_19
REMARK    4  A    between atoms: O_4  and  C_21
REMARK    5  A    between atoms: N_6  and  C_13
REMARK    6  A    between atoms: C_8  and  C_15
REMARK    7  A    between atoms: C_13  and  C_17
REMARK    8  A    between atoms: C_13  and  C_18
REMARK    9  A    between atoms: C_16  and  C_19
REMARK                            x       y       z     vdW  Elec       q    Type
REMARK                         _______ _______ _______ _____ _____    ______ ____
ROOT
ATOM      3  O   UNL     1      -4.844  -9.196   9.743  0.00  0.00    -0.273 OA
ATOM      5  N   UNL     1      -4.350 -10.104  11.834  0.00  0.00    -0.280 N 
ATOM      6  N   UNL     1      -3.689 -10.809  15.455  0.00  0.00    -0.330 N 
ATOM      7  N   UNL     1      -1.536 -10.717  14.869  0.00  0.00    -0.240 NA
ATOM      8  C   UNL     1      -3.013 -10.579  11.387  0.00  0.00    +0.191 C 
ATOM      9  C   UNL     1      -3.666 -10.595  14.109  0.00  0.00    +0.059 A 
ATOM     10  C   UNL     1      -1.870 -10.322  12.393  0.00  0.00    +0.091 C 
ATOM     11  C   UNL     1      -4.821 -10.463  13.202  0.00  0.00    +0.163 C 
ATOM     12  C   UNL     1      -2.336 -10.546  13.776  0.00  0.00    +0.066 A 
ATOM     14  C   UNL     1      -2.381 -10.875  15.868  0.00  0.00    +0.200 A 
ATOM     16  C   UNL     1      -5.193  -9.508  10.884  0.00  0.00    +0.242 C 
ENDROOT
BRANCH   6  13
ATOM     13  C   UNL     1      -4.852 -10.948  16.299  0.00  0.00    +0.082 C 
ATOM     17  C   UNL     1      -5.608  -9.624  16.437  0.00  0.00    +0.030 C 
ATOM     18  C   UNL     1      -4.486 -11.513  17.672  0.00  0.00    +0.030 C 
ENDBRANCH   6  13
BRANCH   8  15
ATOM      2  O   UNL     1      -2.860 -12.941  11.847  0.00  0.00    -0.249 OA
ATOM     15  C   UNL     1      -3.173 -12.041  11.078  0.00  0.00    +0.328 C 
BRANCH  15   1
ATOM      1  O   UNL     1      -3.711 -12.188   9.835  0.00  0.00    -0.467 OA
ATOM     20  C   UNL     1      -4.830 -13.076   9.750  0.00  0.00    +0.280 C 
ENDBRANCH  15   1
ENDBRANCH   8  15
BRANCH  16  19
ATOM     19  C   UNL     1      -6.613  -9.240  11.322  0.00  0.00    +0.255 C 
BRANCH  19   4
ATOM      4  O   UNL     1      -7.436  -9.537  10.220  0.00  0.00    -0.374 OA
ATOM     21  C   UNL     1      -8.818  -9.345  10.516  0.00  0.00    +0.194 C 
ENDBRANCH  19   4
ENDBRANCH  16  19
TORSDOF 5
ENDMDL
MODEL 7
REMARK VINA RESULT:      -4.5     25.124     26.778
REMARK  Name = 25338997
REMARK  9 active torsions:
REMARK  status: ('A' for Active; 'I' for Inactive)
REMARK    1  A    between atoms: O_1  and  C_15
REMARK    2  A    between atoms: O_1  and  C_20
REMARK    3  A    between atoms: O_4  and  C_19
REMARK    4  A    between atoms: O_4  and  C_21
REMARK    5  A    between atoms: N_6  and  C_13
REMARK    6  A    between atoms: C_8  and  C_15
REMARK    7  A    between atoms: C_13  and  C_17
REMARK    8  A    between atoms: C_13  and  C_18
REMARK    9  A    between atoms: C_16  and  C_19
REMARK                            x       y       z     vdW  Elec       q    Type
REMARK                         _______ _______ _______ _____ _____    ______ ____
ROOT
ATOM      3  O   UNL     1     -14.609   6.190  21.954  0.00  0.00    -0.273 OA
ATOM      5  N   UNL     1     -13.813   7.326  20.080  0.00  0.00    -0.280 N 
ATOM      6  N   UNL     1     -12.618   8.436  16.705  0.00  0.00    -0.330 N 
ATOM      7  N   UNL     1     -10.577   8.260  17.596  0.00  0.00    -0.240 NA
ATOM      8  C   UNL     1     -12.563   7.736  20.775  0.00  0.00    +0.191 C 
ATOM      9  C   UNL     1     -12.797   8.069  18.005  0.00  0.00    +0.059 A 
ATOM     10  C   UNL     1     -11.279   7.587  19.931  0.00  0.00    +0.091 C 
ATOM     11  C   UNL     1     -14.074   7.843  18.706  0.00  0.00    +0.163 C 
ATOM     12  C   UNL     1     -11.532   7.972  18.529  0.00  0.00    +0.066 A 
ATOM     14  C   UNL     1     -11.264   8.539  16.505  0.00  0.00    +0.200 A 
ATOM     16  C   UNL     1     -14.784   6.633  20.817  0.00  0.00    +0.242 C 
ENDROOT
BRANCH   6  13
ATOM     13  C   UNL     1     -13.642   8.679  15.716  0.00  0.00    +0.082 C 
ATOM     17  C   UNL     1     -13.299   8.022  14.377  0.00  0.00    +0.030 C 
ATOM     18  C   UNL     1     -13.907  10.175  15.537  0.00  0.00    +0.030 C 
ENDBRANCH   6  13
BRANCH   8  15
ATOM      2  O   UNL     1     -13.737   9.522  21.892  0.00  0.00    -0.249 OA
ATOM     15  C   UNL     1     -12.782   9.155  21.221  0.00  0.00    +0.328 C 
BRANCH  15   1
ATOM      1  O   UNL     1     -11.764   9.938  20.763  0.00  0.00    -0.467 OA
ATOM     20  C   UNL     1     -12.157  11.210  20.238  0.00  0.00    +0.280 C 
ENDBRANCH  15   1
ENDBRANCH   8  15
BRANCH  16  19
ATOM     19  C   UNL     1     -16.118   6.427  20.142  0.00  0.00    +0.255 C 
BRANCH  19   4
ATOM      4  O   UNL     1     -16.360   5.041  20.145  0.00  0.00    -0.374 OA
ATOM     21  C   UNL     1     -17.302   4.659  19.143  0.00  0.00    +0.194 C 
ENDBRANCH  19   4
ENDBRANCH  16  19
TORSDOF 5
ENDMDL
MODEL 8
REMARK VINA RESULT:      -4.5     26.773     28.192
REMARK  Name = 25338997
REMARK  9 active torsions:
REMARK  status: ('A' for Active; 'I' for Inactive)
REMARK    1  A    between atoms: O_1  and  C_15
REMARK    2  A    between atoms: O_1  and  C_20
REMARK    3  A    between atoms: O_4  and  C_19
REMARK    4  A    between atoms: O_4  and  C_21
REMARK    5  A    between atoms: N_6  and  C_13
REMARK    6  A    between atoms: C_8  and  C_15
REMARK    7  A    between atoms: C_13  and  C_17
REMARK    8  A    between atoms: C_13  and  C_18
REMARK    9  A    between atoms: C_16  and  C_19
REMARK                            x       y       z     vdW  Elec       q    Type
REMARK                         _______ _______ _______ _____ _____    ______ ____
ROOT
ATOM      3  O   UNL     1      -3.973 -10.259  12.726  0.00  0.00    -0.273 OA
ATOM      5  N   UNL     1      -5.203 -10.603  14.677  0.00  0.00    -0.280 N 
ATOM      6  N   UNL     1      -7.273 -10.353  17.792  0.00  0.00    -0.330 N 
ATOM      7  N   UNL     1      -5.322 -10.559  18.859  0.00  0.00    -0.240 NA
ATOM      8  C   UNL     1      -4.060 -11.265  15.361  0.00  0.00    +0.191 C 
ATOM      9  C   UNL     1      -6.322 -10.509  16.827  0.00  0.00    +0.059 A 
ATOM     10  C   UNL     1      -3.843 -10.822  16.824  0.00  0.00    +0.091 C 
ATOM     11  C   UNL     1      -6.523 -10.551  15.367  0.00  0.00    +0.163 C 
ATOM     12  C   UNL     1      -5.138 -10.637  17.508  0.00  0.00    +0.066 A 
ATOM     14  C   UNL     1      -6.622 -10.390  18.999  0.00  0.00    +0.200 A 
ATOM     16  C   UNL     1      -5.045 -10.231  13.333  0.00  0.00    +0.242 C 
ENDROOT
BRANCH   6  13
ATOM     13  C   UNL     1      -8.694 -10.185  17.599  0.00  0.00    +0.082 C 
ATOM     17  C   UNL     1      -9.054  -8.727  17.302  0.00  0.00    +0.030 C 
ATOM     18  C   UNL     1      -9.490 -10.710  18.795  0.00  0.00    +0.030 C 
ENDBRANCH   6  13
BRANCH   8  15
ATOM      2  O   UNL     1      -4.980 -13.385  16.051  0.00  0.00    -0.249 OA
ATOM     15  C   UNL     1      -4.310 -12.743  15.252  0.00  0.00    +0.328 C 
BRANCH  15   1
ATOM      1  O   UNL     1      -3.682 -13.231  14.145  0.00  0.00    -0.467 OA
ATOM     20  C   UNL     1      -2.262 -13.058  14.118  0.00  0.00    +0.280 C 
ENDBRANCH  15   1
ENDBRANCH   8  15
BRANCH  16  19
ATOM     19  C   UNL     1      -6.288  -9.764  12.616  0.00  0.00    +0.255 C 
BRANCH  19   4
ATOM      4  O   UNL     1      -5.889  -8.727  11.754  0.00  0.00    -0.374 OA
ATOM     21  C   UNL     1      -6.420  -8.887  10.440  0.00  0.00    +0.194 C 
ENDBRANCH  19   4
ENDBRANCH  16  19
TORSDOF 5
ENDMDL
MODEL 9
REMARK VINA RESULT:      -4.5     11.527     13.901
REMARK  Name = 25338997
REMARK  9 active torsions:
REMARK  status: ('A' for Active; 'I' for Inactive)
REMARK    1  A    between atoms: O_1  and  C_15
REMARK    2  A    between atoms: O_1  and  C_20
REMARK    3  A    between atoms: O_4  and  C_19
REMARK    4  A    between atoms: O_4  and  C_21
REMARK    5  A    between atoms: N_6  and  C_13
REMARK    6  A    between atoms: C_8  and  C_15
REMARK    7  A    between atoms: C_13  and  C_17
REMARK    8  A    between atoms: C_13  and  C_18
REMARK    9  A    between atoms: C_16  and  C_19
REMARK                            x       y       z     vdW  Elec       q    Type
REMARK                         _______ _______ _______ _____ _____    ______ ____
ROOT
ATOM      3  O   UNL     1       9.799   4.627   6.295  0.00  0.00    -0.273 OA
ATOM      5  N   UNL     1      10.003   6.911   6.718  0.00  0.00    -0.280 N 
ATOM      6  N   UNL     1       9.669  10.470   7.848  0.00  0.00    -0.330 N 
ATOM      7  N   UNL     1       8.791  10.816   5.824  0.00  0.00    -0.240 NA
ATOM      8  C   UNL     1       9.946   7.253   5.272  0.00  0.00    +0.191 C 
ATOM      9  C   UNL     1       9.723   9.273   7.197  0.00  0.00    +0.059 A 
ATOM     10  C   UNL     1       9.048   8.462   4.932  0.00  0.00    +0.091 C 
ATOM     11  C   UNL     1      10.262   7.999   7.705  0.00  0.00    +0.163 C 
ATOM     12  C   UNL     1       9.183   9.514   5.959  0.00  0.00    +0.066 A 
ATOM     14  C   UNL     1       9.100  11.368   6.980  0.00  0.00    +0.200 A 
ATOM     16  C   UNL     1      10.008   5.556   7.079  0.00  0.00    +0.242 C 
ENDROOT
BRANCH   6  13
ATOM     13  C   UNL     1      10.122  10.756   9.189  0.00  0.00    +0.082 C 
ATOM     17  C   UNL     1       9.087  11.567   9.972  0.00  0.00    +0.030 C 
ATOM     18  C   UNL     1      11.479  11.463   9.185  0.00  0.00    +0.030 C 
ENDBRANCH   6  13
BRANCH   8  15
ATOM      2  O   UNL     1      12.252   7.886   5.578  0.00  0.00    -0.249 OA
ATOM     15  C   UNL     1      11.369   7.470   4.840  0.00  0.00    +0.328 C 
BRANCH  15   1
ATOM      1  O   UNL     1      11.502   7.134   3.525  0.00  0.00    -0.467 OA
ATOM     20  C   UNL     1      11.385   5.738   3.233  0.00  0.00    +0.280 C 
ENDBRANCH  15   1
ENDBRANCH   8  15
BRANCH  16  19
ATOM     19  C   UNL     1      10.284   5.249   8.531  0.00  0.00    +0.255 C 
BRANCH  19   4
ATOM      4  O   UNL     1       9.290   4.343   8.946  0.00  0.00    -0.374 OA
ATOM     21  C   UNL     1       8.870   4.586  10.287  0.00  0.00    +0.194 C 
ENDBRANCH  19   4
ENDBRANCH  16  19
TORSDOF 5
ENDMDL
MODEL 10
REMARK VINA RESULT:      -4.5     26.164     28.233
REMARK  Name = 25338997
REMARK  9 active torsions:
REMARK  status: ('A' for Active; 'I' for Inactive)
REMARK    1  A    between atoms: O_1  and  C_15
REMARK    2  A    between atoms: O_1  and  C_20
REMARK    3  A    between atoms: O_4  and  C_19
REMARK    4  A    between atoms: O_4  and  C_21
REMARK    5  A    between atoms: N_6  and  C_13
REMARK    6  A    between atoms: C_8  and  C_15
REMARK    7  A    between atoms: C_13  and  C_17
REMARK    8  A    between atoms: C_13  and  C_18
REMARK    9  A    between atoms: C_16  and  C_19
REMARK                            x       y       z     vdW  Elec       q    Type
REMARK                         _______ _______ _______ _____ _____    ______ ____
ROOT
ATOM      3  O   UNL     1      -3.435 -14.012  12.413  0.00  0.00    -0.273 OA
ATOM      5  N   UNL     1      -3.964 -12.830  14.352  0.00  0.00    -0.280 N 
ATOM      6  N   UNL     1      -5.507 -11.344  17.428  0.00  0.00    -0.330 N 
ATOM      7  N   UNL     1      -5.944  -9.592  16.114  0.00  0.00    -0.240 NA
ATOM      8  C   UNL     1      -3.770 -11.515  13.684  0.00  0.00    +0.191 C 
ATOM      9  C   UNL     1      -4.979 -11.639  16.206  0.00  0.00    +0.059 A 
ATOM     10  C   UNL     1      -4.856 -10.465  14.003  0.00  0.00    +0.091 C 
ATOM     11  C   UNL     1      -4.249 -12.858  15.815  0.00  0.00    +0.163 C 
ATOM     12  C   UNL     1      -5.257 -10.548  15.422  0.00  0.00    +0.066 A 
ATOM     14  C   UNL     1      -6.078 -10.100  17.322  0.00  0.00    +0.200 A 
ATOM     16  C   UNL     1      -3.676 -13.992  13.622  0.00  0.00    +0.242 C 
ENDROOT
BRANCH   6  13
ATOM     13  C   UNL     1      -5.476 -12.165  18.615  0.00  0.00    +0.082 C 
ATOM     17  C   UNL     1      -6.614 -11.810  19.575  0.00  0.00    +0.030 C 
ATOM     18  C   UNL     1      -4.121 -12.083  19.321  0.00  0.00    +0.030 C 
ENDBRANCH   6  13
BRANCH   8  15
ATOM      2  O   UNL     1      -1.788 -11.464  15.055  0.00  0.00    -0.249 OA
ATOM     15  C   UNL     1      -2.399 -11.044  14.082  0.00  0.00    +0.328 C 
BRANCH  15   1
ATOM      1  O   UNL     1      -1.968 -10.099  13.199  0.00  0.00    -0.467 OA
ATOM     20  C   UNL     1      -1.984 -10.491  11.823  0.00  0.00    +0.280 C 
ENDBRANCH  15   1
ENDBRANCH   8  15
BRANCH  16  19
ATOM     19  C   UNL     1      -3.675 -15.288  14.396  0.00  0.00    +0.255 C 
BRANCH  19   4
ATOM      4  O   UNL     1      -2.331 -15.580  14.690  0.00  0.00    -0.374 OA
ATOM     21  C   UNL     1      -1.891 -16.779  14.052  0.00  0.00    +0.194 C 
ENDBRANCH  19   4
ENDBRANCH  16  19
TORSDOF 5
ENDMDL
