MODEL 1
REMARK VINA RESULT:      -7.4      0.000      0.000
REMARK  Name = 40780082
REMARK  9 active torsions:
REMARK  status: ('A' for Active; 'I' for Inactive)
REMARK    1  A    between atoms: O_1  and  C_16
REMARK    2  A    between atoms: O_1  and  C_26
REMARK    3  A    between atoms: O_3  and  C_32
REMARK    4  A    between atoms: O_3  and  C_33
REMARK    5  A    between atoms: N_5  and  C_24
REMARK    6  A    between atoms: N_7  and  C_27
REMARK    7  A    between atoms: C_9  and  C_15
REMARK    8  A    between atoms: C_11  and  C_16
REMARK    9  A    between atoms: C_18  and  C_19
REMARK                            x       y       z     vdW  Elec       q    Type
REMARK                         _______ _______ _______ _____ _____    ______ ____
ROOT
ATOM      4  N   UNL     1      12.385   6.808  21.200  0.00  0.00    -0.296 NA
ATOM      8  C   UNL     1      11.606   9.219  20.598  0.00  0.00    +0.002 C 
ATOM      9  C   UNL     1      11.848   8.388  19.308  0.00  0.00    +0.055 C 
ATOM     10  C   UNL     1      12.896   9.235  21.446  0.00  0.00    +0.026 C 
ATOM     11  C   UNL     1      13.201   7.805  21.941  0.00  0.00    +0.095 C 
ATOM     12  C   UNL     1      12.499   7.043  19.739  0.00  0.00    +0.094 C 
ATOM     13  C   UNL     1      10.535   8.467  21.417  0.00  0.00    +0.019 C 
ATOM     14  C   UNL     1      10.967   6.999  21.590  0.00  0.00    +0.085 C 
ENDROOT
BRANCH   9  15
ATOM      5  N   UNL     1      12.071   9.179  16.906  0.00  0.00    -0.271 N 
ATOM      6  N   UNL     1      12.890   9.792  16.035  0.00  0.00    -0.176 NA
ATOM     15  C   UNL     1      12.596   9.049  18.158  0.00  0.00    +0.044 A 
ATOM     17  C   UNL     1      13.846   9.616  18.102  0.00  0.00    +0.048 A 
ATOM     18  C   UNL     1      13.972  10.056  16.771  0.00  0.00    +0.066 A 
ATOM     24  C   UNL     1      10.772   8.733  16.459  0.00  0.00    +0.172 C 
BRANCH  18  19
ATOM     19  C   UNL     1      15.159  10.762  16.139  0.00  0.00    +0.040 C 
ATOM     20  C   UNL     1      15.518  12.056  16.889  0.00  0.00    +0.010 C 
ATOM     21  C   UNL     1      14.932  11.039  14.643  0.00  0.00    +0.010 C 
ATOM     22  C   UNL     1      16.719  12.755  16.253  0.00  0.00    +0.001 C 
ATOM     23  C   UNL     1      16.135  11.740  14.016  0.00  0.00    +0.001 C 
ATOM     25  C   UNL     1      16.495  13.018  14.767  0.00  0.00    +0.000 C 
ENDBRANCH  18  19
ENDBRANCH   9  15
BRANCH  11  16
ATOM     16  C   UNL     1      14.696   7.489  21.888  0.00  0.00    +0.252 C 
BRANCH  16   1
ATOM      1  O   UNL     1      15.357   8.565  21.248  0.00  0.00    -0.449 OA
BRANCH   1  26
ATOM      2  O   UNL     1      17.437   9.403  20.801  0.00  0.00    -0.226 OA
ATOM      7  N   UNL     1      17.107   7.152  21.353  0.00  0.00    -0.251 N 
ATOM     26  C   UNL     1      16.722   8.456  21.104  0.00  0.00    +0.405 C 
ATOM     34  H   UNL     1      16.363   6.502  21.593  0.00  0.00    +0.158 HD
BRANCH   7  27
ATOM     27  C   UNL     1      18.410   6.607  21.316  0.00  0.00    +0.037 A 
ATOM     28  C   UNL     1      18.792   5.785  20.256  0.00  0.00    +0.027 A 
ATOM     29  C   UNL     1      19.315   6.890  22.339  0.00  0.00    +0.027 A 
ATOM     30  C   UNL     1      20.078   5.246  20.219  0.00  0.00    +0.047 A 
ATOM     31  C   UNL     1      20.601   6.352  22.301  0.00  0.00    +0.047 A 
ATOM     32  C   UNL     1      20.983   5.530  21.241  0.00  0.00    +0.120 A 
BRANCH  32   3
ATOM      3  O   UNL     1      22.237   5.005  21.205  0.00  0.00    -0.495 OA
ATOM     33  C   UNL     1      22.374   3.626  21.545  0.00  0.00    +0.277 C 
ENDBRANCH  32   3
ENDBRANCH   7  27
ENDBRANCH   1  26
ENDBRANCH  16   1
ENDBRANCH  11  16
TORSDOF 7
ENDMDL
MODEL 2
REMARK VINA RESULT:      -7.3     26.814     30.104
REMARK  Name = 40780082
REMARK  9 active torsions:
REMARK  status: ('A' for Active; 'I' for Inactive)
REMARK    1  A    between atoms: O_1  and  C_16
REMARK    2  A    between atoms: O_1  and  C_26
REMARK    3  A    between atoms: O_3  and  C_32
REMARK    4  A    between atoms: O_3  and  C_33
REMARK    5  A    between atoms: N_5  and  C_24
REMARK    6  A    between atoms: N_7  and  C_27
REMARK    7  A    between atoms: C_9  and  C_15
REMARK    8  A    between atoms: C_11  and  C_16
REMARK    9  A    between atoms: C_18  and  C_19
REMARK                            x       y       z     vdW  Elec       q    Type
REMARK                         _______ _______ _______ _____ _____    ______ ____
ROOT
ATOM      4  N   UNL     1      -6.069 -10.510   9.551  0.00  0.00    -0.296 NA
ATOM      8  C   UNL     1      -4.138  -9.011  10.449  0.00  0.00    +0.002 C 
ATOM      9  C   UNL     1      -3.990 -10.463  10.979  0.00  0.00    +0.055 C 
ATOM     10  C   UNL     1      -5.521  -8.457  10.854  0.00  0.00    +0.026 C 
ATOM     11  C   UNL     1      -6.625  -9.261  10.134  0.00  0.00    +0.095 C 
ATOM     12  C   UNL     1      -5.276 -11.238  10.572  0.00  0.00    +0.094 C 
ATOM     13  C   UNL     1      -4.117  -9.096   8.908  0.00  0.00    +0.019 C 
ATOM     14  C   UNL     1      -5.159 -10.130   8.443  0.00  0.00    +0.085 C 
ENDROOT
BRANCH   9  15
ATOM      5  N   UNL     1      -2.394 -10.426  12.953  0.00  0.00    -0.271 N 
ATOM      6  N   UNL     1      -2.291 -10.658  14.273  0.00  0.00    -0.176 NA
ATOM     15  C   UNL     1      -3.639 -10.659  12.448  0.00  0.00    +0.044 A 
ATOM     17  C   UNL     1      -4.405 -11.072  13.511  0.00  0.00    +0.048 A 
ATOM     18  C   UNL     1      -3.522 -11.053  14.607  0.00  0.00    +0.066 A 
ATOM     24  C   UNL     1      -1.232  -9.975  12.224  0.00  0.00    +0.172 C 
BRANCH  18  19
ATOM     19  C   UNL     1      -3.831 -11.417  16.049  0.00  0.00    +0.040 C 
ATOM     20  C   UNL     1      -4.632 -12.726  16.148  0.00  0.00    +0.010 C 
ATOM     21  C   UNL     1      -4.549 -10.275  16.789  0.00  0.00    +0.010 C 
ATOM     22  C   UNL     1      -4.930 -13.090  17.602  0.00  0.00    +0.001 C 
ATOM     23  C   UNL     1      -4.846 -10.648  18.239  0.00  0.00    +0.001 C 
ATOM     25  C   UNL     1      -5.632 -11.952  18.335  0.00  0.00    +0.000 C 
ENDBRANCH  18  19
ENDBRANCH   9  15
BRANCH  11  16
ATOM     16  C   UNL     1      -7.823  -9.527  11.046  0.00  0.00    +0.252 C 
BRANCH  16   1
ATOM      1  O   UNL     1      -7.467  -9.167  12.368  0.00  0.00    -0.449 OA
BRANCH   1  26
ATOM      2  O   UNL     1      -9.536  -9.683  13.193  0.00  0.00    -0.226 OA
ATOM      7  N   UNL     1      -7.621  -9.748  14.537  0.00  0.00    -0.251 N 
ATOM     26  C   UNL     1      -8.332  -9.552  13.369  0.00  0.00    +0.405 C 
ATOM     34  H   UNL     1      -6.618  -9.589  14.486  0.00  0.00    +0.158 HD
BRANCH   7  27
ATOM     27  C   UNL     1      -8.116 -10.145  15.800  0.00  0.00    +0.037 A 
ATOM     28  C   UNL     1      -8.147  -9.233  16.855  0.00  0.00    +0.027 A 
ATOM     29  C   UNL     1      -8.573 -11.449  15.993  0.00  0.00    +0.027 A 
ATOM     30  C   UNL     1      -8.635  -9.624  18.101  0.00  0.00    +0.047 A 
ATOM     31  C   UNL     1      -9.061 -11.840  17.240  0.00  0.00    +0.047 A 
ATOM     32  C   UNL     1      -9.092 -10.928  18.293  0.00  0.00    +0.120 A 
BRANCH  32   3
ATOM      3  O   UNL     1      -9.568 -11.309  19.510  0.00  0.00    -0.495 OA
ATOM     33  C   UNL     1     -10.675 -10.577  20.033  0.00  0.00    +0.277 C 
ENDBRANCH  32   3
ENDBRANCH   7  27
ENDBRANCH   1  26
ENDBRANCH  16   1
ENDBRANCH  11  16
TORSDOF 7
ENDMDL
MODEL 3
REMARK VINA RESULT:      -7.3     26.502     29.834
REMARK  Name = 40780082
REMARK  9 active torsions:
REMARK  status: ('A' for Active; 'I' for Inactive)
REMARK    1  A    between atoms: O_1  and  C_16
REMARK    2  A    between atoms: O_1  and  C_26
REMARK    3  A    between atoms: O_3  and  C_32
REMARK    4  A    between atoms: O_3  and  C_33
REMARK    5  A    between atoms: N_5  and  C_24
REMARK    6  A    between atoms: N_7  and  C_27
REMARK    7  A    between atoms: C_9  and  C_15
REMARK    8  A    between atoms: C_11  and  C_16
REMARK    9  A    between atoms: C_18  and  C_19
REMARK                            x       y       z     vdW  Elec       q    Type
REMARK                         _______ _______ _______ _____ _____    ______ ____
ROOT
ATOM      4  N   UNL     1      -6.373 -10.449  17.581  0.00  0.00    -0.296 NA
ATOM      8  C   UNL     1      -4.273 -11.946  17.218  0.00  0.00    +0.002 C 
ATOM      9  C   UNL     1      -4.105 -10.587  16.485  0.00  0.00    +0.055 C 
ATOM     10  C   UNL     1      -5.557 -12.641  16.718  0.00  0.00    +0.026 C 
ATOM     11  C   UNL     1      -6.787 -11.806  17.136  0.00  0.00    +0.095 C 
ATOM     12  C   UNL     1      -5.466  -9.839  16.578  0.00  0.00    +0.094 C 
ATOM     13  C   UNL     1      -4.485 -11.623  18.712  0.00  0.00    +0.019 C 
ATOM     14  C   UNL     1      -5.624 -10.597  18.853  0.00  0.00    +0.085 C 
ENDROOT
BRANCH   9  15
ATOM      5  N   UNL     1      -2.215 -10.504  14.792  0.00  0.00    -0.271 N 
ATOM      6  N   UNL     1      -1.930 -10.533  13.479  0.00  0.00    -0.176 NA
ATOM     15  C   UNL     1      -3.548 -10.598  15.068  0.00  0.00    +0.044 A 
ATOM     17  C   UNL     1      -4.178 -10.696  13.852  0.00  0.00    +0.048 A 
ATOM     18  C   UNL     1      -3.132 -10.651  12.910  0.00  0.00    +0.066 A 
ATOM     24  C   UNL     1      -1.138 -10.379  15.745  0.00  0.00    +0.172 C 
BRANCH  18  19
ATOM     19  C   UNL     1      -3.247 -10.721  11.398  0.00  0.00    +0.040 C 
ATOM     20  C   UNL     1      -3.805  -9.415  10.806  0.00  0.00    +0.010 C 
ATOM     21  C   UNL     1      -4.080 -11.931  10.941  0.00  0.00    +0.010 C 
ATOM     22  C   UNL     1      -3.908  -9.491   9.283  0.00  0.00    +0.001 C 
ATOM     23  C   UNL     1      -4.181 -11.998   9.419  0.00  0.00    +0.001 C 
ATOM     25  C   UNL     1      -4.725 -10.698   8.834  0.00  0.00    +0.000 C 
ENDBRANCH  18  19
ENDBRANCH   9  15
BRANCH  11  16
ATOM     16  C   UNL     1      -7.846 -11.759  16.033  0.00  0.00    +0.252 C 
BRANCH  16   1
ATOM      1  O   UNL     1      -8.676 -10.635  16.259  0.00  0.00    -0.449 OA
BRANCH   1  26
ATOM      2  O   UNL     1      -9.524  -8.760  15.264  0.00  0.00    -0.226 OA
ATOM      7  N   UNL     1      -8.457 -10.436  14.028  0.00  0.00    -0.251 N 
ATOM     26  C   UNL     1      -8.942  -9.833  15.172  0.00  0.00    +0.405 C 
ATOM     34  H   UNL     1      -7.998 -11.335  14.153  0.00  0.00    +0.158 HD
BRANCH   7  27
ATOM     27  C   UNL     1      -8.518  -9.958  12.699  0.00  0.00    +0.037 A 
ATOM     28  C   UNL     1      -7.360  -9.502  12.068  0.00  0.00    +0.027 A 
ATOM     29  C   UNL     1      -9.735  -9.940  12.019  0.00  0.00    +0.027 A 
ATOM     30  C   UNL     1      -7.420  -9.029  10.758  0.00  0.00    +0.047 A 
ATOM     31  C   UNL     1      -9.795  -9.467  10.708  0.00  0.00    +0.047 A 
ATOM     32  C   UNL     1      -8.637  -9.013  10.077  0.00  0.00    +0.120 A 
BRANCH  32   3
ATOM      3  O   UNL     1      -8.695  -8.551   8.798  0.00  0.00    -0.495 OA
ATOM     33  C   UNL     1      -7.502  -7.989   8.256  0.00  0.00    +0.277 C 
ENDBRANCH  32   3
ENDBRANCH   7  27
ENDBRANCH   1  26
ENDBRANCH  16   1
ENDBRANCH  11  16
TORSDOF 7
ENDMDL
MODEL 4
REMARK VINA RESULT:      -7.0     26.973     30.074
REMARK  Name = 40780082
REMARK  9 active torsions:
REMARK  status: ('A' for Active; 'I' for Inactive)
REMARK    1  A    between atoms: O_1  and  C_16
REMARK    2  A    between atoms: O_1  and  C_26
REMARK    3  A    between atoms: O_3  and  C_32
REMARK    4  A    between atoms: O_3  and  C_33
REMARK    5  A    between atoms: N_5  and  C_24
REMARK    6  A    between atoms: N_7  and  C_27
REMARK    7  A    between atoms: C_9  and  C_15
REMARK    8  A    between atoms: C_11  and  C_16
REMARK    9  A    between atoms: C_18  and  C_19
REMARK                            x       y       z     vdW  Elec       q    Type
REMARK                         _______ _______ _______ _____ _____    ______ ____
ROOT
ATOM      4  N   UNL     1      -5.491 -10.698  18.590  0.00  0.00    -0.296 NA
ATOM      8  C   UNL     1      -4.866 -12.651  16.986  0.00  0.00    +0.002 C 
ATOM      9  C   UNL     1      -4.033 -11.385  16.649  0.00  0.00    +0.055 C 
ATOM     10  C   UNL     1      -6.370 -12.312  16.906  0.00  0.00    +0.026 C 
ATOM     11  C   UNL     1      -6.724 -11.294  18.011  0.00  0.00    +0.095 C 
ATOM     12  C   UNL     1      -4.601 -10.216  17.505  0.00  0.00    +0.094 C 
ATOM     13  C   UNL     1      -4.560 -13.007  18.456  0.00  0.00    +0.019 C 
ATOM     14  C   UNL     1      -4.777 -11.763  19.335  0.00  0.00    +0.085 C 
ENDROOT
BRANCH   9  15
ATOM      5  N   UNL     1      -2.655 -10.777  14.606  0.00  0.00    -0.271 N 
ATOM      6  N   UNL     1      -2.726 -10.450  13.304  0.00  0.00    -0.176 NA
ATOM     15  C   UNL     1      -3.869 -11.001  15.185  0.00  0.00    +0.044 A 
ATOM     17  C   UNL     1      -4.800 -10.807  14.193  0.00  0.00    +0.048 A 
ATOM     18  C   UNL     1      -4.037 -10.470  13.058  0.00  0.00    +0.066 A 
ATOM     24  C   UNL     1      -1.361 -10.855  15.244  0.00  0.00    +0.172 C 
BRANCH  18  19
ATOM     19  C   UNL     1      -4.548 -10.149  11.664  0.00  0.00    +0.040 C 
ATOM     20  C   UNL     1      -3.430  -9.606  10.758  0.00  0.00    +0.010 C 
ATOM     21  C   UNL     1      -5.745  -9.183  11.700  0.00  0.00    +0.010 C 
ATOM     22  C   UNL     1      -3.950  -9.294   9.355  0.00  0.00    +0.001 C 
ATOM     23  C   UNL     1      -6.256  -8.874  10.295  0.00  0.00    +0.001 C 
ATOM     25  C   UNL     1      -5.143  -8.345   9.395  0.00  0.00    +0.000 C 
ENDBRANCH  18  19
ENDBRANCH   9  15
BRANCH  11  16
ATOM     16  C   UNL     1      -7.707 -10.232  17.516  0.00  0.00    +0.252 C 
BRANCH  16   1
ATOM      1  O   UNL     1      -8.836 -10.236  18.368  0.00  0.00    -0.449 OA
BRANCH   1  26
ATOM      2  O   UNL     1     -11.084  -9.815  18.367  0.00  0.00    -0.226 OA
ATOM      7  N   UNL     1      -9.632  -8.772  16.856  0.00  0.00    -0.251 N 
ATOM     26  C   UNL     1      -9.971  -9.614  17.897  0.00  0.00    +0.405 C 
ATOM     34  H   UNL     1      -8.647  -8.738  16.606  0.00  0.00    +0.158 HD
BRANCH   7  27
ATOM     27  C   UNL     1     -10.488  -7.947  16.090  0.00  0.00    +0.037 A 
ATOM     28  C   UNL     1     -10.969  -8.394  14.860  0.00  0.00    +0.027 A 
ATOM     29  C   UNL     1     -10.850  -6.686  16.564  0.00  0.00    +0.027 A 
ATOM     30  C   UNL     1     -11.813  -7.580  14.104  0.00  0.00    +0.047 A 
ATOM     31  C   UNL     1     -11.694  -5.873  15.808  0.00  0.00    +0.047 A 
ATOM     32  C   UNL     1     -12.176  -6.320  14.578  0.00  0.00    +0.120 A 
BRANCH  32   3
ATOM      3  O   UNL     1     -12.999  -5.526  13.841  0.00  0.00    -0.495 OA
ATOM     33  C   UNL     1     -12.384  -4.653  12.895  0.00  0.00    +0.277 C 
ENDBRANCH  32   3
ENDBRANCH   7  27
ENDBRANCH   1  26
ENDBRANCH  16   1
ENDBRANCH  11  16
TORSDOF 7
ENDMDL
MODEL 5
REMARK VINA RESULT:      -6.7     28.082     32.168
REMARK  Name = 40780082
REMARK  9 active torsions:
REMARK  status: ('A' for Active; 'I' for Inactive)
REMARK    1  A    between atoms: O_1  and  C_16
REMARK    2  A    between atoms: O_1  and  C_26
REMARK    3  A    between atoms: O_3  and  C_32
REMARK    4  A    between atoms: O_3  and  C_33
REMARK    5  A    between atoms: N_5  and  C_24
REMARK    6  A    between atoms: N_7  and  C_27
REMARK    7  A    between atoms: C_9  and  C_15
REMARK    8  A    between atoms: C_11  and  C_16
REMARK    9  A    between atoms: C_18  and  C_19
REMARK                            x       y       z     vdW  Elec       q    Type
REMARK                         _______ _______ _______ _____ _____    ______ ____
ROOT
ATOM      4  N   UNL     1     -13.159   9.203  33.835  0.00  0.00    -0.296 NA
ATOM      8  C   UNL     1     -15.352   8.175  32.877  0.00  0.00    +0.002 C 
ATOM      9  C   UNL     1     -14.655   7.172  33.837  0.00  0.00    +0.055 C 
ATOM     10  C   UNL     1     -14.373   8.569  31.751  0.00  0.00    +0.026 C 
ATOM     11  C   UNL     1     -13.186   9.351  32.356  0.00  0.00    +0.095 C 
ATOM     12  C   UNL     1     -13.267   7.770  34.204  0.00  0.00    +0.094 C 
ATOM     13  C   UNL     1     -15.637   9.451  33.698  0.00  0.00    +0.019 C 
ATOM     14  C   UNL     1     -14.340   9.913  34.385  0.00  0.00    +0.085 C 
ENDROOT
BRANCH   9  15
ATOM      5  N   UNL     1     -14.367   4.691  34.289  0.00  0.00    -0.271 N 
ATOM      6  N   UNL     1     -14.313   3.479  33.710  0.00  0.00    -0.176 NA
ATOM     15  C   UNL     1     -14.560   5.714  33.408  0.00  0.00    +0.044 A 
ATOM     17  C   UNL     1     -14.638   5.132  32.167  0.00  0.00    +0.048 A 
ATOM     18  C   UNL     1     -14.478   3.756  32.414  0.00  0.00    +0.066 A 
ATOM     24  C   UNL     1     -14.221   4.795  35.722  0.00  0.00    +0.172 C 
BRANCH  18  19
ATOM     19  C   UNL     1     -14.480   2.627  31.397  0.00  0.00    +0.040 C 
ATOM     20  C   UNL     1     -15.461   2.899  30.244  0.00  0.00    +0.010 C 
ATOM     21  C   UNL     1     -14.765   1.265  32.052  0.00  0.00    +0.010 C 
ATOM     22  C   UNL     1     -15.449   1.764  29.221  0.00  0.00    +0.001 C 
ATOM     23  C   UNL     1     -14.754   0.137  31.023  0.00  0.00    +0.001 C 
ATOM     25  C   UNL     1     -15.722   0.413  29.876  0.00  0.00    +0.000 C 
ENDBRANCH  18  19
ENDBRANCH   9  15
BRANCH  11  16
ATOM     16  C   UNL     1     -11.857   8.962  31.707  0.00  0.00    +0.252 C 
BRANCH  16   1
ATOM      1  O   UNL     1     -11.107  10.141  31.484  0.00  0.00    -0.449 OA
BRANCH   1  26
ATOM      2  O   UNL     1     -11.482  12.066  30.309  0.00  0.00    -0.226 OA
ATOM      7  N   UNL     1     -11.530   9.964  29.281  0.00  0.00    -0.251 N 
ATOM     26  C   UNL     1     -11.386  10.846  30.334  0.00  0.00    +0.405 C 
ATOM     34  H   UNL     1     -11.413   8.978  29.500  0.00  0.00    +0.158 HD
BRANCH   7  27
ATOM     27  C   UNL     1     -11.820  10.262  27.930  0.00  0.00    +0.037 A 
ATOM     28  C   UNL     1     -13.146  10.370  27.509  0.00  0.00    +0.027 A 
ATOM     29  C   UNL     1     -10.782  10.448  27.017  0.00  0.00    +0.027 A 
ATOM     30  C   UNL     1     -13.433  10.664  26.177  0.00  0.00    +0.047 A 
ATOM     31  C   UNL     1     -11.070  10.742  25.684  0.00  0.00    +0.047 A 
ATOM     32  C   UNL     1     -12.395  10.850  25.264  0.00  0.00    +0.120 A 
BRANCH  32   3
ATOM      3  O   UNL     1     -12.675  11.137  23.964  0.00  0.00    -0.495 OA
ATOM     33  C   UNL     1     -13.316  12.384  23.697  0.00  0.00    +0.277 C 
ENDBRANCH  32   3
ENDBRANCH   7  27
ENDBRANCH   1  26
ENDBRANCH  16   1
ENDBRANCH  11  16
TORSDOF 7
ENDMDL
MODEL 6
REMARK VINA RESULT:      -6.6     13.817     17.945
REMARK  Name = 40780082
REMARK  9 active torsions:
REMARK  status: ('A' for Active; 'I' for Inactive)
REMARK    1  A    between atoms: O_1  and  C_16
REMARK    2  A    between atoms: O_1  and  C_26
REMARK    3  A    between atoms: O_3  and  C_32
REMARK    4  A    between atoms: O_3  and  C_33
REMARK    5  A    between atoms: N_5  and  C_24
REMARK    6  A    between atoms: N_7  and  C_27
REMARK    7  A    between atoms: C_9  and  C_15
REMARK    8  A    between atoms: C_11  and  C_16
REMARK    9  A    between atoms: C_18  and  C_19
REMARK                            x       y       z     vdW  Elec       q    Type
REMARK                         _______ _______ _______ _____ _____    ______ ____
ROOT
ATOM      4  N   UNL     1      13.192   5.575  -1.032  0.00  0.00    -0.296 NA
ATOM      8  C   UNL     1      11.457   3.958   0.044  0.00  0.00    +0.002 C 
ATOM      9  C   UNL     1      10.953   5.426   0.121  0.00  0.00    +0.055 C 
ATOM     10  C   UNL     1      12.834   3.853   0.735  0.00  0.00    +0.026 C 
ATOM     11  C   UNL     1      13.870   4.675  -0.062  0.00  0.00    +0.095 C 
ATOM     12  C   UNL     1      12.119   6.341  -0.351  0.00  0.00    +0.094 C 
ATOM     13  C   UNL     1      11.674   3.641  -1.451  0.00  0.00    +0.019 C 
ATOM     14  C   UNL     1      12.565   4.729  -2.077  0.00  0.00    +0.085 C 
ENDROOT
BRANCH   9  15
ATOM      5  N   UNL     1       9.699   7.105   1.553  0.00  0.00    -0.271 N 
ATOM      6  N   UNL     1       9.223   7.341   2.787  0.00  0.00    -0.176 NA
ATOM     15  C   UNL     1      10.336   5.905   1.427  0.00  0.00    +0.044 A 
ATOM     17  C   UNL     1      10.272   5.315   2.666  0.00  0.00    +0.048 A 
ATOM     18  C   UNL     1       9.576   6.245   3.462  0.00  0.00    +0.066 A 
ATOM     24  C   UNL     1       9.505   8.097   0.521  0.00  0.00    +0.172 C 
BRANCH  18  19
ATOM     19  C   UNL     1       9.214   6.115   4.931  0.00  0.00    +0.040 C 
ATOM     20  C   UNL     1       9.065   7.489   5.606  0.00  0.00    +0.010 C 
ATOM     21  C   UNL     1      10.219   5.234   5.694  0.00  0.00    +0.010 C 
ATOM     22  C   UNL     1       8.691   7.349   7.082  0.00  0.00    +0.001 C 
ATOM     23  C   UNL     1       9.840   5.102   7.168  0.00  0.00    +0.001 C 
ATOM     25  C   UNL     1       9.683   6.467   7.832  0.00  0.00    +0.000 C 
ENDBRANCH  18  19
ENDBRANCH   9  15
BRANCH  11  16
ATOM     16  C   UNL     1      14.830   5.429   0.859  0.00  0.00    +0.252 C 
BRANCH  16   1
ATOM      1  O   UNL     1      14.328   5.361   2.180  0.00  0.00    -0.449 OA
BRANCH   1  26
ATOM      2  O   UNL     1      15.202   7.390   2.768  0.00  0.00    -0.226 OA
ATOM      7  N   UNL     1      13.265   6.543   3.774  0.00  0.00    -0.251 N 
ATOM     26  C   UNL     1      14.342   6.530   2.908  0.00  0.00    +0.405 C 
ATOM     34  H   UNL     1      12.655   5.731   3.746  0.00  0.00    +0.158 HD
BRANCH   7  27
ATOM     27  C   UNL     1      12.905   7.549   4.700  0.00  0.00    +0.037 A 
ATOM     28  C   UNL     1      13.169   7.374   6.058  0.00  0.00    +0.027 A 
ATOM     29  C   UNL     1      12.285   8.717   4.255  0.00  0.00    +0.027 A 
ATOM     30  C   UNL     1      12.814   8.366   6.971  0.00  0.00    +0.047 A 
ATOM     31  C   UNL     1      11.930   9.709   5.169  0.00  0.00    +0.047 A 
ATOM     32  C   UNL     1      12.195   9.534   6.527  0.00  0.00    +0.120 A 
BRANCH  32   3
ATOM      3  O   UNL     1      11.848  10.502   7.418  0.00  0.00    -0.495 OA
ATOM     33  C   UNL     1      11.042  11.574   6.932  0.00  0.00    +0.277 C 
ENDBRANCH  32   3
ENDBRANCH   7  27
ENDBRANCH   1  26
ENDBRANCH  16   1
ENDBRANCH  11  16
TORSDOF 7
ENDMDL
MODEL 7
REMARK VINA RESULT:      -6.6     26.892     30.834
REMARK  Name = 40780082
REMARK  9 active torsions:
REMARK  status: ('A' for Active; 'I' for Inactive)
REMARK    1  A    between atoms: O_1  and  C_16
REMARK    2  A    between atoms: O_1  and  C_26
REMARK    3  A    between atoms: O_3  and  C_32
REMARK    4  A    between atoms: O_3  and  C_33
REMARK    5  A    between atoms: N_5  and  C_24
REMARK    6  A    between atoms: N_7  and  C_27
REMARK    7  A    between atoms: C_9  and  C_15
REMARK    8  A    between atoms: C_11  and  C_16
REMARK    9  A    between atoms: C_18  and  C_19
REMARK                            x       y       z     vdW  Elec       q    Type
REMARK                         _______ _______ _______ _____ _____    ______ ____
ROOT
ATOM      4  N   UNL     1      -5.936 -10.323  17.712  0.00  0.00    -0.296 NA
ATOM      8  C   UNL     1      -4.698 -12.357  16.658  0.00  0.00    +0.002 C 
ATOM      9  C   UNL     1      -3.943 -11.038  16.340  0.00  0.00    +0.055 C 
ATOM     10  C   UNL     1      -6.150 -12.252  16.147  0.00  0.00    +0.026 C 
ATOM     11  C   UNL     1      -6.896 -11.162  16.947  0.00  0.00    +0.095 C 
ATOM     12  C   UNL     1      -4.842  -9.863  16.822  0.00  0.00    +0.094 C 
ATOM     13  C   UNL     1      -4.765 -12.471  18.196  0.00  0.00    +0.019 C 
ATOM     14  C   UNL     1      -5.342 -11.168  18.777  0.00  0.00    +0.085 C 
ENDROOT
BRANCH   9  15
ATOM      5  N   UNL     1      -2.142 -10.478  14.641  0.00  0.00    -0.271 N 
ATOM      6  N   UNL     1      -1.890 -10.342  13.328  0.00  0.00    -0.176 NA
ATOM     15  C   UNL     1      -3.430 -10.827  14.922  0.00  0.00    +0.044 A 
ATOM     17  C   UNL     1      -4.066 -10.926  13.708  0.00  0.00    +0.048 A 
ATOM     18  C   UNL     1      -3.069 -10.616  12.764  0.00  0.00    +0.066 A 
ATOM     24  C   UNL     1      -1.077 -10.251  15.590  0.00  0.00    +0.172 C 
BRANCH  18  19
ATOM     19  C   UNL     1      -3.210 -10.572  11.252  0.00  0.00    +0.040 C 
ATOM     20  C   UNL     1      -3.905  -9.284  10.781  0.00  0.00    +0.010 C 
ATOM     21  C   UNL     1      -3.930 -11.817  10.707  0.00  0.00    +0.010 C 
ATOM     22  C   UNL     1      -4.034  -9.243   9.259  0.00  0.00    +0.001 C 
ATOM     23  C   UNL     1      -4.057 -11.767   9.186  0.00  0.00    +0.001 C 
ATOM     25  C   UNL     1      -4.739 -10.484   8.720  0.00  0.00    +0.000 C 
ENDBRANCH  18  19
ENDBRANCH   9  15
BRANCH  11  16
ATOM     16  C   UNL     1      -7.815 -10.327  16.053  0.00  0.00    +0.252 C 
BRANCH  16   1
ATOM      1  O   UNL     1      -9.149 -10.744  16.271  0.00  0.00    -0.449 OA
BRANCH   1  26
ATOM      2  O   UNL     1      -9.628  -8.810  17.393  0.00  0.00    -0.226 OA
ATOM      7  N   UNL     1     -10.983 -10.710  17.576  0.00  0.00    -0.251 N 
ATOM     26  C   UNL     1      -9.909  -9.970  17.120  0.00  0.00    +0.405 C 
ATOM     34  H   UNL     1     -11.049 -11.666  17.235  0.00  0.00    +0.158 HD
BRANCH   7  27
ATOM     27  C   UNL     1     -12.006 -10.304  18.463  0.00  0.00    +0.037 A 
ATOM     28  C   UNL     1     -13.275 -10.001  17.972  0.00  0.00    +0.027 A 
ATOM     29  C   UNL     1     -11.746 -10.204  19.830  0.00  0.00    +0.027 A 
ATOM     30  C   UNL     1     -14.284  -9.599  18.846  0.00  0.00    +0.047 A 
ATOM     31  C   UNL     1     -12.755  -9.802  20.704  0.00  0.00    +0.047 A 
ATOM     32  C   UNL     1     -14.025  -9.500  20.212  0.00  0.00    +0.120 A 
BRANCH  32   3
ATOM      3  O   UNL     1     -15.010  -9.108  21.066  0.00  0.00    -0.495 OA
ATOM     33  C   UNL     1     -16.313  -9.645  20.844  0.00  0.00    +0.277 C 
ENDBRANCH  32   3
ENDBRANCH   7  27
ENDBRANCH   1  26
ENDBRANCH  16   1
ENDBRANCH  11  16
TORSDOF 7
ENDMDL
MODEL 8
REMARK VINA RESULT:      -6.5     28.618     32.423
REMARK  Name = 40780082
REMARK  9 active torsions:
REMARK  status: ('A' for Active; 'I' for Inactive)
REMARK    1  A    between atoms: O_1  and  C_16
REMARK    2  A    between atoms: O_1  and  C_26
REMARK    3  A    between atoms: O_3  and  C_32
REMARK    4  A    between atoms: O_3  and  C_33
REMARK    5  A    between atoms: N_5  and  C_24
REMARK    6  A    between atoms: N_7  and  C_27
REMARK    7  A    between atoms: C_9  and  C_15
REMARK    8  A    between atoms: C_11  and  C_16
REMARK    9  A    between atoms: C_18  and  C_19
REMARK                            x       y       z     vdW  Elec       q    Type
REMARK                         _______ _______ _______ _____ _____    ______ ____
ROOT
ATOM      4  N   UNL     1     -10.307  -9.214   4.159  0.00  0.00    -0.296 NA
ATOM      8  C   UNL     1      -7.825  -9.086   3.380  0.00  0.00    +0.002 C 
ATOM      9  C   UNL     1      -8.026 -10.273   4.361  0.00  0.00    +0.055 C 
ATOM     10  C   UNL     1      -8.273  -7.776   4.063  0.00  0.00    +0.026 C 
ATOM     11  C   UNL     1      -9.794  -7.829   4.322  0.00  0.00    +0.095 C 
ATOM     12  C   UNL     1      -9.468 -10.162   4.934  0.00  0.00    +0.094 C 
ATOM     13  C   UNL     1      -8.779  -9.326   2.190  0.00  0.00    +0.019 C 
ATOM     14  C   UNL     1     -10.202  -9.572   2.723  0.00  0.00    +0.085 C 
ENDROOT
BRANCH   9  15
ATOM      5  N   UNL     1      -5.841 -11.201   5.261  0.00  0.00    -0.271 N 
ATOM      6  N   UNL     1      -5.056 -11.271   6.349  0.00  0.00    -0.176 NA
ATOM     15  C   UNL     1      -6.987 -10.487   5.453  0.00  0.00    +0.044 A 
ATOM     17  C   UNL     1      -6.948 -10.059   6.758  0.00  0.00    +0.048 A 
ATOM     18  C   UNL     1      -5.737 -10.572   7.260  0.00  0.00    +0.066 A 
ATOM     24  C   UNL     1      -5.423 -11.860   4.045  0.00  0.00    +0.172 C 
BRANCH  18  19
ATOM     19  C   UNL     1      -5.173 -10.408   8.660  0.00  0.00    +0.040 C 
ATOM     20  C   UNL     1      -4.400  -9.087   8.813  0.00  0.00    +0.010 C 
ATOM     21  C   UNL     1      -4.301 -11.607   9.072  0.00  0.00    +0.010 C 
ATOM     22  C   UNL     1      -3.845  -8.926  10.228  0.00  0.00    +0.001 C 
ATOM     23  C   UNL     1      -3.748 -11.436  10.485  0.00  0.00    +0.001 C 
ATOM     25  C   UNL     1      -2.989 -10.120  10.636  0.00  0.00    +0.000 C 
ENDBRANCH  18  19
ENDBRANCH   9  15
BRANCH  11  16
ATOM     16  C   UNL     1     -10.163  -7.228   5.680  0.00  0.00    +0.252 C 
BRANCH  16   1
ATOM      1  O   UNL     1      -8.969  -6.997   6.404  0.00  0.00    -0.449 OA
BRANCH   1  26
ATOM      2  O   UNL     1      -8.126  -6.016   8.290  0.00  0.00    -0.226 OA
ATOM      7  N   UNL     1     -10.417  -5.996   7.808  0.00  0.00    -0.251 N 
ATOM     26  C   UNL     1      -9.087  -6.298   7.585  0.00  0.00    +0.405 C 
ATOM     34  H   UNL     1     -11.076  -6.318   7.104  0.00  0.00    +0.158 HD
BRANCH   7  27
ATOM     27  C   UNL     1     -10.978  -5.293   8.899  0.00  0.00    +0.037 A 
ATOM     28  C   UNL     1     -11.602  -5.993   9.932  0.00  0.00    +0.027 A 
ATOM     29  C   UNL     1     -10.911  -3.901   8.941  0.00  0.00    +0.027 A 
ATOM     30  C   UNL     1     -12.156  -5.300  11.008  0.00  0.00    +0.047 A 
ATOM     31  C   UNL     1     -11.465  -3.208  10.017  0.00  0.00    +0.047 A 
ATOM     32  C   UNL     1     -12.088  -3.908  11.050  0.00  0.00    +0.120 A 
BRANCH  32   3
ATOM      3  O   UNL     1     -12.629  -3.232  12.100  0.00  0.00    -0.495 OA
ATOM     33  C   UNL     1     -13.518  -3.955  12.950  0.00  0.00    +0.277 C 
ENDBRANCH  32   3
ENDBRANCH   7  27
ENDBRANCH   1  26
ENDBRANCH  16   1
ENDBRANCH  11  16
TORSDOF 7
ENDMDL
MODEL 9
REMARK VINA RESULT:      -6.5     29.602     32.774
REMARK  Name = 40780082
REMARK  9 active torsions:
REMARK  status: ('A' for Active; 'I' for Inactive)
REMARK    1  A    between atoms: O_1  and  C_16
REMARK    2  A    between atoms: O_1  and  C_26
REMARK    3  A    between atoms: O_3  and  C_32
REMARK    4  A    between atoms: O_3  and  C_33
REMARK    5  A    between atoms: N_5  and  C_24
REMARK    6  A    between atoms: N_7  and  C_27
REMARK    7  A    between atoms: C_9  and  C_15
REMARK    8  A    between atoms: C_11  and  C_16
REMARK    9  A    between atoms: C_18  and  C_19
REMARK                            x       y       z     vdW  Elec       q    Type
REMARK                         _______ _______ _______ _____ _____    ______ ____
ROOT
ATOM      4  N   UNL     1     -17.061   1.175  28.126  0.00  0.00    -0.296 NA
ATOM      8  C   UNL     1     -18.631   2.522  26.543  0.00  0.00    +0.002 C 
ATOM      9  C   UNL     1     -17.438   1.927  25.747  0.00  0.00    +0.055 C 
ATOM     10  C   UNL     1     -18.093   3.402  27.691  0.00  0.00    +0.026 C 
ATOM     11  C   UNL     1     -17.336   2.517  28.704  0.00  0.00    +0.095 C 
ATOM     12  C   UNL     1     -16.449   1.317  26.782  0.00  0.00    +0.094 C 
ATOM     13  C   UNL     1     -19.369   1.332  27.193  0.00  0.00    +0.019 C 
ATOM     14  C   UNL     1     -18.357   0.471  27.971  0.00  0.00    +0.085 C 
ENDROOT
BRANCH   9  15
ATOM      5  N   UNL     1     -16.920   2.705  23.387  0.00  0.00    -0.271 N 
ATOM      6  N   UNL     1     -16.209   3.586  22.664  0.00  0.00    -0.176 NA
ATOM     15  C   UNL     1     -16.734   2.819  24.733  0.00  0.00    +0.044 A 
ATOM     17  C   UNL     1     -15.839   3.847  24.903  0.00  0.00    +0.048 A 
ATOM     18  C   UNL     1     -15.550   4.280  23.595  0.00  0.00    +0.066 A 
ATOM     24  C   UNL     1     -17.774   1.760  22.705  0.00  0.00    +0.172 C 
BRANCH  18  19
ATOM     19  C   UNL     1     -14.614   5.401  23.179  0.00  0.00    +0.040 C 
ATOM     20  C   UNL     1     -15.373   6.714  22.925  0.00  0.00    +0.010 C 
ATOM     21  C   UNL     1     -13.762   5.013  21.958  0.00  0.00    +0.010 C 
ATOM     22  C   UNL     1     -14.422   7.839  22.516  0.00  0.00    +0.001 C 
ATOM     23  C   UNL     1     -12.818   6.143  21.554  0.00  0.00    +0.001 C 
ATOM     25  C   UNL     1     -13.572   7.447  21.312  0.00  0.00    +0.000 C 
ENDBRANCH  18  19
ENDBRANCH   9  15
BRANCH  11  16
ATOM     16  C   UNL     1     -16.070   3.198  29.224  0.00  0.00    +0.252 C 
BRANCH  16   1
ATOM      1  O   UNL     1     -15.987   2.982  30.620  0.00  0.00    -0.449 OA
BRANCH   1  26
ATOM      2  O   UNL     1     -13.782   3.320  31.119  0.00  0.00    -0.226 OA
ATOM      7  N   UNL     1     -15.480   4.580  32.122  0.00  0.00    -0.251 N 
ATOM     26  C   UNL     1     -14.959   3.613  31.285  0.00  0.00    +0.405 C 
ATOM     34  H   UNL     1     -16.493   4.678  32.122  0.00  0.00    +0.158 HD
BRANCH   7  27
ATOM     27  C   UNL     1     -14.779   5.456  32.983  0.00  0.00    +0.037 A 
ATOM     28  C   UNL     1     -14.587   5.112  34.320  0.00  0.00    +0.027 A 
ATOM     29  C   UNL     1     -14.281   6.664  32.495  0.00  0.00    +0.027 A 
ATOM     30  C   UNL     1     -13.896   5.976  35.170  0.00  0.00    +0.047 A 
ATOM     31  C   UNL     1     -13.590   7.527  33.345  0.00  0.00    +0.047 A 
ATOM     32  C   UNL     1     -13.397   7.183  34.682  0.00  0.00    +0.120 A 
BRANCH  32   3
ATOM      3  O   UNL     1     -12.723   8.025  35.511  0.00  0.00    -0.495 OA
ATOM     33  C   UNL     1     -12.065   7.442  36.635  0.00  0.00    +0.277 C 
ENDBRANCH  32   3
ENDBRANCH   7  27
ENDBRANCH   1  26
ENDBRANCH  16   1
ENDBRANCH  11  16
TORSDOF 7
ENDMDL
MODEL 10
REMARK VINA RESULT:      -6.4     16.126     19.661
REMARK  Name = 40780082
REMARK  9 active torsions:
REMARK  status: ('A' for Active; 'I' for Inactive)
REMARK    1  A    between atoms: O_1  and  C_16
REMARK    2  A    between atoms: O_1  and  C_26
REMARK    3  A    between atoms: O_3  and  C_32
REMARK    4  A    between atoms: O_3  and  C_33
REMARK    5  A    between atoms: N_5  and  C_24
REMARK    6  A    between atoms: N_7  and  C_27
REMARK    7  A    between atoms: C_9  and  C_15
REMARK    8  A    between atoms: C_11  and  C_16
REMARK    9  A    between atoms: C_18  and  C_19
REMARK                            x       y       z     vdW  Elec       q    Type
REMARK                         _______ _______ _______ _____ _____    ______ ____
ROOT
ATOM      4  N   UNL     1      13.543   5.917   1.031  0.00  0.00    -0.296 NA
ATOM      8  C   UNL     1      12.296   3.649   0.744  0.00  0.00    +0.002 C 
ATOM      9  C   UNL     1      12.411   4.382  -0.620  0.00  0.00    +0.055 C 
ATOM     10  C   UNL     1      11.579   4.565   1.759  0.00  0.00    +0.026 C 
ATOM     11  C   UNL     1      12.458   5.802   2.042  0.00  0.00    +0.095 C 
ATOM     12  C   UNL     1      12.979   5.802  -0.336  0.00  0.00    +0.094 C 
ATOM     13  C   UNL     1      13.736   3.441   1.260  0.00  0.00    +0.019 C 
ATOM     14  C   UNL     1      14.482   4.788   1.241  0.00  0.00    +0.085 C 
ENDROOT
BRANCH   9  15
ATOM      5  N   UNL     1      10.849   3.403  -2.366  0.00  0.00    -0.271 N 
ATOM      6  N   UNL     1       9.730   3.631  -3.073  0.00  0.00    -0.176 NA
ATOM     15  C   UNL     1      11.185   4.420  -1.521  0.00  0.00    +0.044 A 
ATOM     17  C   UNL     1      10.217   5.381  -1.688  0.00  0.00    +0.048 A 
ATOM     18  C   UNL     1       9.349   4.840  -2.655  0.00  0.00    +0.066 A 
ATOM     24  C   UNL     1      11.564   2.162  -2.556  0.00  0.00    +0.172 C 
BRANCH  18  19
ATOM     19  C   UNL     1       8.093   5.474  -3.227  0.00  0.00    +0.040 C 
ATOM     20  C   UNL     1       8.073   5.414  -4.764  0.00  0.00    +0.010 C 
ATOM     21  C   UNL     1       7.902   6.918  -2.731  0.00  0.00    +0.010 C 
ATOM     22  C   UNL     1       6.801   6.046  -5.331  0.00  0.00    +0.001 C 
ATOM     23  C   UNL     1       6.632   7.542  -3.304  0.00  0.00    +0.001 C 
ATOM     25  C   UNL     1       6.609   7.473  -4.828  0.00  0.00    +0.000 C 
ENDBRANCH  18  19
ENDBRANCH   9  15
BRANCH  11  16
ATOM     16  C   UNL     1      11.626   7.081   2.150  0.00  0.00    +0.252 C 
BRANCH  16   1
ATOM      1  O   UNL     1      12.126   7.848   3.229  0.00  0.00    -0.449 OA
BRANCH   1  26
ATOM      2  O   UNL     1      13.179   7.187   5.148  0.00  0.00    -0.226 OA
ATOM      7  N   UNL     1      10.921   6.709   4.752  0.00  0.00    -0.251 N 
ATOM     26  C   UNL     1      12.166   7.233   4.461  0.00  0.00    +0.405 C 
ATOM     34  H   UNL     1      10.199   6.849   4.051  0.00  0.00    +0.158 HD
BRANCH   7  27
ATOM     27  C   UNL     1      10.525   5.999   5.909  0.00  0.00    +0.037 A 
ATOM     28  C   UNL     1      10.054   4.691   5.796  0.00  0.00    +0.027 A 
ATOM     29  C   UNL     1      10.604   6.606   7.162  0.00  0.00    +0.027 A 
ATOM     30  C   UNL     1       9.662   3.990   6.937  0.00  0.00    +0.047 A 
ATOM     31  C   UNL     1      10.213   5.905   8.302  0.00  0.00    +0.047 A 
ATOM     32  C   UNL     1       9.742   4.597   8.190  0.00  0.00    +0.120 A 
BRANCH  32   3
ATOM      3  O   UNL     1       9.360   3.913   9.303  0.00  0.00    -0.495 OA
ATOM     33  C   UNL     1       8.831   4.678  10.385  0.00  0.00    +0.277 C 
ENDBRANCH  32   3
ENDBRANCH   7  27
ENDBRANCH   1  26
ENDBRANCH  16   1
ENDBRANCH  11  16
TORSDOF 7
ENDMDL
