MODEL 1
REMARK VINA RESULT:      -6.8      0.000      0.000
REMARK  Name = 38028119
REMARK  9 active torsions:
REMARK  status: ('A' for Active; 'I' for Inactive)
REMARK    1  A    between atoms: N_4  and  C_14
REMARK    2  A    between atoms: N_6  and  C_25
REMARK    3  A    between atoms: C_7  and  C_11
REMARK    4  A    between atoms: C_8  and  C_14
REMARK    5  A    between atoms: C_10  and  C_15
REMARK    6  A    between atoms: C_11  and  C_16
REMARK    7  A    between atoms: C_11  and  C_17
REMARK    8  A    between atoms: C_12  and  C_18
REMARK    9  A    between atoms: C_15  and  C_19
REMARK                            x       y       z     vdW  Elec       q    Type
REMARK                         _______ _______ _______ _____ _____    ______ ____
ROOT
ATOM      7  C   UNL     1     -12.278   8.858  19.900  0.00  0.00    +0.000 C 
ATOM      8  C   UNL     1     -11.516  10.125  20.368  0.00  0.00    +0.032 C 
ATOM      9  C   UNL     1     -11.463   8.103  18.840  0.00  0.00    +0.012 C 
ATOM     10  C   UNL     1     -11.163   8.976  17.606  0.00  0.00    +0.023 C 
ATOM     12  C   UNL     1     -10.656  10.349  17.996  0.00  0.00    -0.073 C 
ATOM     13  C   UNL     1     -10.811  10.839  19.239  0.00  0.00    -0.022 C 
ATOM     18  C   UNL     1      -9.925  11.127  16.939  0.00  0.00    +0.039 C 
ENDROOT
BRANCH   7  11
ATOM     11  C   UNL     1     -12.598   7.924  21.071  0.00  0.00    -0.013 C 
ATOM     16  C   UNL     1     -14.105   7.713  21.185  0.00  0.00    +0.007 C 
ATOM     17  C   UNL     1     -11.877   6.591  20.901  0.00  0.00    +0.007 C 
ENDBRANCH   7  11
BRANCH   8  14
ATOM     14  C   UNL     1     -12.454  11.102  21.085  0.00  0.00    +0.113 C 
BRANCH  14   4
ATOM      3  O   UNL     1     -13.307  10.119  23.637  0.00  0.00    -0.253 OA
ATOM      4  N   UNL     1     -11.880  11.444  22.395  0.00  0.00    -0.299 N 
ATOM      6  N   UNL     1     -11.632  11.413  24.652  0.00  0.00    -0.269 N 
ATOM     22  C   UNL     1     -12.368  10.911  23.576  0.00  0.00    +0.304 C 
ATOM     31  H   UNL     1     -11.054  12.033  22.425  0.00  0.00    +0.150 HD
ATOM     32  H   UNL     1     -10.884  12.066  24.430  0.00  0.00    +0.156 HD
BRANCH   6  25
ATOM     25  C   UNL     1     -11.799  11.129  26.027  0.00  0.00    +0.035 A 
ATOM     26  C   UNL     1     -10.955  10.214  26.657  0.00  0.00    +0.023 A 
ATOM     27  C   UNL     1     -12.807  11.763  26.753  0.00  0.00    +0.023 A 
ATOM     28  C   UNL     1     -11.120   9.933  28.014  0.00  0.00    +0.002 A 
ATOM     29  C   UNL     1     -12.972  11.482  28.110  0.00  0.00    +0.002 A 
ATOM     30  C   UNL     1     -12.128  10.567  28.740  0.00  0.00    +0.000 A 
ENDBRANCH   6  25
ENDBRANCH  14   4
ENDBRANCH   8  14
BRANCH  10  15
ATOM     15  C   UNL     1     -12.389   9.082  16.693  0.00  0.00    +0.103 C 
BRANCH  15  19
ATOM      1  O   UNL     1     -10.909   8.247  15.040  0.00  0.00    -0.276 OA
ATOM      2  O   UNL     1     -15.295   6.970  13.145  0.00  0.00    -0.377 OA
ATOM      5  N   UNL     1     -13.172   8.209  14.522  0.00  0.00    -0.297 N 
ATOM     19  C   UNL     1     -12.081   8.477  15.347  0.00  0.00    +0.216 C 
ATOM     20  C   UNL     1     -14.562   8.586  14.800  0.00  0.00    +0.136 C 
ATOM     21  C   UNL     1     -12.963   7.618  13.200  0.00  0.00    +0.136 C 
ATOM     23  C   UNL     1     -15.496   7.424  14.486  0.00  0.00    +0.179 C 
ATOM     24  C   UNL     1     -13.960   6.495  12.958  0.00  0.00    +0.179 C 
ENDBRANCH  15  19
ENDBRANCH  10  15
TORSDOF 6
ENDMDL
MODEL 2
REMARK VINA RESULT:      -6.8     19.208     22.002
REMARK  Name = 38028119
REMARK  9 active torsions:
REMARK  status: ('A' for Active; 'I' for Inactive)
REMARK    1  A    between atoms: N_4  and  C_14
REMARK    2  A    between atoms: N_6  and  C_25
REMARK    3  A    between atoms: C_7  and  C_11
REMARK    4  A    between atoms: C_8  and  C_14
REMARK    5  A    between atoms: C_10  and  C_15
REMARK    6  A    between atoms: C_11  and  C_16
REMARK    7  A    between atoms: C_11  and  C_17
REMARK    8  A    between atoms: C_12  and  C_18
REMARK    9  A    between atoms: C_15  and  C_19
REMARK                            x       y       z     vdW  Elec       q    Type
REMARK                         _______ _______ _______ _____ _____    ______ ____
ROOT
ATOM      7  C   UNL     1      -4.920 -12.353  16.013  0.00  0.00    +0.000 C 
ATOM      8  C   UNL     1      -4.097 -11.774  17.193  0.00  0.00    +0.032 C 
ATOM      9  C   UNL     1      -3.993 -12.744  14.853  0.00  0.00    +0.012 C 
ATOM     10  C   UNL     1      -3.172 -11.548  14.335  0.00  0.00    +0.023 C 
ATOM     12  C   UNL     1      -2.544 -10.762  15.468  0.00  0.00    -0.073 C 
ATOM     13  C   UNL     1      -2.962 -10.887  16.740  0.00  0.00    -0.022 C 
ATOM     18  C   UNL     1      -1.392  -9.865  15.112  0.00  0.00    +0.039 C 
ENDROOT
BRANCH   7  11
ATOM     11  C   UNL     1      -5.753 -13.565  16.443  0.00  0.00    -0.013 C 
ATOM     16  C   UNL     1      -7.106 -13.556  15.739  0.00  0.00    +0.007 C 
ATOM     17  C   UNL     1      -5.000 -14.859  16.151  0.00  0.00    +0.007 C 
ENDBRANCH   7  11
BRANCH   8  14
ATOM     14  C   UNL     1      -4.994 -11.001  18.166  0.00  0.00    +0.113 C 
BRANCH  14   4
ATOM      3  O   UNL     1      -7.853 -10.880  18.029  0.00  0.00    -0.253 OA
ATOM      4  N   UNL     1      -5.797 -10.028  17.409  0.00  0.00    -0.299 N 
ATOM      6  N   UNL     1      -7.668  -9.020  16.609  0.00  0.00    -0.269 N 
ATOM     22  C   UNL     1      -7.182 -10.057  17.409  0.00  0.00    +0.304 C 
ATOM     31  H   UNL     1      -5.320  -9.271  16.932  0.00  0.00    +0.150 HD
ATOM     32  H   UNL     1      -6.975  -8.425  16.161  0.00  0.00    +0.156 HD
BRANCH   6  25
ATOM     25  C   UNL     1      -9.016  -8.691  16.336  0.00  0.00    +0.035 A 
ATOM     26  C   UNL     1      -9.605  -9.098  15.139  0.00  0.00    +0.023 A 
ATOM     27  C   UNL     1      -9.757  -7.960  17.265  0.00  0.00    +0.023 A 
ATOM     28  C   UNL     1     -10.935  -8.774  14.871  0.00  0.00    +0.002 A 
ATOM     29  C   UNL     1     -11.087  -7.636  16.996  0.00  0.00    +0.002 A 
ATOM     30  C   UNL     1     -11.676  -8.043  15.799  0.00  0.00    +0.000 A 
ENDBRANCH   6  25
ENDBRANCH  14   4
ENDBRANCH   8  14
BRANCH  10  15
ATOM     15  C   UNL     1      -4.024 -10.638  13.443  0.00  0.00    +0.103 C 
BRANCH  15  19
ATOM      1  O   UNL     1      -2.293 -11.045  11.875  0.00  0.00    -0.276 OA
ATOM      2  O   UNL     1      -5.681  -8.837   9.027  0.00  0.00    -0.377 OA
ATOM      5  N   UNL     1      -4.057  -9.717  11.155  0.00  0.00    -0.297 N 
ATOM     19  C   UNL     1      -3.373 -10.490  12.091  0.00  0.00    +0.216 C 
ATOM     20  C   UNL     1      -5.273  -8.940  11.416  0.00  0.00    +0.136 C 
ATOM     21  C   UNL     1      -3.498  -9.524   9.817  0.00  0.00    +0.136 C 
ATOM     23  C   UNL     1      -6.279  -9.140  10.290  0.00  0.00    +0.179 C 
ATOM     24  C   UNL     1      -4.577  -9.705   8.760  0.00  0.00    +0.179 C 
ENDBRANCH  15  19
ENDBRANCH  10  15
TORSDOF 6
ENDMDL
MODEL 3
REMARK VINA RESULT:      -6.7     25.220     27.609
REMARK  Name = 38028119
REMARK  9 active torsions:
REMARK  status: ('A' for Active; 'I' for Inactive)
REMARK    1  A    between atoms: N_4  and  C_14
REMARK    2  A    between atoms: N_6  and  C_25
REMARK    3  A    between atoms: C_7  and  C_11
REMARK    4  A    between atoms: C_8  and  C_14
REMARK    5  A    between atoms: C_10  and  C_15
REMARK    6  A    between atoms: C_11  and  C_16
REMARK    7  A    between atoms: C_11  and  C_17
REMARK    8  A    between atoms: C_12  and  C_18
REMARK    9  A    between atoms: C_15  and  C_19
REMARK                            x       y       z     vdW  Elec       q    Type
REMARK                         _______ _______ _______ _____ _____    ______ ____
ROOT
ATOM      7  C   UNL     1      12.088   8.875  20.644  0.00  0.00    +0.000 C 
ATOM      8  C   UNL     1      12.345   8.727  19.123  0.00  0.00    +0.032 C 
ATOM      9  C   UNL     1      11.620  10.301  20.972  0.00  0.00    +0.012 C 
ATOM     10  C   UNL     1      12.649  11.365  20.545  0.00  0.00    +0.023 C 
ATOM     12  C   UNL     1      13.155  11.126  19.136  0.00  0.00    -0.073 C 
ATOM     13  C   UNL     1      12.997   9.945  18.513  0.00  0.00    -0.022 C 
ATOM     18  C   UNL     1      13.803  12.291  18.444  0.00  0.00    +0.039 C 
ENDROOT
BRANCH   7  11
ATOM     11  C   UNL     1      11.056   7.861  21.147  0.00  0.00    -0.013 C 
ATOM     16  C   UNL     1      11.705   6.494  21.341  0.00  0.00    +0.007 C 
ATOM     17  C   UNL     1      10.422   8.348  22.447  0.00  0.00    +0.007 C 
ENDBRANCH   7  11
BRANCH   8  14
ATOM     14  C   UNL     1      13.196   7.488  18.824  0.00  0.00    +0.113 C 
BRANCH  14   4
ATOM      3  O   UNL     1      15.074   6.252  20.598  0.00  0.00    -0.253 OA
ATOM      4  N   UNL     1      14.617   7.832  18.978  0.00  0.00    -0.299 N 
ATOM      6  N   UNL     1      16.732   7.709  19.798  0.00  0.00    -0.269 N 
ATOM     22  C   UNL     1      15.444   7.170  19.869  0.00  0.00    +0.304 C 
ATOM     31  H   UNL     1      15.018   8.529  18.358  0.00  0.00    +0.150 HD
ATOM     32  H   UNL     1      16.872   8.471  19.139  0.00  0.00    +0.156 HD
BRANCH   6  25
ATOM     25  C   UNL     1      17.876   7.326  20.535  0.00  0.00    +0.035 A 
ATOM     26  C   UNL     1      18.272   8.071  21.645  0.00  0.00    +0.023 A 
ATOM     27  C   UNL     1      18.609   6.203  20.150  0.00  0.00    +0.023 A 
ATOM     28  C   UNL     1      19.401   7.694  22.372  0.00  0.00    +0.002 A 
ATOM     29  C   UNL     1      19.738   5.826  20.877  0.00  0.00    +0.002 A 
ATOM     30  C   UNL     1      20.134   6.571  21.989  0.00  0.00    +0.000 A 
ENDBRANCH   6  25
ENDBRANCH  14   4
ENDBRANCH   8  14
BRANCH  10  15
ATOM     15  C   UNL     1      13.812  11.440  21.540  0.00  0.00    +0.103 C 
BRANCH  15  19
ATOM      1  O   UNL     1      14.225  13.746  21.900  0.00  0.00    -0.276 OA
ATOM      2  O   UNL     1      11.109  12.730  25.605  0.00  0.00    -0.377 OA
ATOM      5  N   UNL     1      13.047  12.630  23.561  0.00  0.00    -0.297 N 
ATOM     19  C   UNL     1      13.719  12.712  22.343  0.00  0.00    +0.216 C 
ATOM     20  C   UNL     1      12.546  11.396  24.175  0.00  0.00    +0.136 C 
ATOM     21  C   UNL     1      12.907  13.819  24.402  0.00  0.00    +0.136 C 
ATOM     23  C   UNL     1      11.138  11.609  24.716  0.00  0.00    +0.179 C 
ATOM     24  C   UNL     1      11.483  13.932  24.927  0.00  0.00    +0.179 C 
ENDBRANCH  15  19
ENDBRANCH  10  15
TORSDOF 6
ENDMDL
MODEL 4
REMARK VINA RESULT:      -6.7     12.223     14.106
REMARK  Name = 38028119
REMARK  9 active torsions:
REMARK  status: ('A' for Active; 'I' for Inactive)
REMARK    1  A    between atoms: N_4  and  C_14
REMARK    2  A    between atoms: N_6  and  C_25
REMARK    3  A    between atoms: C_7  and  C_11
REMARK    4  A    between atoms: C_8  and  C_14
REMARK    5  A    between atoms: C_10  and  C_15
REMARK    6  A    between atoms: C_11  and  C_16
REMARK    7  A    between atoms: C_11  and  C_17
REMARK    8  A    between atoms: C_12  and  C_18
REMARK    9  A    between atoms: C_15  and  C_19
REMARK                            x       y       z     vdW  Elec       q    Type
REMARK                         _______ _______ _______ _____ _____    ______ ____
ROOT
ATOM      7  C   UNL     1     -15.529   5.913  31.440  0.00  0.00    +0.000 C 
ATOM      8  C   UNL     1     -15.311   7.090  32.424  0.00  0.00    +0.032 C 
ATOM      9  C   UNL     1     -16.085   4.689  32.183  0.00  0.00    +0.012 C 
ATOM     10  C   UNL     1     -15.147   4.216  33.309  0.00  0.00    +0.023 C 
ATOM     12  C   UNL     1     -14.671   5.370  34.169  0.00  0.00    -0.073 C 
ATOM     13  C   UNL     1     -14.766   6.648  33.761  0.00  0.00    -0.022 C 
ATOM     18  C   UNL     1     -14.128   5.023  35.526  0.00  0.00    +0.039 C 
ENDROOT
BRANCH   7  11
ATOM     11  C   UNL     1     -16.471   6.298  30.295  0.00  0.00    -0.013 C 
ATOM     16  C   UNL     1     -16.645   5.125  29.334  0.00  0.00    +0.007 C 
ATOM     17  C   UNL     1     -17.820   6.751  30.845  0.00  0.00    +0.007 C 
ENDBRANCH   7  11
BRANCH   8  14
ATOM     14  C   UNL     1     -14.385   8.152  31.820  0.00  0.00    +0.113 C 
BRANCH  14   4
ATOM      3  O   UNL     1     -11.536   8.379  32.010  0.00  0.00    -0.253 OA
ATOM      4  N   UNL     1     -13.625   8.798  32.901  0.00  0.00    -0.299 N 
ATOM      6  N   UNL     1     -11.801   9.523  34.043  0.00  0.00    -0.269 N 
ATOM     22  C   UNL     1     -12.242   8.854  32.898  0.00  0.00    +0.304 C 
ATOM     31  H   UNL     1     -14.136   9.280  33.633  0.00  0.00    +0.150 HD
ATOM     32  H   UNL     1     -12.519   9.854  34.683  0.00  0.00    +0.156 HD
BRANCH   6  25
ATOM     25  C   UNL     1     -10.469   9.799  34.430  0.00  0.00    +0.035 A 
ATOM     26  C   UNL     1      -9.663  10.607  33.629  0.00  0.00    +0.023 A 
ATOM     27  C   UNL     1      -9.962   9.262  35.613  0.00  0.00    +0.023 A 
ATOM     28  C   UNL     1      -8.350  10.879  34.011  0.00  0.00    +0.002 A 
ATOM     29  C   UNL     1      -8.648   9.534  35.995  0.00  0.00    +0.002 A 
ATOM     30  C   UNL     1      -7.842  10.343  35.194  0.00  0.00    +0.000 A 
ENDBRANCH   6  25
ENDBRANCH  14   4
ENDBRANCH   8  14
BRANCH  10  15
ATOM     15  C   UNL     1     -13.961   3.426  32.746  0.00  0.00    +0.103 C 
BRANCH  15  19
ATOM      1  O   UNL     1     -14.408   1.366  33.831  0.00  0.00    -0.276 OA
ATOM      2  O   UNL     1     -15.405   0.217  29.124  0.00  0.00    -0.377 OA
ATOM      5  N   UNL     1     -14.406   1.337  31.509  0.00  0.00    -0.297 N 
ATOM     19  C   UNL     1     -14.277   1.951  32.754  0.00  0.00    +0.216 C 
ATOM     20  C   UNL     1     -14.132   1.971  30.214  0.00  0.00    +0.136 C 
ATOM     21  C   UNL     1     -14.715  -0.090  31.425  0.00  0.00    +0.136 C 
ATOM     23  C   UNL     1     -15.234   1.634  29.218  0.00  0.00    +0.179 C 
ATOM     24  C   UNL     1     -15.796  -0.338  30.383  0.00  0.00    +0.179 C 
ENDBRANCH  15  19
ENDBRANCH  10  15
TORSDOF 6
ENDMDL
MODEL 5
REMARK VINA RESULT:      -6.5     24.465     27.556
REMARK  Name = 38028119
REMARK  9 active torsions:
REMARK  status: ('A' for Active; 'I' for Inactive)
REMARK    1  A    between atoms: N_4  and  C_14
REMARK    2  A    between atoms: N_6  and  C_25
REMARK    3  A    between atoms: C_7  and  C_11
REMARK    4  A    between atoms: C_8  and  C_14
REMARK    5  A    between atoms: C_10  and  C_15
REMARK    6  A    between atoms: C_11  and  C_16
REMARK    7  A    between atoms: C_11  and  C_17
REMARK    8  A    between atoms: C_12  and  C_18
REMARK    9  A    between atoms: C_15  and  C_19
REMARK                            x       y       z     vdW  Elec       q    Type
REMARK                         _______ _______ _______ _____ _____    ______ ____
ROOT
ATOM      7  C   UNL     1      14.361   8.230  20.142  0.00  0.00    +0.000 C 
ATOM      8  C   UNL     1      13.250   7.259  19.666  0.00  0.00    +0.032 C 
ATOM      9  C   UNL     1      14.358   8.338  21.674  0.00  0.00    +0.012 C 
ATOM     10  C   UNL     1      13.006   8.836  22.220  0.00  0.00    +0.023 C 
ATOM     12  C   UNL     1      11.839   8.101  21.592  0.00  0.00    -0.073 C 
ATOM     13  C   UNL     1      11.971   7.390  20.458  0.00  0.00    -0.022 C 
ATOM     18  C   UNL     1      10.527   8.164  22.322  0.00  0.00    +0.039 C 
ENDROOT
BRANCH   7  11
ATOM     11  C   UNL     1      15.745   7.792  19.655  0.00  0.00    -0.013 C 
ATOM     16  C   UNL     1      16.836   8.544  20.411  0.00  0.00    +0.007 C 
ATOM     17  C   UNL     1      15.915   6.285  19.819  0.00  0.00    +0.007 C 
ENDBRANCH   7  11
BRANCH   8  14
ATOM     14  C   UNL     1      12.951   7.449  18.175  0.00  0.00    +0.113 C 
BRANCH  14   4
ATOM      3  O   UNL     1      13.991   8.289  15.642  0.00  0.00    -0.253 OA
ATOM      4  N   UNL     1      13.311   8.820  17.784  0.00  0.00    -0.299 N 
ATOM      6  N   UNL     1      14.058  10.494  16.444  0.00  0.00    -0.269 N 
ATOM     22  C   UNL     1      13.808   9.122  16.527  0.00  0.00    +0.304 C 
ATOM     31  H   UNL     1      13.119   9.576  18.432  0.00  0.00    +0.150 HD
ATOM     32  H   UNL     1      13.854  11.047  17.272  0.00  0.00    +0.156 HD
BRANCH   6  25
ATOM     25  C   UNL     1      14.568  11.219  15.342  0.00  0.00    +0.035 A 
ATOM     26  C   UNL     1      13.694  11.867  14.469  0.00  0.00    +0.023 A 
ATOM     27  C   UNL     1      15.945  11.286  15.128  0.00  0.00    +0.023 A 
ATOM     28  C   UNL     1      14.197  12.582  13.382  0.00  0.00    +0.002 A 
ATOM     29  C   UNL     1      16.448  12.001  14.041  0.00  0.00    +0.002 A 
ATOM     30  C   UNL     1      15.574  12.649  13.168  0.00  0.00    +0.000 A 
ENDBRANCH   6  25
ENDBRANCH  14   4
ENDBRANCH   8  14
BRANCH  10  15
ATOM     15  C   UNL     1      12.861  10.351  22.040  0.00  0.00    +0.103 C 
BRANCH  15  19
ATOM      1  O   UNL     1      14.660  11.167  23.352  0.00  0.00    -0.276 OA
ATOM      2  O   UNL     1      10.788  13.261  25.608  0.00  0.00    -0.377 OA
ATOM      5  N   UNL     1      12.520  11.581  24.152  0.00  0.00    -0.297 N 
ATOM     19  C   UNL     1      13.436  11.066  23.237  0.00  0.00    +0.216 C 
ATOM     20  C   UNL     1      11.068  11.371  24.114  0.00  0.00    +0.136 C 
ATOM     21  C   UNL     1      12.992  12.293  25.339  0.00  0.00    +0.136 C 
ATOM     23  C   UNL     1      10.338  12.680  24.381  0.00  0.00    +0.179 C 
ATOM     24  C   UNL     1      12.184  13.565  25.550  0.00  0.00    +0.179 C 
ENDBRANCH  15  19
ENDBRANCH  10  15
TORSDOF 6
ENDMDL
MODEL 6
REMARK VINA RESULT:      -6.4     21.179     23.463
REMARK  Name = 38028119
REMARK  9 active torsions:
REMARK  status: ('A' for Active; 'I' for Inactive)
REMARK    1  A    between atoms: N_4  and  C_14
REMARK    2  A    between atoms: N_6  and  C_25
REMARK    3  A    between atoms: C_7  and  C_11
REMARK    4  A    between atoms: C_8  and  C_14
REMARK    5  A    between atoms: C_10  and  C_15
REMARK    6  A    between atoms: C_11  and  C_16
REMARK    7  A    between atoms: C_11  and  C_17
REMARK    8  A    between atoms: C_12  and  C_18
REMARK    9  A    between atoms: C_15  and  C_19
REMARK                            x       y       z     vdW  Elec       q    Type
REMARK                         _______ _______ _______ _____ _____    ______ ____
ROOT
ATOM      7  C   UNL     1      -4.679 -10.141  10.521  0.00  0.00    +0.000 C 
ATOM      8  C   UNL     1      -5.747  -9.175  11.094  0.00  0.00    +0.032 C 
ATOM      9  C   UNL     1      -4.190  -9.648   9.151  0.00  0.00    +0.012 C 
ATOM     10  C   UNL     1      -5.338  -9.529   8.131  0.00  0.00    +0.023 C 
ATOM     12  C   UNL     1      -6.541  -8.816   8.717  0.00  0.00    -0.073 C 
ATOM     13  C   UNL     1      -6.698  -8.655  10.043  0.00  0.00    -0.022 C 
ATOM     18  C   UNL     1      -7.533  -8.251   7.741  0.00  0.00    +0.039 C 
ENDROOT
BRANCH   7  11
ATOM     11  C   UNL     1      -3.488 -10.300  11.472  0.00  0.00    -0.013 C 
ATOM     16  C   UNL     1      -3.187 -11.777  11.705  0.00  0.00    +0.007 C 
ATOM     17  C   UNL     1      -2.263  -9.580  10.915  0.00  0.00    +0.007 C 
ENDBRANCH   7  11
BRANCH   8  14
ATOM     14  C   UNL     1      -6.544  -9.838  12.223  0.00  0.00    +0.113 C 
BRANCH  14   4
ATOM      3  O   UNL     1      -6.751 -11.395  14.618  0.00  0.00    -0.253 OA
ATOM      4  N   UNL     1      -5.874  -9.572  13.505  0.00  0.00    -0.299 N 
ATOM      6  N   UNL     1      -5.288  -9.894  15.675  0.00  0.00    -0.269 N 
ATOM     22  C   UNL     1      -6.041 -10.391  14.608  0.00  0.00    +0.304 C 
ATOM     31  H   UNL     1      -5.212  -8.804  13.557  0.00  0.00    +0.150 HD
ATOM     32  H   UNL     1      -4.754  -9.046  15.501  0.00  0.00    +0.156 HD
BRANCH   6  25
ATOM     25  C   UNL     1      -5.174 -10.425  16.981  0.00  0.00    +0.035 A 
ATOM     26  C   UNL     1      -6.195 -10.219  17.908  0.00  0.00    +0.023 A 
ATOM     27  C   UNL     1      -4.041 -11.154  17.341  0.00  0.00    +0.023 A 
ATOM     28  C   UNL     1      -6.083 -10.743  19.196  0.00  0.00    +0.002 A 
ATOM     29  C   UNL     1      -3.929 -11.678  18.628  0.00  0.00    +0.002 A 
ATOM     30  C   UNL     1      -4.950 -11.473  19.557  0.00  0.00    +0.000 A 
ENDBRANCH   6  25
ENDBRANCH  14   4
ENDBRANCH   8  14
BRANCH  10  15
ATOM     15  C   UNL     1      -5.731 -10.903   7.578  0.00  0.00    +0.103 C 
BRANCH  15  19
ATOM      1  O   UNL     1      -5.998 -10.015   5.396  0.00  0.00    -0.276 OA
ATOM      2  O   UNL     1      -2.811 -13.703   4.557  0.00  0.00    -0.377 OA
ATOM      5  N   UNL     1      -4.825 -12.012   5.569  0.00  0.00    -0.297 N 
ATOM     19  C   UNL     1      -5.536 -10.929   6.083  0.00  0.00    +0.216 C 
ATOM     20  C   UNL     1      -4.373 -13.177   6.337  0.00  0.00    +0.136 C 
ATOM     21  C   UNL     1      -4.586 -12.113   4.129  0.00  0.00    +0.136 C 
ATOM     23  C   UNL     1      -2.936 -13.525   5.970  0.00  0.00    +0.179 C 
ATOM     24  C   UNL     1      -3.140 -12.501   3.857  0.00  0.00    +0.179 C 
ENDBRANCH  15  19
ENDBRANCH  10  15
TORSDOF 6
ENDMDL
MODEL 7
REMARK VINA RESULT:      -6.4     25.493     28.439
REMARK  Name = 38028119
REMARK  9 active torsions:
REMARK  status: ('A' for Active; 'I' for Inactive)
REMARK    1  A    between atoms: N_4  and  C_14
REMARK    2  A    between atoms: N_6  and  C_25
REMARK    3  A    between atoms: C_7  and  C_11
REMARK    4  A    between atoms: C_8  and  C_14
REMARK    5  A    between atoms: C_10  and  C_15
REMARK    6  A    between atoms: C_11  and  C_16
REMARK    7  A    between atoms: C_11  and  C_17
REMARK    8  A    between atoms: C_12  and  C_18
REMARK    9  A    between atoms: C_15  and  C_19
REMARK                            x       y       z     vdW  Elec       q    Type
REMARK                         _______ _______ _______ _____ _____    ______ ____
ROOT
ATOM      7  C   UNL     1       8.985   8.536   5.260  0.00  0.00    +0.000 C 
ATOM      8  C   UNL     1       8.709   9.114   6.672  0.00  0.00    +0.032 C 
ATOM      9  C   UNL     1       8.469   7.093   5.161  0.00  0.00    +0.012 C 
ATOM     10  C   UNL     1       9.125   6.167   6.204  0.00  0.00    +0.023 C 
ATOM     12  C   UNL     1       9.130   6.790   7.585  0.00  0.00    -0.073 C 
ATOM     13  C   UNL     1       8.929   8.106   7.775  0.00  0.00    -0.022 C 
ATOM     18  C   UNL     1       9.326   5.857   8.747  0.00  0.00    +0.039 C 
ENDROOT
BRANCH   7  11
ATOM     11  C   UNL     1       8.347   9.392   4.162  0.00  0.00    -0.013 C 
ATOM     16  C   UNL     1       8.261   8.605   2.857  0.00  0.00    +0.007 C 
ATOM     17  C   UNL     1       6.965   9.871   4.595  0.00  0.00    +0.007 C 
ENDBRANCH   7  11
BRANCH   8  14
ATOM     14  C   UNL     1       9.563  10.358   6.937  0.00  0.00    +0.113 C 
BRANCH  14   4
ATOM      3  O   UNL     1      11.958  10.592   5.384  0.00  0.00    -0.253 OA
ATOM      4  N   UNL     1      10.914   9.937   7.337  0.00  0.00    -0.299 N 
ATOM      6  N   UNL     1      13.153   9.607   7.148  0.00  0.00    -0.269 N 
ATOM     22  C   UNL     1      12.011  10.095   6.507  0.00  0.00    +0.304 C 
ATOM     31  H   UNL     1      11.055   9.586   8.278  0.00  0.00    +0.150 HD
ATOM     32  H   UNL     1      13.025   9.223   8.081  0.00  0.00    +0.156 HD
BRANCH   6  25
ATOM     25  C   UNL     1      14.479   9.577   6.658  0.00  0.00    +0.035 A 
ATOM     26  C   UNL     1      15.263  10.729   6.695  0.00  0.00    +0.023 A 
ATOM     27  C   UNL     1      15.002   8.393   6.136  0.00  0.00    +0.023 A 
ATOM     28  C   UNL     1      16.571  10.699   6.211  0.00  0.00    +0.002 A 
ATOM     29  C   UNL     1      16.310   8.363   5.652  0.00  0.00    +0.002 A 
ATOM     30  C   UNL     1      17.095   9.516   5.690  0.00  0.00    +0.000 A 
ENDBRANCH   6  25
ENDBRANCH  14   4
ENDBRANCH   8  14
BRANCH  10  15
ATOM     15  C   UNL     1      10.541   5.768   5.776  0.00  0.00    +0.103 C 
BRANCH  15  19
ATOM      1  O   UNL     1       9.974   3.562   5.117  0.00  0.00    -0.276 OA
ATOM      2  O   UNL     1      11.324   5.548   0.792  0.00  0.00    -0.377 OA
ATOM      5  N   UNL     1      10.999   4.894   3.514  0.00  0.00    -0.297 N 
ATOM     19  C   UNL     1      10.476   4.637   4.780  0.00  0.00    +0.216 C 
ATOM     20  C   UNL     1      11.715   6.112   3.119  0.00  0.00    +0.136 C 
ATOM     21  C   UNL     1      10.973   3.853   2.486  0.00  0.00    +0.136 C 
ATOM     23  C   UNL     1      11.224   6.595   1.760  0.00  0.00    +0.179 C 
ATOM     24  C   UNL     1      10.508   4.432   1.158  0.00  0.00    +0.179 C 
ENDBRANCH  15  19
ENDBRANCH  10  15
TORSDOF 6
ENDMDL
MODEL 8
REMARK VINA RESULT:      -6.3     19.885     22.746
REMARK  Name = 38028119
REMARK  9 active torsions:
REMARK  status: ('A' for Active; 'I' for Inactive)
REMARK    1  A    between atoms: N_4  and  C_14
REMARK    2  A    between atoms: N_6  and  C_25
REMARK    3  A    between atoms: C_7  and  C_11
REMARK    4  A    between atoms: C_8  and  C_14
REMARK    5  A    between atoms: C_10  and  C_15
REMARK    6  A    between atoms: C_11  and  C_16
REMARK    7  A    between atoms: C_11  and  C_17
REMARK    8  A    between atoms: C_12  and  C_18
REMARK    9  A    between atoms: C_15  and  C_19
REMARK                            x       y       z     vdW  Elec       q    Type
REMARK                         _______ _______ _______ _____ _____    ______ ____
ROOT
ATOM      7  C   UNL     1      -3.427 -12.337  13.987  0.00  0.00    +0.000 C 
ATOM      8  C   UNL     1      -2.335 -11.437  14.621  0.00  0.00    +0.032 C 
ATOM      9  C   UNL     1      -3.037 -12.724  12.553  0.00  0.00    +0.012 C 
ATOM     10  C   UNL     1      -2.834 -11.492  11.651  0.00  0.00    +0.023 C 
ATOM     12  C   UNL     1      -1.980 -10.436  12.323  0.00  0.00    -0.073 C 
ATOM     13  C   UNL     1      -1.757 -10.437  13.649  0.00  0.00    -0.022 C 
ATOM     18  C   UNL     1      -1.348  -9.406  11.428  0.00  0.00    +0.039 C 
ENDROOT
BRANCH   7  11
ATOM     11  C   UNL     1      -3.675 -13.600  14.817  0.00  0.00    -0.013 C 
ATOM     16  C   UNL     1      -5.162 -13.942  14.831  0.00  0.00    +0.007 C 
ATOM     17  C   UNL     1      -2.857 -14.765  14.270  0.00  0.00    +0.007 C 
ENDBRANCH   7  11
BRANCH   8  14
ATOM     14  C   UNL     1      -2.871 -10.702  15.855  0.00  0.00    +0.113 C 
BRANCH  14   4
ATOM      3  O   UNL     1      -5.376 -11.223  17.141  0.00  0.00    -0.253 OA
ATOM      4  N   UNL     1      -4.170 -10.096  15.526  0.00  0.00    -0.299 N 
ATOM      6  N   UNL     1      -6.399  -9.692  15.684  0.00  0.00    -0.269 N 
ATOM     22  C   UNL     1      -5.328 -10.418  16.213  0.00  0.00    +0.304 C 
ATOM     31  H   UNL     1      -4.201  -9.367  14.821  0.00  0.00    +0.150 HD
ATOM     32  H   UNL     1      -6.188  -9.066  14.910  0.00  0.00    +0.156 HD
BRANCH   6  25
ATOM     25  C   UNL     1      -7.753  -9.719  16.091  0.00  0.00    +0.035 A 
ATOM     26  C   UNL     1      -8.205  -8.834  17.069  0.00  0.00    +0.023 A 
ATOM     27  C   UNL     1      -8.635 -10.632  15.514  0.00  0.00    +0.023 A 
ATOM     28  C   UNL     1      -9.540  -8.861  17.470  0.00  0.00    +0.002 A 
ATOM     29  C   UNL     1      -9.971 -10.660  15.916  0.00  0.00    +0.002 A 
ATOM     30  C   UNL     1     -10.424  -9.774  16.893  0.00  0.00    +0.000 A 
ENDBRANCH   6  25
ENDBRANCH  14   4
ENDBRANCH   8  14
BRANCH  10  15
ATOM     15  C   UNL     1      -4.178 -10.907  11.205  0.00  0.00    +0.103 C 
BRANCH  15  19
ATOM      1  O   UNL     1      -3.868 -12.068   9.161  0.00  0.00    -0.276 OA
ATOM      2  O   UNL     1      -7.015  -8.509   7.784  0.00  0.00    -0.377 OA
ATOM      5  N   UNL     1      -5.033 -10.062   9.050  0.00  0.00    -0.297 N 
ATOM     19  C   UNL     1      -4.340 -11.072   9.715  0.00  0.00    +0.216 C 
ATOM     20  C   UNL     1      -5.496  -8.807   9.652  0.00  0.00    +0.136 C 
ATOM     21  C   UNL     1      -5.239 -10.145   7.604  0.00  0.00    +0.136 C 
ATOM     23  C   UNL     1      -6.922  -8.505   9.211  0.00  0.00    +0.179 C 
ATOM     24  C   UNL     1      -6.677  -9.792   7.252  0.00  0.00    +0.179 C 
ENDBRANCH  15  19
ENDBRANCH  10  15
TORSDOF 6
ENDMDL
MODEL 9
REMARK VINA RESULT:      -6.3     12.306     16.079
REMARK  Name = 38028119
REMARK  9 active torsions:
REMARK  status: ('A' for Active; 'I' for Inactive)
REMARK    1  A    between atoms: N_4  and  C_14
REMARK    2  A    between atoms: N_6  and  C_25
REMARK    3  A    between atoms: C_7  and  C_11
REMARK    4  A    between atoms: C_8  and  C_14
REMARK    5  A    between atoms: C_10  and  C_15
REMARK    6  A    between atoms: C_11  and  C_16
REMARK    7  A    between atoms: C_11  and  C_17
REMARK    8  A    between atoms: C_12  and  C_18
REMARK    9  A    between atoms: C_15  and  C_19
REMARK                            x       y       z     vdW  Elec       q    Type
REMARK                         _______ _______ _______ _____ _____    ______ ____
ROOT
ATOM      7  C   UNL     1     -12.298   8.656  35.003  0.00  0.00    +0.000 C 
ATOM      8  C   UNL     1     -13.424   8.082  34.106  0.00  0.00    +0.032 C 
ATOM      9  C   UNL     1     -11.911  10.069  34.540  0.00  0.00    +0.012 C 
ATOM     10  C   UNL     1     -11.428  10.090  33.077  0.00  0.00    +0.023 C 
ATOM     12  C   UNL     1     -12.355   9.310  32.166  0.00  0.00    -0.073 C 
ATOM     13  C   UNL     1     -13.250   8.428  32.646  0.00  0.00    -0.022 C 
ATOM     18  C   UNL     1     -12.262   9.602  30.695  0.00  0.00    +0.039 C 
ENDROOT
BRANCH   7  11
ATOM     11  C   UNL     1     -12.708   8.688  36.479  0.00  0.00    -0.013 C 
ATOM     16  C   UNL     1     -11.588   8.133  37.353  0.00  0.00    +0.007 C 
ATOM     17  C   UNL     1     -13.069  10.109  36.900  0.00  0.00    +0.007 C 
ENDBRANCH   7  11
BRANCH   8  14
ATOM     14  C   UNL     1     -13.535   6.562  34.262  0.00  0.00    +0.113 C 
BRANCH  14   4
ATOM      3  O   UNL     1     -14.170   3.823  33.716  0.00  0.00    -0.253 OA
ATOM      4  N   UNL     1     -13.756   5.958  32.940  0.00  0.00    -0.299 N 
ATOM      6  N   UNL     1     -14.213   4.329  31.425  0.00  0.00    -0.269 N 
ATOM     22  C   UNL     1     -14.059   4.616  32.784  0.00  0.00    +0.304 C 
ATOM     31  H   UNL     1     -13.756   6.561  32.124  0.00  0.00    +0.150 HD
ATOM     32  H   UNL     1     -14.084   5.103  30.777  0.00  0.00    +0.156 HD
BRANCH   6  25
ATOM     25  C   UNL     1     -14.525   3.085  30.828  0.00  0.00    +0.035 A 
ATOM     26  C   UNL     1     -15.831   2.815  30.421  0.00  0.00    +0.023 A 
ATOM     27  C   UNL     1     -13.526   2.128  30.649  0.00  0.00    +0.023 A 
ATOM     28  C   UNL     1     -16.138   1.588  29.833  0.00  0.00    +0.002 A 
ATOM     29  C   UNL     1     -13.833   0.901  30.061  0.00  0.00    +0.002 A 
ATOM     30  C   UNL     1     -15.140   0.631  29.653  0.00  0.00    +0.000 A 
ENDBRANCH   6  25
ENDBRANCH  14   4
ENDBRANCH   8  14
BRANCH  10  15
ATOM     15  C   UNL     1      -9.988   9.579  32.962  0.00  0.00    +0.103 C 
BRANCH  15  19
ATOM      1  O   UNL     1      -8.889  11.592  32.364  0.00  0.00    -0.276 OA
ATOM      2  O   UNL     1      -7.483  11.086  37.079  0.00  0.00    -0.377 OA
ATOM      5  N   UNL     1      -8.329  10.676  34.422  0.00  0.00    -0.297 N 
ATOM     19  C   UNL     1      -9.022  10.708  33.213  0.00  0.00    +0.216 C 
ATOM     20  C   UNL     1      -8.366   9.579  35.396  0.00  0.00    +0.136 C 
ATOM     21  C   UNL     1      -7.374  11.735  34.748  0.00  0.00    +0.136 C 
ATOM     23  C   UNL     1      -8.512  10.131  36.808  0.00  0.00    +0.179 C 
ATOM     24  C   UNL     1      -7.567  12.199  36.185  0.00  0.00    +0.179 C 
ENDBRANCH  15  19
ENDBRANCH  10  15
TORSDOF 6
ENDMDL
MODEL 10
REMARK VINA RESULT:      -6.2     20.583     23.029
REMARK  Name = 38028119
REMARK  9 active torsions:
REMARK  status: ('A' for Active; 'I' for Inactive)
REMARK    1  A    between atoms: N_4  and  C_14
REMARK    2  A    between atoms: N_6  and  C_25
REMARK    3  A    between atoms: C_7  and  C_11
REMARK    4  A    between atoms: C_8  and  C_14
REMARK    5  A    between atoms: C_10  and  C_15
REMARK    6  A    between atoms: C_11  and  C_16
REMARK    7  A    between atoms: C_11  and  C_17
REMARK    8  A    between atoms: C_12  and  C_18
REMARK    9  A    between atoms: C_15  and  C_19
REMARK                            x       y       z     vdW  Elec       q    Type
REMARK                         _______ _______ _______ _____ _____    ______ ____
ROOT
ATOM      7  C   UNL     1      -2.949 -12.594  12.963  0.00  0.00    +0.000 C 
ATOM      8  C   UNL     1      -1.844 -11.512  13.070  0.00  0.00    +0.032 C 
ATOM      9  C   UNL     1      -3.322 -12.835  11.492  0.00  0.00    +0.012 C 
ATOM     10  C   UNL     1      -3.825 -11.553  10.802  0.00  0.00    +0.023 C 
ATOM     12  C   UNL     1      -2.923 -10.369  11.085  0.00  0.00    -0.073 C 
ATOM     13  C   UNL     1      -2.034 -10.375  12.095  0.00  0.00    -0.022 C 
ATOM     18  C   UNL     1      -3.033  -9.196  10.152  0.00  0.00    +0.039 C 
ENDROOT
BRANCH   7  11
ATOM     11  C   UNL     1      -2.517 -13.913  13.612  0.00  0.00    -0.013 C 
ATOM     16  C   UNL     1      -3.683 -14.537  14.373  0.00  0.00    +0.007 C 
ATOM     17  C   UNL     1      -1.984 -14.877  12.556  0.00  0.00    +0.007 C 
ENDBRANCH   7  11
BRANCH   8  14
ATOM     14  C   UNL     1      -1.753 -10.954  14.495  0.00  0.00    +0.113 C 
BRANCH  14   4
ATOM      3  O   UNL     1      -3.648 -11.755  16.487  0.00  0.00    -0.253 OA
ATOM      4  N   UNL     1      -3.016 -10.279  14.828  0.00  0.00    -0.299 N 
ATOM      6  N   UNL     1      -4.979  -9.910  15.907  0.00  0.00    -0.269 N 
ATOM     22  C   UNL     1      -3.866 -10.750  15.814  0.00  0.00    +0.304 C 
ATOM     31  H   UNL     1      -3.232  -9.400  14.369  0.00  0.00    +0.150 HD
ATOM     32  H   UNL     1      -5.008  -9.117  15.271  0.00  0.00    +0.156 HD
BRANCH   6  25
ATOM     25  C   UNL     1      -6.085 -10.027  16.782  0.00  0.00    +0.035 A 
ATOM     26  C   UNL     1      -7.362  -9.680  16.341  0.00  0.00    +0.023 A 
ATOM     27  C   UNL     1      -5.897 -10.488  18.085  0.00  0.00    +0.023 A 
ATOM     28  C   UNL     1      -8.452  -9.796  17.203  0.00  0.00    +0.002 A 
ATOM     29  C   UNL     1      -6.987 -10.603  18.947  0.00  0.00    +0.002 A 
ATOM     30  C   UNL     1      -8.265 -10.257  18.506  0.00  0.00    +0.000 A 
ENDBRANCH   6  25
ENDBRANCH  14   4
ENDBRANCH   8  14
BRANCH  10  15
ATOM     15  C   UNL     1      -5.274 -11.246  11.195  0.00  0.00    +0.103 C 
BRANCH  15  19
ATOM      1  O   UNL     1      -6.349 -12.903   9.884  0.00  0.00    -0.276 OA
ATOM      2  O   UNL     1      -8.766  -8.828   8.464  0.00  0.00    -0.377 OA
ATOM      5  N   UNL     1      -6.871 -10.693   9.397  0.00  0.00    -0.297 N 
ATOM     19  C   UNL     1      -6.209 -11.697  10.102  0.00  0.00    +0.216 C 
ATOM     20  C   UNL     1      -6.635  -9.253   9.542  0.00  0.00    +0.136 C 
ATOM     21  C   UNL     1      -7.800 -11.043   8.322  0.00  0.00    +0.136 C 
ATOM     23  C   UNL     1      -7.960  -8.504   9.600  0.00  0.00    +0.179 C 
ATOM     24  C   UNL     1      -9.076 -10.223   8.436  0.00  0.00    +0.179 C 
ENDBRANCH  15  19
ENDBRANCH  10  15
TORSDOF 6
ENDMDL
