MODEL 1
REMARK VINA RESULT:      -7.2      0.000      0.000
REMARK  Name = 11911964
REMARK  3 active torsions:
REMARK  status: ('A' for Active; 'I' for Inactive)
REMARK    1  A    between atoms: C_16  and  C_19
REMARK    2  A    between atoms: C_17  and  C_20
REMARK    3  A    between atoms: C_28  and  C_33
REMARK                            x       y       z     vdW  Elec       q    Type
REMARK                         _______ _______ _______ _____ _____    ______ ____
ROOT
ATOM      2  O   UNL     1     -12.866  10.340  20.386  0.00  0.00    -0.267 OA
ATOM      3  O   UNL     1     -14.236  12.384  16.008  0.00  0.00    -0.270 OA
ATOM      4  N   UNL     1     -11.951  12.040  15.826  0.00  0.00    -0.297 N 
ATOM      5  N   UNL     1     -11.398  10.635  18.596  0.00  0.00    -0.311 N 
ATOM      7  C   UNL     1     -10.687  12.952  17.764  0.00  0.00    +0.027 C 
ATOM      8  C   UNL     1      -9.873  10.934  16.614  0.00  0.00    +0.054 C 
ATOM      9  C   UNL     1      -9.432  12.238  17.277  0.00  0.00    +0.018 C 
ATOM     10  C   UNL     1     -11.627  13.253  16.581  0.00  0.00    +0.113 C 
ATOM     11  C   UNL     1     -11.364  12.085  18.835  0.00  0.00    +0.130 C 
ATOM     12  C   UNL     1     -10.782  11.250  15.407  0.00  0.00    +0.117 C 
ATOM     13  C   UNL     1     -10.621  10.049  17.592  0.00  0.00    +0.027 A 
ATOM     14  C   UNL     1     -10.577   8.713  17.464  0.00  0.00    +0.022 A 
ATOM     15  C   UNL     1     -12.174   9.864  19.484  0.00  0.00    +0.260 A 
ATOM     16  C   UNL     1     -13.298  11.680  15.633  0.00  0.00    +0.247 C 
ATOM     17  C   UNL     1     -12.126   8.374  19.291  0.00  0.00    +0.053 A 
ATOM     18  C   UNL     1     -11.343   7.863  18.331  0.00  0.00    +0.016 A 
ENDROOT
BRANCH  17  20
ATOM      1  S   UNL     1     -14.583   7.385  19.892  0.00  0.00    -0.088 S 
ATOM     20  C   UNL     1     -12.895   7.507  20.126  0.00  0.00    +0.026 A 
ATOM     23  C   UNL     1     -12.466   6.700  21.159  0.00  0.00    +0.024 A 
ATOM     24  C   UNL     1     -13.531   5.962  21.778  0.00  0.00    -0.010 A 
ATOM     25  C   UNL     1     -14.760   6.245  21.174  0.00  0.00    +0.020 A 
ATOM     29  C   UNL     1     -13.510   5.040  22.852  0.00  0.00    +0.009 A 
ATOM     30  C   UNL     1     -15.953   5.638  21.612  0.00  0.00    +0.015 A 
ATOM     31  C   UNL     1     -14.691   4.436  23.290  0.00  0.00    +0.001 A 
ATOM     32  C   UNL     1     -15.899   4.733  22.674  0.00  0.00    +0.001 A 
ENDBRANCH  17  20
BRANCH  16  19
ATOM     19  C   UNL     1     -13.557  10.399  14.987  0.00  0.00    +0.037 A 
ATOM     21  C   UNL     1     -13.782   9.265  15.763  0.00  0.00    +0.014 A 
ATOM     22  C   UNL     1     -13.578  10.317  13.598  0.00  0.00    +0.014 A 
ATOM     26  C   UNL     1     -14.031   8.040  15.144  0.00  0.00    +0.019 A 
ATOM     27  C   UNL     1     -13.828   9.092  12.980  0.00  0.00    +0.019 A 
ATOM     28  C   UNL     1     -14.054   7.954  13.752  0.00  0.00    +0.052 A 
BRANCH  28  33
ATOM      6  N   UNL     1     -14.514   5.677  12.604  0.00  0.00    -0.191 NA
ATOM     33  C   UNL     1     -14.307   6.698  13.119  0.00  0.00    +0.099 C 
ENDBRANCH  28  33
ENDBRANCH  16  19
TORSDOF 3
ENDMDL
MODEL 2
REMARK VINA RESULT:      -6.9     18.410     21.464
REMARK  Name = 11911964
REMARK  3 active torsions:
REMARK  status: ('A' for Active; 'I' for Inactive)
REMARK    1  A    between atoms: C_16  and  C_19
REMARK    2  A    between atoms: C_17  and  C_20
REMARK    3  A    between atoms: C_28  and  C_33
REMARK                            x       y       z     vdW  Elec       q    Type
REMARK                         _______ _______ _______ _____ _____    ______ ____
ROOT
ATOM      2  O   UNL     1      -6.372 -12.828  15.051  0.00  0.00    -0.267 OA
ATOM      3  O   UNL     1     -11.227 -12.816  16.335  0.00  0.00    -0.270 OA
ATOM      4  N   UNL     1     -10.099 -12.087  18.225  0.00  0.00    -0.297 N 
ATOM      5  N   UNL     1      -7.150 -12.045  17.106  0.00  0.00    -0.311 N 
ATOM      7  C   UNL     1      -8.216 -13.585  18.854  0.00  0.00    +0.027 C 
ATOM      8  C   UNL     1      -8.053 -11.167  19.288  0.00  0.00    +0.054 C 
ATOM      9  C   UNL     1      -7.731 -12.547  19.860  0.00  0.00    +0.018 C 
ATOM     10  C   UNL     1      -9.733 -13.447  18.630  0.00  0.00    +0.113 C 
ATOM     11  C   UNL     1      -7.421 -13.418  17.552  0.00  0.00    +0.130 C 
ATOM     12  C   UNL     1      -9.579 -11.026  19.104  0.00  0.00    +0.117 C 
ATOM     13  C   UNL     1      -7.362 -10.953  17.955  0.00  0.00    +0.027 A 
ATOM     14  C   UNL     1      -7.000  -9.719  17.572  0.00  0.00    +0.022 A 
ATOM     15  C   UNL     1      -6.581 -11.894  15.826  0.00  0.00    +0.260 A 
ATOM     16  C   UNL     1     -10.817 -11.886  17.031  0.00  0.00    +0.247 C 
ATOM     17  C   UNL     1      -6.219 -10.493  15.417  0.00  0.00    +0.053 A 
ATOM     18  C   UNL     1      -6.418  -9.487  16.280  0.00  0.00    +0.016 A 
ENDROOT
BRANCH  17  20
ATOM      1  S   UNL     1      -4.038 -10.672  13.808  0.00  0.00    -0.088 S 
ATOM     20  C   UNL     1      -5.658 -10.233  14.129  0.00  0.00    +0.026 A 
ATOM     23  C   UNL     1      -6.252  -9.646  13.032  0.00  0.00    +0.024 A 
ATOM     24  C   UNL     1      -5.375  -9.548  11.900  0.00  0.00    -0.010 A 
ATOM     25  C   UNL     1      -4.114 -10.079  12.190  0.00  0.00    +0.020 A 
ATOM     29  C   UNL     1      -5.596  -9.018  10.606  0.00  0.00    +0.009 A 
ATOM     30  C   UNL     1      -3.082 -10.094  11.231  0.00  0.00    +0.015 A 
ATOM     31  C   UNL     1      -4.575  -9.032   9.652  0.00  0.00    +0.001 A 
ATOM     32  C   UNL     1      -3.332  -9.565   9.963  0.00  0.00    +0.001 A 
ENDBRANCH  17  20
BRANCH  16  19
ATOM     19  C   UNL     1     -11.040 -10.507  16.614  0.00  0.00    +0.037 A 
ATOM     21  C   UNL     1     -12.131  -9.801  17.114  0.00  0.00    +0.014 A 
ATOM     22  C   UNL     1     -10.161  -9.904  15.719  0.00  0.00    +0.014 A 
ATOM     26  C   UNL     1     -12.344  -8.481  16.716  0.00  0.00    +0.019 A 
ATOM     27  C   UNL     1     -10.374  -8.584  15.322  0.00  0.00    +0.019 A 
ATOM     28  C   UNL     1     -11.465  -7.873  15.820  0.00  0.00    +0.052 A 
BRANCH  28  33
ATOM      6  N   UNL     1     -11.862  -5.422  15.078  0.00  0.00    -0.191 NA
ATOM     33  C   UNL     1     -11.685  -6.521  15.410  0.00  0.00    +0.099 C 
ENDBRANCH  28  33
ENDBRANCH  16  19
TORSDOF 3
ENDMDL
MODEL 3
REMARK VINA RESULT:      -6.7     20.041     22.138
REMARK  Name = 11911964
REMARK  3 active torsions:
REMARK  status: ('A' for Active; 'I' for Inactive)
REMARK    1  A    between atoms: C_16  and  C_19
REMARK    2  A    between atoms: C_17  and  C_20
REMARK    3  A    between atoms: C_28  and  C_33
REMARK                            x       y       z     vdW  Elec       q    Type
REMARK                         _______ _______ _______ _____ _____    ______ ____
ROOT
ATOM      2  O   UNL     1      -5.184 -11.858  16.454  0.00  0.00    -0.267 OA
ATOM      3  O   UNL     1      -1.813  -9.987  13.236  0.00  0.00    -0.270 OA
ATOM      4  N   UNL     1      -2.370 -12.070  12.385  0.00  0.00    -0.297 N 
ATOM      5  N   UNL     1      -4.570 -12.932  14.475  0.00  0.00    -0.311 N 
ATOM      7  C   UNL     1      -2.218 -13.874  14.091  0.00  0.00    +0.027 C 
ATOM      8  C   UNL     1      -3.904 -14.019  12.303  0.00  0.00    +0.054 C 
ATOM      9  C   UNL     1      -2.912 -14.834  13.131  0.00  0.00    +0.018 C 
ATOM     10  C   UNL     1      -1.476 -12.775  13.307  0.00  0.00    +0.113 C 
ATOM     11  C   UNL     1      -3.266 -13.293  15.050  0.00  0.00    +0.130 C 
ATOM     12  C   UNL     1      -3.144 -12.948  11.492  0.00  0.00    +0.117 C 
ATOM     13  C   UNL     1      -4.934 -13.347  13.190  0.00  0.00    +0.027 A 
ATOM     14  C   UNL     1      -6.171 -13.107  12.727  0.00  0.00    +0.022 A 
ATOM     15  C   UNL     1      -5.462 -12.235  15.314  0.00  0.00    +0.260 A 
ATOM     16  C   UNL     1      -2.490 -10.670  12.467  0.00  0.00    +0.247 C 
ATOM     17  C   UNL     1      -6.827 -11.955  14.751  0.00  0.00    +0.053 A 
ATOM     18  C   UNL     1      -7.133 -12.399  13.523  0.00  0.00    +0.016 A 
ENDROOT
BRANCH  17  20
ATOM      1  S   UNL     1      -8.849 -12.081  16.560  0.00  0.00    -0.088 S 
ATOM     20  C   UNL     1      -7.796 -11.234  15.514  0.00  0.00    +0.026 A 
ATOM     23  C   UNL     1      -8.033  -9.876  15.546  0.00  0.00    +0.024 A 
ATOM     24  C   UNL     1      -9.096  -9.509  16.439  0.00  0.00    -0.010 A 
ATOM     25  C   UNL     1      -9.638 -10.634  17.068  0.00  0.00    +0.020 A 
ATOM     29  C   UNL     1      -9.639  -8.240  16.752  0.00  0.00    +0.009 A 
ATOM     30  C   UNL     1     -10.696 -10.524  17.992  0.00  0.00    +0.015 A 
ATOM     31  C   UNL     1     -10.688  -8.126  17.668  0.00  0.00    +0.001 A 
ATOM     32  C   UNL     1     -11.210  -9.258  18.280  0.00  0.00    +0.001 A 
ENDBRANCH  17  20
BRANCH  16  19
ATOM     19  C   UNL     1      -3.487 -10.038  11.613  0.00  0.00    +0.037 A 
ATOM     21  C   UNL     1      -4.794  -9.886  12.070  0.00  0.00    +0.014 A 
ATOM     22  C   UNL     1      -3.128  -9.588  10.345  0.00  0.00    +0.014 A 
ATOM     26  C   UNL     1      -5.748  -9.280  11.253  0.00  0.00    +0.019 A 
ATOM     27  C   UNL     1      -4.083  -8.982   9.529  0.00  0.00    +0.019 A 
ATOM     28  C   UNL     1      -5.392  -8.828   9.982  0.00  0.00    +0.052 A 
BRANCH  28  33
ATOM      6  N   UNL     1      -7.167  -7.706   8.463  0.00  0.00    -0.191 NA
ATOM     33  C   UNL     1      -6.371  -8.208   9.145  0.00  0.00    +0.099 C 
ENDBRANCH  28  33
ENDBRANCH  16  19
TORSDOF 3
ENDMDL
MODEL 4
REMARK VINA RESULT:      -6.7     29.907     31.774
REMARK  Name = 11911964
REMARK  3 active torsions:
REMARK  status: ('A' for Active; 'I' for Inactive)
REMARK    1  A    between atoms: C_16  and  C_19
REMARK    2  A    between atoms: C_17  and  C_20
REMARK    3  A    between atoms: C_28  and  C_33
REMARK                            x       y       z     vdW  Elec       q    Type
REMARK                         _______ _______ _______ _____ _____    ______ ____
ROOT
ATOM      2  O   UNL     1       9.659  -9.679  32.285  0.00  0.00    -0.267 OA
ATOM      3  O   UNL     1       8.722  -8.787  37.137  0.00  0.00    -0.270 OA
ATOM      4  N   UNL     1       8.178  -6.817  36.044  0.00  0.00    -0.297 N 
ATOM      5  N   UNL     1       8.704  -7.696  33.060  0.00  0.00    -0.311 N 
ATOM      7  C   UNL     1       9.986  -6.031  34.527  0.00  0.00    +0.027 C 
ATOM      8  C   UNL     1       7.632  -5.598  33.951  0.00  0.00    +0.054 C 
ATOM      9  C   UNL     1       9.036  -4.995  33.937  0.00  0.00    +0.018 C 
ATOM     10  C   UNL     1       9.573  -6.377  35.970  0.00  0.00    +0.113 C 
ATOM     11  C   UNL     1       9.995  -7.267  33.616  0.00  0.00    +0.130 C 
ATOM     12  C   UNL     1       7.215  -5.904  35.405  0.00  0.00    +0.117 C 
ATOM     13  C   UNL     1       7.576  -6.872  33.131  0.00  0.00    +0.027 A 
ATOM     14  C   UNL     1       6.438  -7.231  32.517  0.00  0.00    +0.022 A 
ATOM     15  C   UNL     1       8.687  -8.928  32.376  0.00  0.00    +0.260 A 
ATOM     16  C   UNL     1       7.870  -8.065  36.617  0.00  0.00    +0.247 C 
ATOM     17  C   UNL     1       7.386  -9.313  31.729  0.00  0.00    +0.053 A 
ATOM     18  C   UNL     1       6.343  -8.474  31.803  0.00  0.00    +0.016 A 
ENDROOT
BRANCH  17  20
ATOM      1  S   UNL     1       6.443 -11.860  31.769  0.00  0.00    -0.088 S 
ATOM     20  C   UNL     1       7.259 -10.553  31.031  0.00  0.00    +0.026 A 
ATOM     23  C   UNL     1       7.720 -10.887  29.775  0.00  0.00    +0.024 A 
ATOM     24  C   UNL     1       7.404 -12.236  29.398  0.00  0.00    -0.010 A 
ATOM     25  C   UNL     1       6.697 -12.891  30.411  0.00  0.00    +0.020 A 
ATOM     29  C   UNL     1       7.694 -12.953  28.213  0.00  0.00    +0.009 A 
ATOM     30  C   UNL     1       6.277 -14.229  30.270  0.00  0.00    +0.015 A 
ATOM     31  C   UNL     1       7.279 -14.280  28.069  0.00  0.00    +0.001 A 
ATOM     32  C   UNL     1       6.577 -14.909  29.088  0.00  0.00    +0.001 A 
ENDBRANCH  17  20
BRANCH  16  19
ATOM     19  C   UNL     1       6.483  -8.505  36.546  0.00  0.00    +0.037 A 
ATOM     21  C   UNL     1       5.586  -8.131  37.544  0.00  0.00    +0.014 A 
ATOM     22  C   UNL     1       6.061  -9.297  35.482  0.00  0.00    +0.014 A 
ATOM     26  C   UNL     1       4.258  -8.551  37.475  0.00  0.00    +0.019 A 
ATOM     27  C   UNL     1       4.733  -9.717  35.414  0.00  0.00    +0.019 A 
ATOM     28  C   UNL     1       3.831  -9.344  36.410  0.00  0.00    +0.052 A 
BRANCH  28  33
ATOM      6  N   UNL     1       1.365 -10.128  36.286  0.00  0.00    -0.191 NA
ATOM     33  C   UNL     1       2.470  -9.776  36.342  0.00  0.00    +0.099 C 
ENDBRANCH  28  33
ENDBRANCH  16  19
TORSDOF 3
ENDMDL
MODEL 5
REMARK VINA RESULT:      -6.7     25.892     29.080
REMARK  Name = 11911964
REMARK  3 active torsions:
REMARK  status: ('A' for Active; 'I' for Inactive)
REMARK    1  A    between atoms: C_16  and  C_19
REMARK    2  A    between atoms: C_17  and  C_20
REMARK    3  A    between atoms: C_28  and  C_33
REMARK                            x       y       z     vdW  Elec       q    Type
REMARK                         _______ _______ _______ _____ _____    ______ ____
ROOT
ATOM      2  O   UNL     1      13.019   7.490   3.497  0.00  0.00    -0.267 OA
ATOM      3  O   UNL     1       8.976   9.945   5.185  0.00  0.00    -0.270 OA
ATOM      4  N   UNL     1       8.981   7.929   6.329  0.00  0.00    -0.297 N 
ATOM      5  N   UNL     1      11.655   6.683   5.210  0.00  0.00    -0.311 N 
ATOM      7  C   UNL     1       9.226   5.969   4.816  0.00  0.00    +0.027 C 
ATOM      8  C   UNL     1      10.175   5.888   7.086  0.00  0.00    +0.054 C 
ATOM      9  C   UNL     1       9.442   5.067   6.026  0.00  0.00    +0.018 C 
ATOM     10  C   UNL     1       8.384   7.198   5.208  0.00  0.00    +0.113 C 
ATOM     11  C   UNL     1      10.594   6.363   4.244  0.00  0.00    +0.130 C 
ATOM     12  C   UNL     1       9.305   7.095   7.498  0.00  0.00    +0.117 C 
ATOM     13  C   UNL     1      11.512   6.382   6.568  0.00  0.00    +0.027 A 
ATOM     14  C   UNL     1      12.535   6.576   7.415  0.00  0.00    +0.022 A 
ATOM     15  C   UNL     1      12.850   7.217   4.687  0.00  0.00    +0.260 A 
ATOM     16  C   UNL     1       9.273   9.299   6.191  0.00  0.00    +0.247 C 
ATOM     17  C   UNL     1      13.963   7.451   5.669  0.00  0.00    +0.053 A 
ATOM     18  C   UNL     1      13.782   7.119   6.955  0.00  0.00    +0.016 A 
ENDROOT
BRANCH  17  20
ATOM      1  S   UNL     1      15.645   9.582   5.749  0.00  0.00    -0.088 S 
ATOM     20  C   UNL     1      15.206   8.011   5.242  0.00  0.00    +0.026 A 
ATOM     23  C   UNL     1      16.171   7.450   4.432  0.00  0.00    +0.024 A 
ATOM     24  C   UNL     1      17.298   8.313   4.216  0.00  0.00    -0.010 A 
ATOM     25  C   UNL     1      17.139   9.529   4.888  0.00  0.00    +0.020 A 
ATOM     29  C   UNL     1      18.478   8.116   3.460  0.00  0.00    +0.009 A 
ATOM     30  C   UNL     1      18.119  10.540   4.824  0.00  0.00    +0.015 A 
ATOM     31  C   UNL     1      19.452   9.115   3.394  0.00  0.00    +0.001 A 
ATOM     32  C   UNL     1      19.272  10.314   4.071  0.00  0.00    +0.001 A 
ENDBRANCH  17  20
BRANCH  16  19
ATOM     19  C   UNL     1       9.982   9.941   7.290  0.00  0.00    +0.037 A 
ATOM     21  C   UNL     1       9.270  10.422   8.387  0.00  0.00    +0.014 A 
ATOM     22  C   UNL     1      11.367  10.070   7.239  0.00  0.00    +0.014 A 
ATOM     26  C   UNL     1       9.949  11.035   9.439  0.00  0.00    +0.019 A 
ATOM     27  C   UNL     1      12.045  10.684   8.292  0.00  0.00    +0.019 A 
ATOM     28  C   UNL     1      11.337  11.166   9.391  0.00  0.00    +0.052 A 
BRANCH  28  33
ATOM      6  N   UNL     1      12.596  12.309  11.346  0.00  0.00    -0.191 NA
ATOM     33  C   UNL     1      12.032  11.797  10.470  0.00  0.00    +0.099 C 
ENDBRANCH  28  33
ENDBRANCH  16  19
TORSDOF 3
ENDMDL
MODEL 6
REMARK VINA RESULT:      -6.5     14.445     17.638
REMARK  Name = 11911964
REMARK  3 active torsions:
REMARK  status: ('A' for Active; 'I' for Inactive)
REMARK    1  A    between atoms: C_16  and  C_19
REMARK    2  A    between atoms: C_17  and  C_20
REMARK    3  A    between atoms: C_28  and  C_33
REMARK                            x       y       z     vdW  Elec       q    Type
REMARK                         _______ _______ _______ _____ _____    ______ ____
ROOT
ATOM      2  O   UNL     1     -12.227  -7.776  10.005  0.00  0.00    -0.267 OA
ATOM      3  O   UNL     1     -16.689  -5.566  10.654  0.00  0.00    -0.270 OA
ATOM      4  N   UNL     1     -15.276  -4.533  12.173  0.00  0.00    -0.297 N 
ATOM      5  N   UNL     1     -12.566  -5.978  11.453  0.00  0.00    -0.311 N 
ATOM      7  C   UNL     1     -14.008  -6.161  13.563  0.00  0.00    +0.027 C 
ATOM      8  C   UNL     1     -12.982  -4.005  12.962  0.00  0.00    +0.054 C 
ATOM      9  C   UNL     1     -13.135  -5.027  14.088  0.00  0.00    +0.018 C 
ATOM     10  C   UNL     1     -15.390  -5.624  13.144  0.00  0.00    +0.113 C 
ATOM     11  C   UNL     1     -13.278  -6.847  12.401  0.00  0.00    +0.130 C 
ATOM     12  C   UNL     1     -14.369  -3.446  12.579  0.00  0.00    +0.117 C 
ATOM     13  C   UNL     1     -12.334  -4.629  11.742  0.00  0.00    +0.027 A 
ATOM     14  C   UNL     1     -11.582  -3.881  10.919  0.00  0.00    +0.022 A 
ATOM     15  C   UNL     1     -12.052  -6.591  10.293  0.00  0.00    +0.260 A 
ATOM     16  C   UNL     1     -15.941  -4.629  10.937  0.00  0.00    +0.247 C 
ATOM     17  C   UNL     1     -11.243  -5.715   9.378  0.00  0.00    +0.053 A 
ATOM     18  C   UNL     1     -11.027  -4.436   9.717  0.00  0.00    +0.016 A 
ENDROOT
BRANCH  17  20
ATOM      1  S   UNL     1      -9.043  -6.660   8.095  0.00  0.00    -0.088 S 
ATOM     20  C   UNL     1     -10.697  -6.237   8.165  0.00  0.00    +0.026 A 
ATOM     23  C   UNL     1     -11.332  -6.470   6.964  0.00  0.00    +0.024 A 
ATOM     24  C   UNL     1     -10.458  -7.004   5.957  0.00  0.00    -0.010 A 
ATOM     25  C   UNL     1      -9.159  -7.161   6.449  0.00  0.00    +0.020 A 
ATOM     29  C   UNL     1     -10.716  -7.373   4.615  0.00  0.00    +0.009 A 
ATOM     30  C   UNL     1      -8.122  -7.672   5.642  0.00  0.00    +0.015 A 
ATOM     31  C   UNL     1      -9.691  -7.880   3.812  0.00  0.00    +0.001 A 
ATOM     32  C   UNL     1      -8.408  -8.027   4.322  0.00  0.00    +0.001 A 
ENDBRANCH  17  20
BRANCH  16  19
ATOM     19  C   UNL     1     -15.688  -3.576   9.962  0.00  0.00    +0.037 A 
ATOM     21  C   UNL     1     -16.457  -2.415   9.981  0.00  0.00    +0.014 A 
ATOM     22  C   UNL     1     -14.678  -3.735   9.017  0.00  0.00    +0.014 A 
ATOM     26  C   UNL     1     -16.213  -1.406   9.049  0.00  0.00    +0.019 A 
ATOM     27  C   UNL     1     -14.434  -2.726   8.086  0.00  0.00    +0.019 A 
ATOM     28  C   UNL     1     -15.201  -1.562   8.102  0.00  0.00    +0.052 A 
BRANCH  28  33
ATOM      6  N   UNL     1     -14.752   0.311   6.369  0.00  0.00    -0.191 NA
ATOM     33  C   UNL     1     -14.954  -0.529   7.145  0.00  0.00    +0.099 C 
ENDBRANCH  28  33
ENDBRANCH  16  19
TORSDOF 3
ENDMDL
MODEL 7
REMARK VINA RESULT:      -6.3     25.632     28.315
REMARK  Name = 11911964
REMARK  3 active torsions:
REMARK  status: ('A' for Active; 'I' for Inactive)
REMARK    1  A    between atoms: C_16  and  C_19
REMARK    2  A    between atoms: C_17  and  C_20
REMARK    3  A    between atoms: C_28  and  C_33
REMARK                            x       y       z     vdW  Elec       q    Type
REMARK                         _______ _______ _______ _____ _____    ______ ____
ROOT
ATOM      2  O   UNL     1      11.384   4.674   3.450  0.00  0.00    -0.267 OA
ATOM      3  O   UNL     1       7.646   7.047   5.820  0.00  0.00    -0.270 OA
ATOM      4  N   UNL     1       9.479   8.450   6.024  0.00  0.00    -0.297 N 
ATOM      5  N   UNL     1      11.595   6.817   4.348  0.00  0.00    -0.311 N 
ATOM      7  C   UNL     1      11.500   7.271   6.868  0.00  0.00    +0.027 C 
ATOM      8  C   UNL     1      11.747   9.147   5.293  0.00  0.00    +0.054 C 
ATOM      9  C   UNL     1      12.348   8.495   6.537  0.00  0.00    +0.018 C 
ATOM     10  C   UNL     1      10.042   7.687   7.140  0.00  0.00    +0.113 C 
ATOM     11  C   UNL     1      11.610   6.268   5.711  0.00  0.00    +0.130 C 
ATOM     12  C   UNL     1      10.300   9.594   5.590  0.00  0.00    +0.117 C 
ATOM     13  C   UNL     1      11.749   8.188   4.118  0.00  0.00    +0.027 A 
ATOM     14  C   UNL     1      11.848   8.656   2.864  0.00  0.00    +0.022 A 
ATOM     15  C   UNL     1      11.513   5.888   3.291  0.00  0.00    +0.260 A 
ATOM     16  C   UNL     1       8.290   8.013   5.410  0.00  0.00    +0.247 C 
ATOM     17  C   UNL     1      11.595   6.451   1.900  0.00  0.00    +0.053 A 
ATOM     18  C   UNL     1      11.770   7.770   1.736  0.00  0.00    +0.016 A 
ENDROOT
BRANCH  17  20
ATOM      1  S   UNL     1      10.203   5.788  -0.336  0.00  0.00    -0.088 S 
ATOM     20  C   UNL     1      11.499   5.595   0.761  0.00  0.00    +0.026 A 
ATOM     23  C   UNL     1      12.338   4.570   0.379  0.00  0.00    +0.024 A 
ATOM     24  C   UNL     1      11.924   3.922  -0.833  0.00  0.00    -0.010 A 
ATOM     25  C   UNL     1      10.754   4.497  -1.339  0.00  0.00    +0.020 A 
ATOM     29  C   UNL     1      12.502   2.844  -1.546  0.00  0.00    +0.009 A 
ATOM     30  C   UNL     1      10.155   4.028  -2.525  0.00  0.00    +0.015 A 
ATOM     31  C   UNL     1      11.911   2.376  -2.723  0.00  0.00    +0.001 A 
ATOM     32  C   UNL     1      10.749   2.964  -3.205  0.00  0.00    +0.001 A 
ENDBRANCH  17  20
BRANCH  16  19
ATOM     19  C   UNL     1       7.849   8.738   4.226  0.00  0.00    +0.037 A 
ATOM     21  C   UNL     1       7.004   9.838   4.362  0.00  0.00    +0.014 A 
ATOM     22  C   UNL     1       8.273   8.328   2.965  0.00  0.00    +0.014 A 
ATOM     26  C   UNL     1       6.583  10.532   3.228  0.00  0.00    +0.019 A 
ATOM     27  C   UNL     1       7.851   9.023   1.832  0.00  0.00    +0.019 A 
ATOM     28  C   UNL     1       7.006  10.124   1.963  0.00  0.00    +0.052 A 
BRANCH  28  33
ATOM      6  N   UNL     1       6.219  11.413  -0.143  0.00  0.00    -0.191 NA
ATOM     33  C   UNL     1       6.572  10.835   0.801  0.00  0.00    +0.099 C 
ENDBRANCH  28  33
ENDBRANCH  16  19
TORSDOF 3
ENDMDL
MODEL 8
REMARK VINA RESULT:      -6.3     26.571     29.337
REMARK  Name = 11911964
REMARK  3 active torsions:
REMARK  status: ('A' for Active; 'I' for Inactive)
REMARK    1  A    between atoms: C_16  and  C_19
REMARK    2  A    between atoms: C_17  and  C_20
REMARK    3  A    between atoms: C_28  and  C_33
REMARK                            x       y       z     vdW  Elec       q    Type
REMARK                         _______ _______ _______ _____ _____    ______ ____
ROOT
ATOM      2  O   UNL     1      12.487   8.784   7.339  0.00  0.00    -0.267 OA
ATOM      3  O   UNL     1      10.168   4.647   5.686  0.00  0.00    -0.270 OA
ATOM      4  N   UNL     1       9.063   6.410   4.664  0.00  0.00    -0.297 N 
ATOM      5  N   UNL     1      10.791   8.821   5.737  0.00  0.00    -0.311 N 
ATOM      7  C   UNL     1       8.371   8.172   6.277  0.00  0.00    +0.027 C 
ATOM      8  C   UNL     1       8.990   8.794   3.976  0.00  0.00    +0.054 C 
ATOM      9  C   UNL     1       8.014   9.091   5.114  0.00  0.00    +0.018 C 
ATOM     10  C   UNL     1       8.253   6.697   5.851  0.00  0.00    +0.113 C 
ATOM     11  C   UNL     1       9.784   8.523   6.765  0.00  0.00    +0.130 C 
ATOM     12  C   UNL     1       8.834   7.324   3.532  0.00  0.00    +0.117 C 
ATOM     13  C   UNL     1      10.422   9.044   4.406  0.00  0.00    +0.027 A 
ATOM     14  C   UNL     1      11.341   9.428   3.506  0.00  0.00    +0.022 A 
ATOM     15  C   UNL     1      12.122   8.963   6.176  0.00  0.00    +0.260 A 
ATOM     16  C   UNL     1      10.023   5.382   4.708  0.00  0.00    +0.247 C 
ATOM     17  C   UNL     1      13.129   9.363   5.134  0.00  0.00    +0.053 A 
ATOM     18  C   UNL     1      12.718   9.591   3.879  0.00  0.00    +0.016 A 
ENDROOT
BRANCH  17  20
ATOM      1  S   UNL     1      15.084  11.018   6.039  0.00  0.00    -0.088 S 
ATOM     20  C   UNL     1      14.509   9.511   5.474  0.00  0.00    +0.026 A 
ATOM     23  C   UNL     1      15.517   8.573   5.415  0.00  0.00    +0.024 A 
ATOM     24  C   UNL     1      16.790   9.084   5.839  0.00  0.00    -0.010 A 
ATOM     25  C   UNL     1      16.695  10.428   6.213  0.00  0.00    +0.020 A 
ATOM     29  C   UNL     1      18.054   8.453   5.925  0.00  0.00    +0.009 A 
ATOM     30  C   UNL     1      17.818  11.148   6.666  0.00  0.00    +0.015 A 
ATOM     31  C   UNL     1      19.171   9.164   6.374  0.00  0.00    +0.001 A 
ATOM     32  C   UNL     1      19.051  10.498   6.740  0.00  0.00    +0.001 A 
ENDBRANCH  17  20
BRANCH  16  19
ATOM     19  C   UNL     1      10.885   5.227   3.543  0.00  0.00    +0.037 A 
ATOM     21  C   UNL     1      12.049   5.984   3.437  0.00  0.00    +0.014 A 
ATOM     22  C   UNL     1      10.539   4.323   2.542  0.00  0.00    +0.014 A 
ATOM     26  C   UNL     1      12.874   5.835   2.323  0.00  0.00    +0.019 A 
ATOM     27  C   UNL     1      11.365   4.174   1.428  0.00  0.00    +0.019 A 
ATOM     28  C   UNL     1      12.532   4.929   1.318  0.00  0.00    +0.052 A 
BRANCH  28  33
ATOM      6  N   UNL     1      14.064   4.656  -0.754  0.00  0.00    -0.191 NA
ATOM     33  C   UNL     1      13.377   4.778   0.175  0.00  0.00    +0.099 C 
ENDBRANCH  28  33
ENDBRANCH  16  19
TORSDOF 3
ENDMDL
MODEL 9
REMARK VINA RESULT:      -6.3     18.936     21.885
REMARK  Name = 11911964
REMARK  3 active torsions:
REMARK  status: ('A' for Active; 'I' for Inactive)
REMARK    1  A    between atoms: C_16  and  C_19
REMARK    2  A    between atoms: C_17  and  C_20
REMARK    3  A    between atoms: C_28  and  C_33
REMARK                            x       y       z     vdW  Elec       q    Type
REMARK                         _______ _______ _______ _____ _____    ______ ____
ROOT
ATOM      2  O   UNL     1      -5.741 -13.121  14.219  0.00  0.00    -0.267 OA
ATOM      3  O   UNL     1      -9.589 -12.744  17.424  0.00  0.00    -0.270 OA
ATOM      4  N   UNL     1      -7.825 -11.661  18.466  0.00  0.00    -0.297 N 
ATOM      5  N   UNL     1      -5.633 -11.912  16.211  0.00  0.00    -0.311 N 
ATOM      7  C   UNL     1      -5.750 -13.033  18.512  0.00  0.00    +0.027 C 
ATOM      8  C   UNL     1      -5.592 -10.581  18.349  0.00  0.00    +0.054 C 
ATOM      9  C   UNL     1      -4.962 -11.818  18.988  0.00  0.00    +0.018 C 
ATOM     10  C   UNL     1      -7.227 -12.913  18.935  0.00  0.00    +0.113 C 
ATOM     11  C   UNL     1      -5.593 -13.157  16.990  0.00  0.00    +0.130 C 
ATOM     12  C   UNL     1      -7.059 -10.451  18.812  0.00  0.00    +0.117 C 
ATOM     13  C   UNL     1      -5.544 -10.663  16.836  0.00  0.00    +0.027 A 
ATOM     14  C   UNL     1      -5.467  -9.543  16.100  0.00  0.00    +0.022 A 
ATOM     15  C   UNL     1      -5.671 -12.042  14.808  0.00  0.00    +0.260 A 
ATOM     16  C   UNL     1      -8.991 -11.698  17.680  0.00  0.00    +0.247 C 
ATOM     17  C   UNL     1      -5.615 -10.765  14.017  0.00  0.00    +0.053 A 
ATOM     18  C   UNL     1      -5.502  -9.597  14.666  0.00  0.00    +0.016 A 
ENDROOT
BRANCH  17  20
ATOM      1  S   UNL     1      -7.184 -10.859  11.803  0.00  0.00    -0.088 S 
ATOM     20  C   UNL     1      -5.669 -10.790  12.590  0.00  0.00    +0.026 A 
ATOM     23  C   UNL     1      -4.628 -10.765  11.687  0.00  0.00    +0.024 A 
ATOM     24  C   UNL     1      -5.066 -10.803  10.319  0.00  0.00    -0.010 A 
ATOM     25  C   UNL     1      -6.461 -10.856  10.237  0.00  0.00    +0.020 A 
ATOM     29  C   UNL     1      -4.324 -10.794   9.114  0.00  0.00    +0.009 A 
ATOM     30  C   UNL     1      -7.124 -10.900   8.995  0.00  0.00    +0.015 A 
ATOM     31  C   UNL     1      -4.979 -10.838   7.880  0.00  0.00    +0.001 A 
ATOM     32  C   UNL     1      -6.365 -10.890   7.824  0.00  0.00    +0.001 A 
ENDBRANCH  17  20
BRANCH  16  19
ATOM     19  C   UNL     1      -9.467 -10.432  17.136  0.00  0.00    +0.037 A 
ATOM     21  C   UNL     1     -10.280  -9.608  17.910  0.00  0.00    +0.014 A 
ATOM     22  C   UNL     1      -9.105 -10.053  15.847  0.00  0.00    +0.014 A 
ATOM     26  C   UNL     1     -10.734  -8.396  17.390  0.00  0.00    +0.019 A 
ATOM     27  C   UNL     1      -9.559  -8.840  15.327  0.00  0.00    +0.019 A 
ATOM     28  C   UNL     1     -10.373  -8.012  16.099  0.00  0.00    +0.052 A 
BRANCH  28  33
ATOM      6  N   UNL     1     -11.220  -5.762  15.133  0.00  0.00    -0.191 NA
ATOM     33  C   UNL     1     -10.840  -6.771  15.565  0.00  0.00    +0.099 C 
ENDBRANCH  28  33
ENDBRANCH  16  19
TORSDOF 3
ENDMDL
MODEL 10
REMARK VINA RESULT:      -6.2      2.936      7.040
REMARK  Name = 11911964
REMARK  3 active torsions:
REMARK  status: ('A' for Active; 'I' for Inactive)
REMARK    1  A    between atoms: C_16  and  C_19
REMARK    2  A    between atoms: C_17  and  C_20
REMARK    3  A    between atoms: C_28  and  C_33
REMARK                            x       y       z     vdW  Elec       q    Type
REMARK                         _______ _______ _______ _____ _____    ______ ____
ROOT
ATOM      2  O   UNL     1     -14.725   8.253  16.520  0.00  0.00    -0.267 OA
ATOM      3  O   UNL     1     -13.218  12.296  19.091  0.00  0.00    -0.270 OA
ATOM      4  N   UNL     1     -11.638  10.663  19.550  0.00  0.00    -0.297 N 
ATOM      5  N   UNL     1     -12.726   8.334  17.722  0.00  0.00    -0.311 N 
ATOM      7  C   UNL     1     -12.660   8.516  20.277  0.00  0.00    +0.027 C 
ATOM      8  C   UNL     1     -10.559   8.498  18.995  0.00  0.00    +0.054 C 
ATOM      9  C   UNL     1     -11.304   7.831  20.150  0.00  0.00    +0.018 C 
ATOM     10  C   UNL     1     -12.478  10.018  20.561  0.00  0.00    +0.113 C 
ATOM     11  C   UNL     1     -13.461   8.263  18.992  0.00  0.00    +0.130 C 
ATOM     12  C   UNL     1     -10.348   9.994  19.309  0.00  0.00    +0.117 C 
ATOM     13  C   UNL     1     -11.328   8.357  17.695  0.00  0.00    +0.027 A 
ATOM     14  C   UNL     1     -10.673   8.305  16.525  0.00  0.00    +0.022 A 
ATOM     15  C   UNL     1     -13.493   8.282  16.541  0.00  0.00    +0.260 A 
ATOM     16  C   UNL     1     -12.128  11.778  18.844  0.00  0.00    +0.247 C 
ATOM     17  C   UNL     1     -12.727   8.258  15.248  0.00  0.00    +0.053 A 
ATOM     18  C   UNL     1     -11.387   8.254  15.280  0.00  0.00    +0.016 A 
ENDROOT
BRANCH  17  20
ATOM      1  S   UNL     1     -13.459   9.632  13.022  0.00  0.00    -0.088 S 
ATOM     20  C   UNL     1     -13.414   8.229  13.995  0.00  0.00    +0.026 A 
ATOM     23  C   UNL     1     -14.090   7.181  13.407  0.00  0.00    +0.024 A 
ATOM     24  C   UNL     1     -14.661   7.521  12.134  0.00  0.00    -0.010 A 
ATOM     25  C   UNL     1     -14.388   8.851  11.797  0.00  0.00    +0.020 A 
ATOM     29  C   UNL     1     -15.418   6.743  11.226  0.00  0.00    +0.009 A 
ATOM     30  C   UNL     1     -14.847   9.414  10.590  0.00  0.00    +0.015 A 
ATOM     31  C   UNL     1     -15.875   7.298  10.028  0.00  0.00    +0.001 A 
ATOM     32  C   UNL     1     -15.591   8.620   9.715  0.00  0.00    +0.001 A 
ENDBRANCH  17  20
BRANCH  16  19
ATOM     19  C   UNL     1     -11.300  12.297  17.763  0.00  0.00    +0.037 A 
ATOM     21  C   UNL     1     -10.343  13.272  18.031  0.00  0.00    +0.014 A 
ATOM     22  C   UNL     1     -11.472  11.815  16.468  0.00  0.00    +0.014 A 
ATOM     26  C   UNL     1      -9.550  13.768  16.996  0.00  0.00    +0.019 A 
ATOM     27  C   UNL     1     -10.678  12.312  15.434  0.00  0.00    +0.019 A 
ATOM     28  C   UNL     1      -9.718  13.287  15.697  0.00  0.00    +0.052 A 
BRANCH  28  33
ATOM      6  N   UNL     1      -8.247  14.212  13.775  0.00  0.00    -0.191 NA
ATOM     33  C   UNL     1      -8.906  13.797  14.637  0.00  0.00    +0.099 C 
ENDBRANCH  28  33
ENDBRANCH  16  19
TORSDOF 3
ENDMDL
