MODEL 1
REMARK VINA RESULT:      -7.6      0.000      0.000
REMARK  Name = 11912792
REMARK  8 active torsions:
REMARK  status: ('A' for Active; 'I' for Inactive)
REMARK    1  A    between atoms: O_4  and  C_28
REMARK    2  A    between atoms: O_6  and  C_34
REMARK    3  A    between atoms: O_6  and  C_35
REMARK    4  A    between atoms: N_7  and  C_13
REMARK    5  A    between atoms: N_8  and  C_14
REMARK    6  A    between atoms: C_17  and  C_19
REMARK    7  A    between atoms: C_20  and  C_28
REMARK    8  A    between atoms: C_21  and  C_27
REMARK                            x       y       z     vdW  Elec       q    Type
REMARK                         _______ _______ _______ _____ _____    ______ ____
ROOT
ATOM      1  O   UNL     1      -6.551 -11.672  10.420  0.00  0.00    -0.370 OA
ATOM      2  O   UNL     1      -5.434  -8.759  10.501  0.00  0.00    -0.370 OA
ATOM     11  C   UNL     1      -5.124  -9.910   9.699  0.00  0.00    +0.171 C 
ATOM     12  C   UNL     1      -5.232 -11.128  10.595  0.00  0.00    +0.171 C 
ATOM     13  C   UNL     1      -6.195 -10.127   8.654  0.00  0.00    +0.130 C 
ATOM     14  C   UNL     1      -5.076 -10.574  11.991  0.00  0.00    +0.130 C 
ATOM     15  C   UNL     1      -7.246 -10.908   9.421  0.00  0.00    +0.185 C 
ATOM     16  C   UNL     1      -5.644  -9.173  11.859  0.00  0.00    +0.185 C 
ENDROOT
BRANCH  14   8
ATOM      8  N   UNL     1      -3.675 -10.513  12.347  0.00  0.00    -0.306 N 
ATOM      9  N   UNL     1      -4.142 -10.604  14.645  0.00  0.00    -0.214 NA
ATOM     10  N   UNL     1      -1.872 -10.470  13.848  0.00  0.00    -0.223 NA
ATOM     18  C   UNL     1      -3.215 -10.530  13.652  0.00  0.00    +0.216 A 
ATOM     21  C   UNL     1      -3.659 -10.617  15.904  0.00  0.00    +0.076 A 
ATOM     23  C   UNL     1      -1.458 -10.488  15.132  0.00  0.00    +0.116 A 
ATOM     24  C   UNL     1      -2.314 -10.561  16.212  0.00  0.00    +0.048 A 
ATOM     37  H   UNL     1      -2.975 -10.511  11.615  0.00  0.00    +0.149 HD
BRANCH  21  27
ATOM     27  C   UNL     1      -4.658 -10.698  16.943  0.00  0.00    +0.001 A 
ATOM     30  C   UNL     1      -4.382 -11.380  18.130  0.00  0.00    +0.013 A 
ATOM     31  C   UNL     1      -5.904 -10.094  16.764  0.00  0.00    +0.013 A 
ATOM     32  C   UNL     1      -5.348 -11.458  19.134  0.00  0.00    +0.046 A 
ATOM     33  C   UNL     1      -6.871 -10.173  17.767  0.00  0.00    +0.046 A 
ATOM     34  C   UNL     1      -6.593 -10.855  18.952  0.00  0.00    +0.120 A 
BRANCH  34   6
ATOM      6  O   UNL     1      -7.536 -10.932  19.929  0.00  0.00    -0.495 OA
ATOM     35  C   UNL     1      -8.893 -11.072  19.513  0.00  0.00    +0.277 C 
ENDBRANCH  34   6
ENDBRANCH  21  27
ENDBRANCH  14   8
BRANCH  13   7
ATOM      3  O   UNL     1      -6.297  -9.384   5.881  0.00  0.00    -0.270 OA
ATOM      7  N   UNL     1      -5.689 -10.890   7.537  0.00  0.00    -0.304 N 
ATOM     17  C   UNL     1      -5.784 -10.446   6.226  0.00  0.00    +0.245 C 
ATOM     36  H   UNL     1      -5.214 -11.767   7.727  0.00  0.00    +0.149 HD
BRANCH  17  19
ATOM     19  C   UNL     1      -5.239 -11.359   5.189  0.00  0.00    +0.051 A 
ATOM     20  C   UNL     1      -5.999 -11.692   4.086  0.00  0.00    +0.071 A 
ATOM     22  C   UNL     1      -3.963 -11.851   5.375  0.00  0.00    +0.014 A 
ATOM     25  C   UNL     1      -5.461 -12.551   3.128  0.00  0.00    +0.016 A 
ATOM     26  C   UNL     1      -3.423 -12.710   4.417  0.00  0.00    +0.001 A 
ATOM     29  C   UNL     1      -4.173 -13.060   3.294  0.00  0.00    +0.001 A 
BRANCH  20  28
ATOM      5  O   UNL     1      -8.376 -11.663   4.361  0.00  0.00    -0.245 OA
ATOM     28  C   UNL     1      -7.348 -11.176   3.885  0.00  0.00    +0.338 C 
BRANCH  28   4
ATOM      4  O   UNL     1      -7.365 -10.068   3.096  0.00  0.00    -0.477 OA
ATOM     38  H   UNL     1      -7.428  -9.244   3.625  0.00  0.00    +0.295 HD
ENDBRANCH  28   4
ENDBRANCH  20  28
ENDBRANCH  17  19
ENDBRANCH  13   7
TORSDOF 7
ENDMDL
MODEL 2
REMARK VINA RESULT:      -7.4     24.510     26.562
REMARK  Name = 11912792
REMARK  8 active torsions:
REMARK  status: ('A' for Active; 'I' for Inactive)
REMARK    1  A    between atoms: O_4  and  C_28
REMARK    2  A    between atoms: O_6  and  C_34
REMARK    3  A    between atoms: O_6  and  C_35
REMARK    4  A    between atoms: N_7  and  C_13
REMARK    5  A    between atoms: N_8  and  C_14
REMARK    6  A    between atoms: C_17  and  C_19
REMARK    7  A    between atoms: C_20  and  C_28
REMARK    8  A    between atoms: C_21  and  C_27
REMARK                            x       y       z     vdW  Elec       q    Type
REMARK                         _______ _______ _______ _____ _____    ______ ____
ROOT
ATOM      1  O   UNL     1      12.459   4.195   2.278  0.00  0.00    -0.370 OA
ATOM      2  O   UNL     1      12.746   5.844  -0.357  0.00  0.00    -0.370 OA
ATOM     11  C   UNL     1      13.065   6.120   1.018  0.00  0.00    +0.171 C 
ATOM     12  C   UNL     1      11.981   5.487   1.869  0.00  0.00    +0.171 C 
ATOM     13  C   UNL     1      14.324   5.388   1.422  0.00  0.00    +0.130 C 
ATOM     14  C   UNL     1      10.811   5.339   0.927  0.00  0.00    +0.130 C 
ATOM     15  C   UNL     1      13.797   4.012   1.789  0.00  0.00    +0.185 C 
ATOM     16  C   UNL     1      11.488   5.155  -0.419  0.00  0.00    +0.185 C 
ENDROOT
BRANCH  14   8
ATOM      8  N   UNL     1      10.018   6.549   0.926  0.00  0.00    -0.306 N 
ATOM      9  N   UNL     1       9.642   6.435   3.240  0.00  0.00    -0.214 NA
ATOM     10  N   UNL     1       8.725   8.233   1.924  0.00  0.00    -0.223 NA
ATOM     18  C   UNL     1       9.444   7.089   2.063  0.00  0.00    +0.216 A 
ATOM     21  C   UNL     1       9.068   6.989   4.327  0.00  0.00    +0.076 A 
ATOM     23  C   UNL     1       8.179   8.732   3.053  0.00  0.00    +0.116 A 
ATOM     24  C   UNL     1       8.319   8.147   4.295  0.00  0.00    +0.048 A 
ATOM     37  H   UNL     1       9.909   7.072   0.065  0.00  0.00    +0.149 HD
BRANCH  21  27
ATOM     27  C   UNL     1       9.291   6.279   5.565  0.00  0.00    +0.001 A 
ATOM     30  C   UNL     1       9.149   6.941   6.787  0.00  0.00    +0.013 A 
ATOM     31  C   UNL     1       9.651   4.931   5.545  0.00  0.00    +0.013 A 
ATOM     32  C   UNL     1       9.365   6.256   7.983  0.00  0.00    +0.046 A 
ATOM     33  C   UNL     1       9.867   4.246   6.740  0.00  0.00    +0.046 A 
ATOM     34  C   UNL     1       9.724   4.908   7.960  0.00  0.00    +0.120 A 
BRANCH  34   6
ATOM      6  O   UNL     1       9.937   4.240   9.126  0.00  0.00    -0.495 OA
ATOM     35  C   UNL     1       9.047   4.518  10.206  0.00  0.00    +0.277 C 
ENDBRANCH  34   6
ENDBRANCH  21  27
ENDBRANCH  14   8
BRANCH  13   7
ATOM      3  O   UNL     1      15.338   8.072   1.534  0.00  0.00    -0.270 OA
ATOM      7  N   UNL     1      14.958   6.023   2.552  0.00  0.00    -0.304 N 
ATOM     17  C   UNL     1      15.418   7.332   2.511  0.00  0.00    +0.245 C 
ATOM     36  H   UNL     1      15.037   5.501   3.420  0.00  0.00    +0.149 HD
BRANCH  17  19
ATOM     19  C   UNL     1      16.071   7.831   3.748  0.00  0.00    +0.051 A 
ATOM     20  C   UNL     1      15.315   8.115   4.868  0.00  0.00    +0.071 A 
ATOM     22  C   UNL     1      17.442   7.995   3.728  0.00  0.00    +0.014 A 
ATOM     25  C   UNL     1      15.957   8.582   6.015  0.00  0.00    +0.016 A 
ATOM     26  C   UNL     1      18.084   8.461   4.876  0.00  0.00    +0.001 A 
ATOM     29  C   UNL     1      17.341   8.755   6.019  0.00  0.00    +0.001 A 
BRANCH  20  28
ATOM      5  O   UNL     1      13.041   8.823   4.637  0.00  0.00    -0.245 OA
ATOM     28  C   UNL     1      13.868   7.944   4.894  0.00  0.00    +0.338 C 
BRANCH  28   4
ATOM      4  O   UNL     1      13.503   6.681   5.241  0.00  0.00    -0.477 OA
ATOM     38  H   UNL     1      13.535   6.545   6.211  0.00  0.00    +0.295 HD
ENDBRANCH  28   4
ENDBRANCH  20  28
ENDBRANCH  17  19
ENDBRANCH  13   7
TORSDOF 7
ENDMDL
MODEL 3
REMARK VINA RESULT:      -7.4      2.810     11.415
REMARK  Name = 11912792
REMARK  8 active torsions:
REMARK  status: ('A' for Active; 'I' for Inactive)
REMARK    1  A    between atoms: O_4  and  C_28
REMARK    2  A    between atoms: O_6  and  C_34
REMARK    3  A    between atoms: O_6  and  C_35
REMARK    4  A    between atoms: N_7  and  C_13
REMARK    5  A    between atoms: N_8  and  C_14
REMARK    6  A    between atoms: C_17  and  C_19
REMARK    7  A    between atoms: C_20  and  C_28
REMARK    8  A    between atoms: C_21  and  C_27
REMARK                            x       y       z     vdW  Elec       q    Type
REMARK                         _______ _______ _______ _____ _____    ______ ____
ROOT
ATOM      1  O   UNL     1      -4.253 -13.216  13.025  0.00  0.00    -0.370 OA
ATOM      2  O   UNL     1      -2.817 -10.459  12.745  0.00  0.00    -0.370 OA
ATOM     11  C   UNL     1      -3.965 -10.900  13.489  0.00  0.00    +0.171 C 
ATOM     12  C   UNL     1      -4.701 -11.909  12.629  0.00  0.00    +0.171 C 
ATOM     13  C   UNL     1      -3.532 -11.696  14.699  0.00  0.00    +0.130 C 
ATOM     14  C   UNL     1      -4.241 -11.601  11.223  0.00  0.00    +0.130 C 
ATOM     15  C   UNL     1      -3.335 -13.086  14.122  0.00  0.00    +0.185 C 
ATOM     16  C   UNL     1      -2.838 -11.063  11.443  0.00  0.00    +0.185 C 
ENDROOT
BRANCH  14   8
ATOM      8  N   UNL     1      -5.082 -10.581  10.638  0.00  0.00    -0.306 N 
ATOM      9  N   UNL     1      -4.687 -11.351   8.457  0.00  0.00    -0.214 NA
ATOM     10  N   UNL     1      -6.119  -9.454   8.860  0.00  0.00    -0.223 NA
ATOM     18  C   UNL     1      -5.303 -10.458   9.278  0.00  0.00    +0.216 A 
ATOM     21  C   UNL     1      -4.924 -11.201   7.138  0.00  0.00    +0.076 A 
ATOM     23  C   UNL     1      -6.312  -9.364   7.527  0.00  0.00    +0.116 A 
ATOM     24  C   UNL     1      -5.735 -10.218   6.609  0.00  0.00    +0.048 A 
ATOM     37  H   UNL     1      -5.587  -9.944  11.244  0.00  0.00    +0.149 HD
BRANCH  21  27
ATOM     27  C   UNL     1      -4.262 -12.160   6.284  0.00  0.00    +0.001 A 
ATOM     30  C   UNL     1      -3.631 -13.275   6.840  0.00  0.00    +0.013 A 
ATOM     31  C   UNL     1      -4.250 -11.974   4.901  0.00  0.00    +0.013 A 
ATOM     32  C   UNL     1      -2.991 -14.201   6.015  0.00  0.00    +0.046 A 
ATOM     33  C   UNL     1      -3.610 -12.899   4.076  0.00  0.00    +0.046 A 
ATOM     34  C   UNL     1      -2.980 -14.013   4.633  0.00  0.00    +0.120 A 
BRANCH  34   6
ATOM      6  O   UNL     1      -2.354 -14.914   3.829  0.00  0.00    -0.495 OA
ATOM     35  C   UNL     1      -0.967 -14.703   3.572  0.00  0.00    +0.277 C 
ENDBRANCH  34   6
ENDBRANCH  21  27
ENDBRANCH  14   8
BRANCH  13   7
ATOM      3  O   UNL     1      -3.749  -9.873  16.907  0.00  0.00    -0.270 OA
ATOM      7  N   UNL     1      -4.554 -11.694  15.719  0.00  0.00    -0.304 N 
ATOM     17  C   UNL     1      -4.576 -10.768  16.752  0.00  0.00    +0.245 C 
ATOM     36  H   UNL     1      -5.304 -12.376  15.653  0.00  0.00    +0.149 HD
BRANCH  17  19
ATOM     19  C   UNL     1      -5.679 -10.916  17.735  0.00  0.00    +0.051 A 
ATOM     20  C   UNL     1      -5.526 -11.739  18.834  0.00  0.00    +0.071 A 
ATOM     22  C   UNL     1      -6.842 -10.208  17.506  0.00  0.00    +0.014 A 
ATOM     25  C   UNL     1      -6.579 -11.857  19.740  0.00  0.00    +0.016 A 
ATOM     26  C   UNL     1      -7.895 -10.326  18.413  0.00  0.00    +0.001 A 
ATOM     29  C   UNL     1      -7.763 -11.151  19.531  0.00  0.00    +0.001 A 
BRANCH  20  28
ATOM      5  O   UNL     1      -3.386 -12.135  19.829  0.00  0.00    -0.245 OA
ATOM     28  C   UNL     1      -4.301 -12.489  19.080  0.00  0.00    +0.338 C 
BRANCH  28   4
ATOM      4  O   UNL     1      -4.260 -13.655  18.383  0.00  0.00    -0.477 OA
ATOM     38  H   UNL     1      -4.627 -13.553  17.479  0.00  0.00    +0.295 HD
ENDBRANCH  28   4
ENDBRANCH  20  28
ENDBRANCH  17  19
ENDBRANCH  13   7
TORSDOF 7
ENDMDL
MODEL 4
REMARK VINA RESULT:      -7.2     23.120     29.707
REMARK  Name = 11912792
REMARK  8 active torsions:
REMARK  status: ('A' for Active; 'I' for Inactive)
REMARK    1  A    between atoms: O_4  and  C_28
REMARK    2  A    between atoms: O_6  and  C_34
REMARK    3  A    between atoms: O_6  and  C_35
REMARK    4  A    between atoms: N_7  and  C_13
REMARK    5  A    between atoms: N_8  and  C_14
REMARK    6  A    between atoms: C_17  and  C_19
REMARK    7  A    between atoms: C_20  and  C_28
REMARK    8  A    between atoms: C_21  and  C_27
REMARK                            x       y       z     vdW  Elec       q    Type
REMARK                         _______ _______ _______ _____ _____    ______ ____
ROOT
ATOM      1  O   UNL     1     -14.009   6.936  32.080  0.00  0.00    -0.370 OA
ATOM      2  O   UNL     1     -15.893   5.910  34.347  0.00  0.00    -0.370 OA
ATOM     11  C   UNL     1     -14.470   6.089  34.255  0.00  0.00    +0.171 C 
ATOM     12  C   UNL     1     -14.058   5.719  32.844  0.00  0.00    +0.171 C 
ATOM     13  C   UNL     1     -14.117   7.555  34.369  0.00  0.00    +0.130 C 
ATOM     14  C   UNL     1     -15.179   4.836  32.351  0.00  0.00    +0.130 C 
ATOM     15  C   UNL     1     -14.301   8.045  32.944  0.00  0.00    +0.185 C 
ATOM     16  C   UNL     1     -16.381   5.369  33.109  0.00  0.00    +0.185 C 
ENDROOT
BRANCH  14   8
ATOM      8  N   UNL     1     -14.926   3.461  32.720  0.00  0.00    -0.306 N 
ATOM      9  N   UNL     1     -15.486   2.669  30.583  0.00  0.00    -0.214 NA
ATOM     10  N   UNL     1     -14.801   1.151  32.324  0.00  0.00    -0.223 NA
ATOM     18  C   UNL     1     -15.075   2.395  31.850  0.00  0.00    +0.216 A 
ATOM     21  C   UNL     1     -15.621   1.607  29.762  0.00  0.00    +0.076 A 
ATOM     23  C   UNL     1     -14.957   0.135  31.450  0.00  0.00    +0.116 A 
ATOM     24  C   UNL     1     -15.369   0.305  30.143  0.00  0.00    +0.048 A 
ATOM     37  H   UNL     1     -14.569   3.250  33.645  0.00  0.00    +0.149 HD
BRANCH  21  27
ATOM     27  C   UNL     1     -16.057   1.921  28.422  0.00  0.00    +0.001 A 
ATOM     30  C   UNL     1     -15.898   3.213  27.917  0.00  0.00    +0.013 A 
ATOM     31  C   UNL     1     -16.638   0.933  27.626  0.00  0.00    +0.013 A 
ATOM     32  C   UNL     1     -16.319   3.516  26.622  0.00  0.00    +0.046 A 
ATOM     33  C   UNL     1     -17.060   1.235  26.331  0.00  0.00    +0.046 A 
ATOM     34  C   UNL     1     -16.900   2.527  25.829  0.00  0.00    +0.120 A 
BRANCH  34   6
ATOM      6  O   UNL     1     -17.313   2.822  24.566  0.00  0.00    -0.495 OA
ATOM     35  C   UNL     1     -16.308   3.193  23.624  0.00  0.00    +0.277 C 
ENDBRANCH  34   6
ENDBRANCH  21  27
ENDBRANCH  14   8
BRANCH  13   7
ATOM      3  O   UNL     1     -13.143   9.577  36.161  0.00  0.00    -0.270 OA
ATOM      7  N   UNL     1     -12.754   7.732  34.811  0.00  0.00    -0.304 N 
ATOM     17  C   UNL     1     -12.378   8.743  35.683  0.00  0.00    +0.245 C 
ATOM     36  H   UNL     1     -12.054   7.066  34.497  0.00  0.00    +0.149 HD
BRANCH  17  19
ATOM     19  C   UNL     1     -10.933   8.806  36.021  0.00  0.00    +0.051 A 
ATOM     20  C   UNL     1     -10.069   9.553  35.244  0.00  0.00    +0.071 A 
ATOM     22  C   UNL     1     -10.501   8.099  37.125  0.00  0.00    +0.014 A 
ATOM     25  C   UNL     1      -8.718   9.594  35.587  0.00  0.00    +0.016 A 
ATOM     26  C   UNL     1      -9.149   8.140  37.468  0.00  0.00    +0.001 A 
ATOM     29  C   UNL     1      -8.258   8.888  36.698  0.00  0.00    +0.001 A 
BRANCH  20  28
ATOM      5  O   UNL     1     -10.774  11.508  34.059  0.00  0.00    -0.245 OA
ATOM     28  C   UNL     1     -10.520  10.301  34.078  0.00  0.00    +0.338 C 
BRANCH  28   4
ATOM      4  O   UNL     1     -10.637   9.516  32.974  0.00  0.00    -0.477 OA
ATOM     38  H   UNL     1     -11.418   8.925  33.028  0.00  0.00    +0.295 HD
ENDBRANCH  28   4
ENDBRANCH  20  28
ENDBRANCH  17  19
ENDBRANCH  13   7
TORSDOF 7
ENDMDL
MODEL 5
REMARK VINA RESULT:      -7.1     22.844     27.094
REMARK  Name = 11912792
REMARK  8 active torsions:
REMARK  status: ('A' for Active; 'I' for Inactive)
REMARK    1  A    between atoms: O_4  and  C_28
REMARK    2  A    between atoms: O_6  and  C_34
REMARK    3  A    between atoms: O_6  and  C_35
REMARK    4  A    between atoms: N_7  and  C_13
REMARK    5  A    between atoms: N_8  and  C_14
REMARK    6  A    between atoms: C_17  and  C_19
REMARK    7  A    between atoms: C_20  and  C_28
REMARK    8  A    between atoms: C_21  and  C_27
REMARK                            x       y       z     vdW  Elec       q    Type
REMARK                         _______ _______ _______ _____ _____    ______ ____
ROOT
ATOM      1  O   UNL     1      18.263 -11.169  -1.314  0.00  0.00    -0.370 OA
ATOM      2  O   UNL     1      21.108 -10.253  -0.415  0.00  0.00    -0.370 OA
ATOM     11  C   UNL     1      19.836 -10.316   0.253  0.00  0.00    +0.171 C 
ATOM     12  C   UNL     1      18.773  -9.945  -0.763  0.00  0.00    +0.171 C 
ATOM     13  C   UNL     1      19.508 -11.745   0.623  0.00  0.00    +0.130 C 
ATOM     14  C   UNL     1      19.526  -9.168  -1.817  0.00  0.00    +0.130 C 
ATOM     15  C   UNL     1      18.894 -12.280  -0.658  0.00  0.00    +0.185 C 
ATOM     16  C   UNL     1      20.912  -9.782  -1.757  0.00  0.00    +0.185 C 
ENDROOT
BRANCH  14   8
ATOM      8  N   UNL     1      19.583  -7.769  -1.457  0.00  0.00    -0.306 N 
ATOM      9  N   UNL     1      17.701  -7.243  -2.757  0.00  0.00    -0.214 NA
ATOM     10  N   UNL     1      18.850  -5.540  -1.498  0.00  0.00    -0.223 NA
ATOM     18  C   UNL     1      18.685  -6.822  -1.917  0.00  0.00    +0.216 A 
ATOM     21  C   UNL     1      16.844  -6.295  -3.186  0.00  0.00    +0.076 A 
ATOM     23  C   UNL     1      17.957  -4.643  -1.966  0.00  0.00    +0.116 A 
ATOM     24  C   UNL     1      16.923  -4.966  -2.821  0.00  0.00    +0.048 A 
ATOM     37  H   UNL     1      20.279  -7.454  -0.791  0.00  0.00    +0.149 HD
BRANCH  21  27
ATOM     27  C   UNL     1      15.807  -6.763  -4.075  0.00  0.00    +0.001 A 
ATOM     30  C   UNL     1      14.794  -5.895  -4.489  0.00  0.00    +0.013 A 
ATOM     31  C   UNL     1      15.813  -8.085  -4.522  0.00  0.00    +0.013 A 
ATOM     32  C   UNL     1      13.792  -6.348  -5.347  0.00  0.00    +0.046 A 
ATOM     33  C   UNL     1      14.811  -8.539  -5.380  0.00  0.00    +0.046 A 
ATOM     34  C   UNL     1      13.800  -7.670  -5.793  0.00  0.00    +0.120 A 
BRANCH  34   6
ATOM      6  O   UNL     1      12.821  -8.113  -6.628  0.00  0.00    -0.495 OA
ATOM     35  C   UNL     1      12.340  -7.196  -7.610  0.00  0.00    +0.277 C 
ENDBRANCH  34   6
ENDBRANCH  21  27
ENDBRANCH  14   8
BRANCH  13   7
ATOM      3  O   UNL     1      18.749 -14.073   2.123  0.00  0.00    -0.270 OA
ATOM      7  N   UNL     1      18.565 -11.798   1.715  0.00  0.00    -0.304 N 
ATOM     17  C   UNL     1      18.262 -12.976   2.382  0.00  0.00    +0.245 C 
ATOM     36  H   UNL     1      18.137 -10.931   2.027  0.00  0.00    +0.149 HD
BRANCH  17  19
ATOM     19  C   UNL     1      17.252 -12.869   3.466  0.00  0.00    +0.051 A 
ATOM     20  C   UNL     1      15.921 -12.665   3.160  0.00  0.00    +0.071 A 
ATOM     22  C   UNL     1      17.696 -12.979   4.769  0.00  0.00    +0.014 A 
ATOM     25  C   UNL     1      14.996 -12.569   4.199  0.00  0.00    +0.016 A 
ATOM     26  C   UNL     1      16.770 -12.883   5.809  0.00  0.00    +0.001 A 
ATOM     29  C   UNL     1      15.420 -12.678   5.523  0.00  0.00    +0.001 A 
BRANCH  20  28
ATOM      5  O   UNL     1      15.081 -13.486   1.075  0.00  0.00    -0.245 OA
ATOM     28  C   UNL     1      15.448 -12.548   1.786  0.00  0.00    +0.338 C 
BRANCH  28   4
ATOM      4  O   UNL     1      15.448 -11.260   1.349  0.00  0.00    -0.477 OA
ATOM     38  H   UNL     1      14.977 -10.663   1.968  0.00  0.00    +0.295 HD
ENDBRANCH  28   4
ENDBRANCH  20  28
ENDBRANCH  17  19
ENDBRANCH  13   7
TORSDOF 7
ENDMDL
MODEL 6
REMARK VINA RESULT:      -7.1     26.507     29.008
REMARK  Name = 11912792
REMARK  8 active torsions:
REMARK  status: ('A' for Active; 'I' for Inactive)
REMARK    1  A    between atoms: O_4  and  C_28
REMARK    2  A    between atoms: O_6  and  C_34
REMARK    3  A    between atoms: O_6  and  C_35
REMARK    4  A    between atoms: N_7  and  C_13
REMARK    5  A    between atoms: N_8  and  C_14
REMARK    6  A    between atoms: C_17  and  C_19
REMARK    7  A    between atoms: C_20  and  C_28
REMARK    8  A    between atoms: C_21  and  C_27
REMARK                            x       y       z     vdW  Elec       q    Type
REMARK                         _______ _______ _______ _____ _____    ______ ____
ROOT
ATOM      1  O   UNL     1      14.142   9.696   4.265  0.00  0.00    -0.370 OA
ATOM      2  O   UNL     1      13.748  10.991   7.077  0.00  0.00    -0.370 OA
ATOM     11  C   UNL     1      14.594   9.936   6.589  0.00  0.00    +0.171 C 
ATOM     12  C   UNL     1      13.800   9.162   5.555  0.00  0.00    +0.171 C 
ATOM     13  C   UNL     1      15.752  10.512   5.806  0.00  0.00    +0.130 C 
ATOM     14  C   UNL     1      12.360   9.474   5.886  0.00  0.00    +0.130 C 
ATOM     15  C   UNL     1      15.148  10.707   4.427  0.00  0.00    +0.185 C 
ATOM     16  C   UNL     1      12.449  10.869   6.478  0.00  0.00    +0.185 C 
ENDROOT
BRANCH  14   8
ATOM      8  N   UNL     1      11.864   8.543   6.875  0.00  0.00    -0.306 N 
ATOM      9  N   UNL     1      11.131   7.027   5.240  0.00  0.00    -0.214 NA
ATOM     10  N   UNL     1      10.843   6.553   7.585  0.00  0.00    -0.223 NA
ATOM     18  C   UNL     1      11.262   7.338   6.558  0.00  0.00    +0.216 A 
ATOM     21  C   UNL     1      10.539   5.846   4.968  0.00  0.00    +0.076 A 
ATOM     23  C   UNL     1      10.260   5.386   7.240  0.00  0.00    +0.116 A 
ATOM     24  C   UNL     1      10.079   4.976   5.935  0.00  0.00    +0.048 A 
ATOM     37  H   UNL     1      12.004   8.740   7.859  0.00  0.00    +0.149 HD
BRANCH  21  27
ATOM     27  C   UNL     1      10.412   5.534   3.563  0.00  0.00    +0.001 A 
ATOM     30  C   UNL     1      10.723   4.255   3.099  0.00  0.00    +0.013 A 
ATOM     31  C   UNL     1       9.979   6.512   2.666  0.00  0.00    +0.013 A 
ATOM     32  C   UNL     1      10.600   3.953   1.742  0.00  0.00    +0.046 A 
ATOM     33  C   UNL     1       9.857   6.211   1.309  0.00  0.00    +0.046 A 
ATOM     34  C   UNL     1      10.167   4.932   0.847  0.00  0.00    +0.120 A 
BRANCH  34   6
ATOM      6  O   UNL     1      10.050   4.640  -0.477  0.00  0.00    -0.495 OA
ATOM     35  C   UNL     1      11.257   4.408  -1.201  0.00  0.00    +0.277 C 
ENDBRANCH  34   6
ENDBRANCH  21  27
ENDBRANCH  14   8
BRANCH  13   7
ATOM      3  O   UNL     1      18.499  11.164   5.280  0.00  0.00    -0.270 OA
ATOM      7  N   UNL     1      16.864   9.592   5.764  0.00  0.00    -0.304 N 
ATOM     17  C   UNL     1      18.163  10.003   5.501  0.00  0.00    +0.245 C 
ATOM     36  H   UNL     1      16.689   8.613   5.971  0.00  0.00    +0.149 HD
BRANCH  17  19
ATOM     19  C   UNL     1      19.190   8.931   5.467  0.00  0.00    +0.051 A 
ATOM     20  C   UNL     1      19.342   8.148   4.339  0.00  0.00    +0.071 A 
ATOM     22  C   UNL     1      19.971   8.755   6.591  0.00  0.00    +0.014 A 
ATOM     25  C   UNL     1      20.315   7.149   4.337  0.00  0.00    +0.016 A 
ATOM     26  C   UNL     1      20.945   7.756   6.589  0.00  0.00    +0.001 A 
ATOM     29  C   UNL     1      21.117   6.953   5.461  0.00  0.00    +0.001 A 
BRANCH  20  28
ATOM      5  O   UNL     1      18.846   8.968   2.147  0.00  0.00    -0.245 OA
ATOM     28  C   UNL     1      18.519   8.328   3.150  0.00  0.00    +0.338 C 
BRANCH  28   4
ATOM      4  O   UNL     1      17.316   7.703   3.254  0.00  0.00    -0.477 OA
ATOM     38  H   UNL     1      16.594   8.233   2.853  0.00  0.00    +0.295 HD
ENDBRANCH  28   4
ENDBRANCH  20  28
ENDBRANCH  17  19
ENDBRANCH  13   7
TORSDOF 7
ENDMDL
MODEL 7
REMARK VINA RESULT:      -7.1      7.960      9.130
REMARK  Name = 11912792
REMARK  8 active torsions:
REMARK  status: ('A' for Active; 'I' for Inactive)
REMARK    1  A    between atoms: O_4  and  C_28
REMARK    2  A    between atoms: O_6  and  C_34
REMARK    3  A    between atoms: O_6  and  C_35
REMARK    4  A    between atoms: N_7  and  C_13
REMARK    5  A    between atoms: N_8  and  C_14
REMARK    6  A    between atoms: C_17  and  C_19
REMARK    7  A    between atoms: C_20  and  C_28
REMARK    8  A    between atoms: C_21  and  C_27
REMARK                            x       y       z     vdW  Elec       q    Type
REMARK                         _______ _______ _______ _____ _____    ______ ____
ROOT
ATOM      1  O   UNL     1     -12.592  -8.025  14.592  0.00  0.00    -0.370 OA
ATOM      2  O   UNL     1     -11.118  -6.054  16.510  0.00  0.00    -0.370 OA
ATOM     11  C   UNL     1     -11.183  -6.171  15.079  0.00  0.00    +0.171 C 
ATOM     12  C   UNL     1     -11.214  -7.650  14.748  0.00  0.00    +0.171 C 
ATOM     13  C   UNL     1     -12.510  -5.653  14.570  0.00  0.00    +0.130 C 
ATOM     14  C   UNL     1     -10.625  -8.315  15.969  0.00  0.00    +0.130 C 
ATOM     15  C   UNL     1     -13.417  -6.859  14.740  0.00  0.00    +0.185 C 
ATOM     16  C   UNL     1     -11.018  -7.365  17.087  0.00  0.00    +0.185 C 
ENDROOT
BRANCH  14   8
ATOM      8  N   UNL     1      -9.185  -8.381  15.853  0.00  0.00    -0.306 N 
ATOM      9  N   UNL     1      -9.023 -10.084  17.460  0.00  0.00    -0.214 NA
ATOM     10  N   UNL     1      -7.054  -9.213  16.377  0.00  0.00    -0.223 NA
ATOM     18  C   UNL     1      -8.397  -9.251  16.584  0.00  0.00    +0.216 A 
ATOM     21  C   UNL     1      -8.225 -10.919  18.156  0.00  0.00    +0.076 A 
ATOM     23  C   UNL     1      -6.317 -10.076  17.106  0.00  0.00    +0.116 A 
ATOM     24  C   UNL     1      -6.852 -10.960  18.020  0.00  0.00    +0.048 A 
ATOM     37  H   UNL     1      -8.714  -7.803  15.167  0.00  0.00    +0.149 HD
BRANCH  21  27
ATOM     27  C   UNL     1      -8.910 -11.794  19.078  0.00  0.00    +0.001 A 
ATOM     30  C   UNL     1     -10.198 -11.481  19.516  0.00  0.00    +0.013 A 
ATOM     31  C   UNL     1      -8.286 -12.956  19.534  0.00  0.00    +0.013 A 
ATOM     32  C   UNL     1     -10.860 -12.326  20.407  0.00  0.00    +0.046 A 
ATOM     33  C   UNL     1      -8.947 -13.802  20.425  0.00  0.00    +0.046 A 
ATOM     34  C   UNL     1     -10.234 -13.487  20.862  0.00  0.00    +0.120 A 
BRANCH  34   6
ATOM      6  O   UNL     1     -10.878 -14.311  21.732  0.00  0.00    -0.495 OA
ATOM     35  C   UNL     1     -12.037 -13.792  22.383  0.00  0.00    +0.277 C 
ENDBRANCH  34   6
ENDBRANCH  21  27
ENDBRANCH  14   8
BRANCH  13   7
ATOM      3  O   UNL     1     -13.697  -3.332  13.366  0.00  0.00    -0.270 OA
ATOM      7  N   UNL     1     -12.419  -5.259  13.184  0.00  0.00    -0.304 N 
ATOM     17  C   UNL     1     -13.030  -4.114  12.694  0.00  0.00    +0.245 C 
ATOM     36  H   UNL     1     -11.856  -5.824  12.556  0.00  0.00    +0.149 HD
BRANCH  17  19
ATOM     19  C   UNL     1     -12.865  -3.861  11.239  0.00  0.00    +0.051 A 
ATOM     20  C   UNL     1     -13.956  -3.915  10.395  0.00  0.00    +0.071 A 
ATOM     22  C   UNL     1     -11.595  -3.574  10.779  0.00  0.00    +0.014 A 
ATOM     25  C   UNL     1     -13.769  -3.672   9.034  0.00  0.00    +0.016 A 
ATOM     26  C   UNL     1     -11.408  -3.331   9.417  0.00  0.00    +0.001 A 
ATOM     29  C   UNL     1     -12.496  -3.380   8.546  0.00  0.00    +0.001 A 
BRANCH  20  28
ATOM      5  O   UNL     1     -16.289  -3.499  10.722  0.00  0.00    -0.245 OA
ATOM     28  C   UNL     1     -15.298  -4.217  10.876  0.00  0.00    +0.338 C 
BRANCH  28   4
ATOM      4  O   UNL     1     -15.356  -5.406  11.532  0.00  0.00    -0.477 OA
ATOM     38  H   UNL     1     -15.694  -5.303  12.447  0.00  0.00    +0.295 HD
ENDBRANCH  28   4
ENDBRANCH  20  28
ENDBRANCH  17  19
ENDBRANCH  13   7
TORSDOF 7
ENDMDL
MODEL 8
REMARK VINA RESULT:      -7.0      2.298     11.089
REMARK  Name = 11912792
REMARK  8 active torsions:
REMARK  status: ('A' for Active; 'I' for Inactive)
REMARK    1  A    between atoms: O_4  and  C_28
REMARK    2  A    between atoms: O_6  and  C_34
REMARK    3  A    between atoms: O_6  and  C_35
REMARK    4  A    between atoms: N_7  and  C_13
REMARK    5  A    between atoms: N_8  and  C_14
REMARK    6  A    between atoms: C_17  and  C_19
REMARK    7  A    between atoms: C_20  and  C_28
REMARK    8  A    between atoms: C_21  and  C_27
REMARK                            x       y       z     vdW  Elec       q    Type
REMARK                         _______ _______ _______ _____ _____    ______ ____
ROOT
ATOM      1  O   UNL     1      -4.054 -13.007  12.296  0.00  0.00    -0.370 OA
ATOM      2  O   UNL     1      -2.667 -10.243  11.876  0.00  0.00    -0.370 OA
ATOM     11  C   UNL     1      -3.626 -10.728  12.830  0.00  0.00    +0.171 C 
ATOM     12  C   UNL     1      -4.555 -11.675  12.096  0.00  0.00    +0.171 C 
ATOM     13  C   UNL     1      -2.946 -11.605  13.858  0.00  0.00    +0.130 C 
ATOM     14  C   UNL     1      -4.418 -11.276  10.646  0.00  0.00    +0.130 C 
ATOM     15  C   UNL     1      -2.910 -12.954  13.163  0.00  0.00    +0.185 C 
ATOM     16  C   UNL     1      -2.993 -10.759  10.576  0.00  0.00    +0.185 C 
ENDROOT
BRANCH  14   8
ATOM      8  N   UNL     1      -5.350 -10.215  10.333  0.00  0.00    -0.306 N 
ATOM      9  N   UNL     1      -5.325 -10.720   8.041  0.00  0.00    -0.214 NA
ATOM     10  N   UNL     1      -6.677  -8.918   8.896  0.00  0.00    -0.223 NA
ATOM     18  C   UNL     1      -5.798  -9.942   9.052  0.00  0.00    +0.216 A 
ATOM     21  C   UNL     1      -5.781 -10.426   6.806  0.00  0.00    +0.076 A 
ATOM     23  C   UNL     1      -7.092  -8.680   7.635  0.00  0.00    +0.116 A 
ATOM     24  C   UNL     1      -6.674  -9.408   6.540  0.00  0.00    +0.048 A 
ATOM     37  H   UNL     1      -5.749  -9.665  11.084  0.00  0.00    +0.149 HD
BRANCH  21  27
ATOM     27  C   UNL     1      -5.268 -11.264   5.748  0.00  0.00    +0.001 A 
ATOM     30  C   UNL     1      -4.030 -11.894   5.891  0.00  0.00    +0.013 A 
ATOM     31  C   UNL     1      -6.007 -11.446   4.578  0.00  0.00    +0.013 A 
ATOM     32  C   UNL     1      -3.533 -12.703   4.868  0.00  0.00    +0.046 A 
ATOM     33  C   UNL     1      -5.511 -12.254   3.556  0.00  0.00    +0.046 A 
ATOM     34  C   UNL     1      -4.274 -12.883   3.701  0.00  0.00    +0.120 A 
BRANCH  34   6
ATOM      6  O   UNL     1      -3.790 -13.670   2.702  0.00  0.00    -0.495 OA
ATOM     35  C   UNL     1      -3.320 -13.013   1.526  0.00  0.00    +0.277 C 
ENDBRANCH  34   6
ENDBRANCH  21  27
ENDBRANCH  14   8
BRANCH  13   7
ATOM      3  O   UNL     1      -2.356 -10.253  16.322  0.00  0.00    -0.270 OA
ATOM      7  N   UNL     1      -3.712 -11.667  15.080  0.00  0.00    -0.304 N 
ATOM     17  C   UNL     1      -3.346 -10.974  16.225  0.00  0.00    +0.245 C 
ATOM     36  H   UNL     1      -4.570 -12.211  15.087  0.00  0.00    +0.149 HD
BRANCH  17  19
ATOM     19  C   UNL     1      -4.224 -11.164  17.408  0.00  0.00    +0.051 A 
ATOM     20  C   UNL     1      -5.547 -10.771  17.363  0.00  0.00    +0.071 A 
ATOM     22  C   UNL     1      -3.668 -11.739  18.534  0.00  0.00    +0.014 A 
ATOM     25  C   UNL     1      -6.347 -10.962  18.489  0.00  0.00    +0.016 A 
ATOM     26  C   UNL     1      -4.469 -11.931  19.660  0.00  0.00    +0.001 A 
ATOM     29  C   UNL     1      -5.808 -11.542  19.637  0.00  0.00    +0.001 A 
BRANCH  20  28
ATOM      5  O   UNL     1      -6.684 -10.776  15.258  0.00  0.00    -0.245 OA
ATOM     28  C   UNL     1      -6.138 -10.162  16.178  0.00  0.00    +0.338 C 
BRANCH  28   4
ATOM      4  O   UNL     1      -6.027  -8.807  16.183  0.00  0.00    -0.477 OA
ATOM     38  H   UNL     1      -5.093  -8.517  16.258  0.00  0.00    +0.295 HD
ENDBRANCH  28   4
ENDBRANCH  20  28
ENDBRANCH  17  19
ENDBRANCH  13   7
TORSDOF 7
ENDMDL
MODEL 9
REMARK VINA RESULT:      -7.0      2.820     11.051
REMARK  Name = 11912792
REMARK  8 active torsions:
REMARK  status: ('A' for Active; 'I' for Inactive)
REMARK    1  A    between atoms: O_4  and  C_28
REMARK    2  A    between atoms: O_6  and  C_34
REMARK    3  A    between atoms: O_6  and  C_35
REMARK    4  A    between atoms: N_7  and  C_13
REMARK    5  A    between atoms: N_8  and  C_14
REMARK    6  A    between atoms: C_17  and  C_19
REMARK    7  A    between atoms: C_20  and  C_28
REMARK    8  A    between atoms: C_21  and  C_27
REMARK                            x       y       z     vdW  Elec       q    Type
REMARK                         _______ _______ _______ _____ _____    ______ ____
ROOT
ATOM      1  O   UNL     1      -5.024 -11.583  10.447  0.00  0.00    -0.370 OA
ATOM      2  O   UNL     1      -3.618  -8.798  10.373  0.00  0.00    -0.370 OA
ATOM     11  C   UNL     1      -4.396  -9.482  11.370  0.00  0.00    +0.171 C 
ATOM     12  C   UNL     1      -5.492 -10.239  10.646  0.00  0.00    +0.171 C 
ATOM     13  C   UNL     1      -3.571 -10.567  12.025  0.00  0.00    +0.130 C 
ATOM     14  C   UNL     1      -5.620  -9.526   9.321  0.00  0.00    +0.130 C 
ATOM     15  C   UNL     1      -3.733 -11.727  11.060  0.00  0.00    +0.185 C 
ATOM     16  C   UNL     1      -4.212  -9.010   9.084  0.00  0.00    +0.185 C 
ENDROOT
BRANCH  14   8
ATOM      8  N   UNL     1      -6.545  -8.421   9.439  0.00  0.00    -0.306 N 
ATOM      9  N   UNL     1      -7.296  -8.671   7.229  0.00  0.00    -0.214 NA
ATOM     10  N   UNL     1      -8.196  -6.949   8.655  0.00  0.00    -0.223 NA
ATOM     18  C   UNL     1      -7.370  -8.001   8.411  0.00  0.00    +0.216 A 
ATOM     21  C   UNL     1      -8.114  -8.235   6.250  0.00  0.00    +0.076 A 
ATOM     23  C   UNL     1      -8.987  -6.566   7.631  0.00  0.00    +0.116 A 
ATOM     24  C   UNL     1      -8.990  -7.178   6.394  0.00  0.00    +0.048 A 
ATOM     37  H   UNL     1      -6.646  -7.949  10.329  0.00  0.00    +0.149 HD
BRANCH  21  27
ATOM     27  C   UNL     1      -8.021  -8.961   5.005  0.00  0.00    +0.001 A 
ATOM     30  C   UNL     1      -7.305 -10.159   4.945  0.00  0.00    +0.013 A 
ATOM     31  C   UNL     1      -8.645  -8.468   3.858  0.00  0.00    +0.013 A 
ATOM     32  C   UNL     1      -7.215 -10.860   3.742  0.00  0.00    +0.046 A 
ATOM     33  C   UNL     1      -8.554  -9.168   2.656  0.00  0.00    +0.046 A 
ATOM     34  C   UNL     1      -7.839 -10.365   2.597  0.00  0.00    +0.120 A 
BRANCH  34   6
ATOM      6  O   UNL     1      -7.749 -11.047   1.424  0.00  0.00    -0.495 OA
ATOM     35  C   UNL     1      -8.892 -11.026   0.570  0.00  0.00    +0.277 C 
ENDBRANCH  34   6
ENDBRANCH  21  27
ENDBRANCH  14   8
BRANCH  13   7
ATOM      3  O   UNL     1      -2.100 -10.618  14.491  0.00  0.00    -0.270 OA
ATOM      7  N   UNL     1      -4.089 -10.899  13.332  0.00  0.00    -0.304 N 
ATOM     17  C   UNL     1      -3.296 -10.896  14.470  0.00  0.00    +0.245 C 
ATOM     36  H   UNL     1      -5.079 -11.107  13.422  0.00  0.00    +0.149 HD
BRANCH  17  19
ATOM     19  C   UNL     1      -3.972 -11.286  15.734  0.00  0.00    +0.051 A 
ATOM     20  C   UNL     1      -4.347 -12.598  15.947  0.00  0.00    +0.071 A 
ATOM     22  C   UNL     1      -4.204 -10.297  16.669  0.00  0.00    +0.014 A 
ATOM     25  C   UNL     1      -4.979 -12.934  17.144  0.00  0.00    +0.016 A 
ATOM     26  C   UNL     1      -4.836 -10.633  17.867  0.00  0.00    +0.001 A 
ATOM     29  C   UNL     1      -5.223 -11.952  18.103  0.00  0.00    +0.001 A 
BRANCH  20  28
ATOM      5  O   UNL     1      -4.835 -13.906  14.004  0.00  0.00    -0.245 OA
ATOM     28  C   UNL     1      -4.105 -13.646  14.963  0.00  0.00    +0.338 C 
BRANCH  28   4
ATOM      4  O   UNL     1      -2.958 -14.333  15.212  0.00  0.00    -0.477 OA
ATOM     38  H   UNL     1      -2.374 -13.854  15.839  0.00  0.00    +0.295 HD
ENDBRANCH  28   4
ENDBRANCH  20  28
ENDBRANCH  17  19
ENDBRANCH  13   7
TORSDOF 7
ENDMDL
MODEL 10
REMARK VINA RESULT:      -7.0     25.655     30.180
REMARK  Name = 11912792
REMARK  8 active torsions:
REMARK  status: ('A' for Active; 'I' for Inactive)
REMARK    1  A    between atoms: O_4  and  C_28
REMARK    2  A    between atoms: O_6  and  C_34
REMARK    3  A    between atoms: O_6  and  C_35
REMARK    4  A    between atoms: N_7  and  C_13
REMARK    5  A    between atoms: N_8  and  C_14
REMARK    6  A    between atoms: C_17  and  C_19
REMARK    7  A    between atoms: C_20  and  C_28
REMARK    8  A    between atoms: C_21  and  C_27
REMARK                            x       y       z     vdW  Elec       q    Type
REMARK                         _______ _______ _______ _____ _____    ______ ____
ROOT
ATOM      1  O   UNL     1     -14.916   6.511  34.263  0.00  0.00    -0.370 OA
ATOM      2  O   UNL     1     -15.660   8.611  32.079  0.00  0.00    -0.370 OA
ATOM     11  C   UNL     1     -15.056   7.308  32.026  0.00  0.00    +0.171 C 
ATOM     12  C   UNL     1     -14.158   7.177  33.241  0.00  0.00    +0.171 C 
ATOM     13  C   UNL     1     -16.103   6.235  32.227  0.00  0.00    +0.130 C 
ATOM     14  C   UNL     1     -13.873   8.604  33.645  0.00  0.00    +0.130 C 
ATOM     15  C   UNL     1     -16.206   6.160  33.739  0.00  0.00    +0.185 C 
ATOM     16  C   UNL     1     -15.129   9.333  33.200  0.00  0.00    +0.185 C 
ENDROOT
BRANCH  14   8
ATOM      8  N   UNL     1     -12.724   9.105  32.925  0.00  0.00    -0.306 N 
ATOM      9  N   UNL     1     -11.397   9.158  34.860  0.00  0.00    -0.214 NA
ATOM     10  N   UNL     1     -10.504   9.840  32.727  0.00  0.00    -0.223 NA
ATOM     18  C   UNL     1     -11.505   9.375  33.521  0.00  0.00    +0.216 A 
ATOM     21  C   UNL     1     -10.196   9.432  35.408  0.00  0.00    +0.076 A 
ATOM     23  C   UNL     1      -9.330  10.093  33.342  0.00  0.00    +0.116 A 
ATOM     24  C   UNL     1      -9.115   9.907  34.692  0.00  0.00    +0.048 A 
ATOM     37  H   UNL     1     -12.778   9.220  31.919  0.00  0.00    +0.149 HD
BRANCH  21  27
ATOM     27  C   UNL     1     -10.102   9.193  36.829  0.00  0.00    +0.001 A 
ATOM     30  C   UNL     1     -10.195   7.892  37.328  0.00  0.00    +0.013 A 
ATOM     31  C   UNL     1      -9.918  10.261  37.708  0.00  0.00    +0.013 A 
ATOM     32  C   UNL     1     -10.105   7.661  38.701  0.00  0.00    +0.046 A 
ATOM     33  C   UNL     1      -9.828  10.031  39.081  0.00  0.00    +0.046 A 
ATOM     34  C   UNL     1      -9.921   8.730  39.577  0.00  0.00    +0.120 A 
BRANCH  34   6
ATOM      6  O   UNL     1      -9.835   8.505  40.916  0.00  0.00    -0.495 OA
ATOM     35  C   UNL     1      -9.570   7.167  41.335  0.00  0.00    +0.277 C 
ENDBRANCH  34   6
ENDBRANCH  21  27
ENDBRANCH  14   8
BRANCH  13   7
ATOM      3  O   UNL     1     -17.781   4.026  31.486  0.00  0.00    -0.270 OA
ATOM      7  N   UNL     1     -15.673   4.975  31.669  0.00  0.00    -0.304 N 
ATOM     17  C   UNL     1     -16.563   3.963  31.341  0.00  0.00    +0.245 C 
ATOM     36  H   UNL     1     -14.684   4.843  31.477  0.00  0.00    +0.149 HD
BRANCH  17  19
ATOM     19  C   UNL     1     -15.960   2.717  30.801  0.00  0.00    +0.051 A 
ATOM     20  C   UNL     1     -15.041   2.007  31.548  0.00  0.00    +0.071 A 
ATOM     22  C   UNL     1     -16.353   2.307  29.542  0.00  0.00    +0.014 A 
ATOM     25  C   UNL     1     -14.493   0.841  31.015  0.00  0.00    +0.016 A 
ATOM     26  C   UNL     1     -15.806   1.140  29.009  0.00  0.00    +0.001 A 
ATOM     29  C   UNL     1     -14.875   0.407  29.746  0.00  0.00    +0.001 A 
BRANCH  20  28
ATOM      5  O   UNL     1     -13.776   3.300  33.115  0.00  0.00    -0.245 OA
ATOM     28  C   UNL     1     -14.623   2.435  32.877  0.00  0.00    +0.338 C 
BRANCH  28   4
ATOM      4  O   UNL     1     -15.276   1.766  33.865  0.00  0.00    -0.477 OA
ATOM     38  H   UNL     1     -15.163   2.201  34.737  0.00  0.00    +0.295 HD
ENDBRANCH  28   4
ENDBRANCH  20  28
ENDBRANCH  17  19
ENDBRANCH  13   7
TORSDOF 7
ENDMDL
