MODEL 1
REMARK VINA RESULT:      -7.4      0.000      0.000
REMARK  Name = 7144125
REMARK  2 active torsions:
REMARK  status: ('A' for Active; 'I' for Inactive)
REMARK    1  A    between atoms: C_14  and  C_19
REMARK    2  A    between atoms: C_16  and  C_20
REMARK                            x       y       z     vdW  Elec       q    Type
REMARK                         _______ _______ _______ _____ _____    ______ ____
ROOT
ATOM      2  O   UNL     1      11.035   5.972  20.955  0.00  0.00    -0.268 OA
ATOM      3  O   UNL     1      15.518   6.187  19.933  0.00  0.00    -0.267 OA
ATOM      5  N   UNL     1      12.011   7.871  19.992  0.00  0.00    -0.311 N 
ATOM      6  N   UNL     1      14.945   8.188  18.869  0.00  0.00    -0.294 N 
ATOM      7  C   UNL     1      12.855   7.863  17.569  0.00  0.00    +0.027 C 
ATOM      8  C   UNL     1      13.122   9.876  18.959  0.00  0.00    +0.054 C 
ATOM      9  C   UNL     1      12.586   9.359  17.624  0.00  0.00    +0.018 C 
ATOM     10  C   UNL     1      12.067   7.187  18.692  0.00  0.00    +0.130 C 
ATOM     11  C   UNL     1      14.364   7.580  17.673  0.00  0.00    +0.113 C 
ATOM     12  C   UNL     1      14.642   9.616  19.040  0.00  0.00    +0.117 C 
ATOM     13  C   UNL     1      12.414   9.213  20.144  0.00  0.00    +0.034 A 
ATOM     14  C   UNL     1      12.201   9.855  21.323  0.00  0.00    +0.002 A 
ATOM     15  C   UNL     1      11.418   7.140  21.037  0.00  0.00    +0.252 A 
ATOM     16  C   UNL     1      15.672   7.395  19.760  0.00  0.00    +0.282 C 
ATOM     17  C   UNL     1      11.596   9.131  22.423  0.00  0.00    +0.015 A 
ATOM     18  C   UNL     1      11.234   7.852  22.321  0.00  0.00    +0.071 A 
ENDROOT
BRANCH  14  19
ATOM      1 CL   UNL     1      13.757  15.578  22.116  0.00  0.00    -0.084 Cl
ATOM     19  C   UNL     1      12.585  11.271  21.519  0.00  0.00    -0.016 A 
ATOM     21  C   UNL     1      11.695  12.283  21.174  0.00  0.00    +0.010 A 
ATOM     22  C   UNL     1      13.834  11.580  22.049  0.00  0.00    +0.010 A 
ATOM     24  C   UNL     1      12.058  13.617  21.359  0.00  0.00    +0.020 A 
ATOM     25  C   UNL     1      14.197  12.914  22.233  0.00  0.00    +0.020 A 
ATOM     27  C   UNL     1      13.309  13.933  21.889  0.00  0.00    +0.041 A 
ENDBRANCH  14  19
BRANCH  16  20
ATOM      4  O   UNL     1      17.968   7.570  20.481  0.00  0.00    -0.458 OA
ATOM     20  C   UNL     1      16.702   8.040  20.583  0.00  0.00    +0.189 A 
ATOM     23  C   UNL     1      16.625   9.074  21.474  0.00  0.00    +0.054 A 
ATOM     26  C   UNL     1      17.941   9.260  21.964  0.00  0.00    +0.042 A 
ATOM     28  C   UNL     1      18.720   8.321  21.329  0.00  0.00    +0.196 A 
ENDBRANCH  16  20
TORSDOF 2
ENDMDL
MODEL 2
REMARK VINA RESULT:      -7.0      2.488      3.122
REMARK  Name = 7144125
REMARK  2 active torsions:
REMARK  status: ('A' for Active; 'I' for Inactive)
REMARK    1  A    between atoms: C_14  and  C_19
REMARK    2  A    between atoms: C_16  and  C_20
REMARK                            x       y       z     vdW  Elec       q    Type
REMARK                         _______ _______ _______ _____ _____    ______ ____
ROOT
ATOM      2  O   UNL     1      10.792   9.540  22.098  0.00  0.00    -0.268 OA
ATOM      3  O   UNL     1      13.722   6.270  20.719  0.00  0.00    -0.267 OA
ATOM      5  N   UNL     1      12.131   9.781  20.191  0.00  0.00    -0.311 N 
ATOM      6  N   UNL     1      13.954   7.602  18.813  0.00  0.00    -0.294 N 
ATOM      7  C   UNL     1      11.718   8.388  18.077  0.00  0.00    +0.027 C 
ATOM      8  C   UNL     1      13.596   9.974  18.159  0.00  0.00    +0.054 C 
ATOM      9  C   UNL     1      12.364   9.560  17.354  0.00  0.00    +0.018 C 
ATOM     10  C   UNL     1      11.249   8.864  19.453  0.00  0.00    +0.130 C 
ATOM     11  C   UNL     1      12.698   7.206  18.179  0.00  0.00    +0.113 C 
ATOM     12  C   UNL     1      14.589   8.792  18.227  0.00  0.00    +0.117 C 
ATOM     13  C   UNL     1      13.221  10.425  19.572  0.00  0.00    +0.034 A 
ATOM     14  C   UNL     1      13.914  11.381  20.245  0.00  0.00    +0.002 A 
ATOM     15  C   UNL     1      11.742  10.061  21.514  0.00  0.00    +0.252 A 
ATOM     16  C   UNL     1      14.422   6.889  19.919  0.00  0.00    +0.282 C 
ATOM     17  C   UNL     1      13.544  11.694  21.611  0.00  0.00    +0.015 A 
ATOM     18  C   UNL     1      12.539  11.079  22.235  0.00  0.00    +0.071 A 
ENDROOT
BRANCH  14  19
ATOM      1 CL   UNL     1      18.503  14.292  17.741  0.00  0.00    -0.084 Cl
ATOM     19  C   UNL     1      15.049  12.101  19.626  0.00  0.00    -0.016 A 
ATOM     21  C   UNL     1      16.352  11.672  19.864  0.00  0.00    +0.010 A 
ATOM     22  C   UNL     1      14.807  13.201  18.808  0.00  0.00    +0.010 A 
ATOM     24  C   UNL     1      17.421  12.351  19.280  0.00  0.00    +0.020 A 
ATOM     25  C   UNL     1      15.876  13.879  18.226  0.00  0.00    +0.020 A 
ATOM     27  C   UNL     1      17.184  13.455  18.460  0.00  0.00    +0.041 A 
ENDBRANCH  14  19
BRANCH  16  20
ATOM      4  O   UNL     1      16.637   6.095  19.385  0.00  0.00    -0.458 OA
ATOM     20  C   UNL     1      15.866   6.877  20.178  0.00  0.00    +0.189 A 
ATOM     23  C   UNL     1      16.619   7.536  21.110  0.00  0.00    +0.054 A 
ATOM     26  C   UNL     1      17.957   7.133  20.881  0.00  0.00    +0.042 A 
ATOM     28  C   UNL     1      17.914   6.257  19.821  0.00  0.00    +0.196 A 
ENDBRANCH  16  20
TORSDOF 2
ENDMDL
MODEL 3
REMARK VINA RESULT:      -6.9     14.422     17.249
REMARK  Name = 7144125
REMARK  2 active torsions:
REMARK  status: ('A' for Active; 'I' for Inactive)
REMARK    1  A    between atoms: C_14  and  C_19
REMARK    2  A    between atoms: C_16  and  C_20
REMARK                            x       y       z     vdW  Elec       q    Type
REMARK                         _______ _______ _______ _____ _____    ______ ____
ROOT
ATOM      2  O   UNL     1       7.176   8.794   4.071  0.00  0.00    -0.268 OA
ATOM      3  O   UNL     1      10.672  10.098   6.766  0.00  0.00    -0.267 OA
ATOM      5  N   UNL     1       8.895   7.328   4.690  0.00  0.00    -0.311 N 
ATOM      6  N   UNL     1      11.208   7.823   6.782  0.00  0.00    -0.294 N 
ATOM      7  C   UNL     1       9.140   6.489   7.101  0.00  0.00    +0.027 C 
ATOM      8  C   UNL     1      10.772   5.810   5.390  0.00  0.00    +0.054 C 
ATOM      9  C   UNL     1       9.814   5.285   6.460  0.00  0.00    +0.018 C 
ATOM     10  C   UNL     1       8.313   7.208   6.034  0.00  0.00    +0.130 C 
ATOM     11  C   UNL     1      10.185   7.417   7.743  0.00  0.00    +0.113 C 
ATOM     12  C   UNL     1      11.836   6.714   6.049  0.00  0.00    +0.117 C 
ATOM     13  C   UNL     1      10.028   6.586   4.300  0.00  0.00    +0.034 A 
ATOM     14  C   UNL     1      10.440   6.607   3.005  0.00  0.00    +0.002 A 
ATOM     15  C   UNL     1       8.178   8.137   3.789  0.00  0.00    +0.252 A 
ATOM     16  C   UNL     1      11.473   9.181   6.590  0.00  0.00    +0.282 C 
ATOM     17  C   UNL     1       9.727   7.432   2.049  0.00  0.00    +0.015 A 
ATOM     18  C   UNL     1       8.672   8.171   2.394  0.00  0.00    +0.071 A 
ENDROOT
BRANCH  14  19
ATOM      1 CL   UNL     1      15.166   3.440   1.151  0.00  0.00    -0.084 Cl
ATOM     19  C   UNL     1      11.608   5.824   2.546  0.00  0.00    -0.016 A 
ATOM     21  C   UNL     1      11.463   4.469   2.259  0.00  0.00    +0.010 A 
ATOM     22  C   UNL     1      12.845   6.446   2.404  0.00  0.00    +0.010 A 
ATOM     24  C   UNL     1      12.565   3.732   1.827  0.00  0.00    +0.020 A 
ATOM     25  C   UNL     1      13.946   5.708   1.973  0.00  0.00    +0.020 A 
ATOM     27  C   UNL     1      13.807   4.350   1.683  0.00  0.00    +0.041 A 
ENDBRANCH  14  19
BRANCH  16  20
ATOM      4  O   UNL     1      13.817   9.552   7.025  0.00  0.00    -0.458 OA
ATOM     20  C   UNL     1      12.808   9.570   6.122  0.00  0.00    +0.189 A 
ATOM     23  C   UNL     1      13.251   9.966   4.890  0.00  0.00    +0.054 A 
ATOM     26  C   UNL     1      14.637  10.213   5.039  0.00  0.00    +0.042 A 
ATOM     28  C   UNL     1      14.932   9.946   6.356  0.00  0.00    +0.196 A 
ENDBRANCH  16  20
TORSDOF 2
ENDMDL
MODEL 4
REMARK VINA RESULT:      -6.7     14.343     17.469
REMARK  Name = 7144125
REMARK  2 active torsions:
REMARK  status: ('A' for Active; 'I' for Inactive)
REMARK    1  A    between atoms: C_14  and  C_19
REMARK    2  A    between atoms: C_16  and  C_20
REMARK                            x       y       z     vdW  Elec       q    Type
REMARK                         _______ _______ _______ _____ _____    ______ ____
ROOT
ATOM      2  O   UNL     1      10.601   5.469   8.848  0.00  0.00    -0.268 OA
ATOM      3  O   UNL     1       9.295   9.590   7.267  0.00  0.00    -0.267 OA
ATOM      5  N   UNL     1      11.383   6.338   6.817  0.00  0.00    -0.311 N 
ATOM      6  N   UNL     1      10.950   9.241   5.653  0.00  0.00    -0.294 N 
ATOM      7  C   UNL     1      12.988   8.337   6.743  0.00  0.00    +0.027 C 
ATOM      8  C   UNL     1      12.180   7.328   4.649  0.00  0.00    +0.054 C 
ATOM      9  C   UNL     1      13.437   7.742   5.417  0.00  0.00    +0.018 C 
ATOM     10  C   UNL     1      12.276   7.248   7.548  0.00  0.00    +0.130 C 
ATOM     11  C   UNL     1      12.089   9.563   6.510  0.00  0.00    +0.113 C 
ATOM     12  C   UNL     1      11.300   8.571   4.392  0.00  0.00    +0.117 C 
ATOM     13  C   UNL     1      11.380   6.268   5.409  0.00  0.00    +0.034 A 
ATOM     14  C   UNL     1      10.655   5.306   4.780  0.00  0.00    +0.002 A 
ATOM     15  C   UNL     1      10.626   5.462   7.616  0.00  0.00    +0.252 A 
ATOM     16  C   UNL     1       9.655   9.528   6.093  0.00  0.00    +0.282 C 
ATOM     17  C   UNL     1       9.859   4.388   5.572  0.00  0.00    +0.015 A 
ATOM     18  C   UNL     1       9.815   4.449   6.903  0.00  0.00    +0.071 A 
ENDROOT
BRANCH  14  19
ATOM      1 CL   UNL     1      10.605   4.798  -1.181  0.00  0.00    -0.084 Cl
ATOM     19  C   UNL     1      10.643   5.180   3.306  0.00  0.00    -0.016 A 
ATOM     21  C   UNL     1      11.367   4.161   2.693  0.00  0.00    +0.010 A 
ATOM     22  C   UNL     1       9.906   6.080   2.542  0.00  0.00    +0.010 A 
ATOM     24  C   UNL     1      11.355   4.043   1.304  0.00  0.00    +0.020 A 
ATOM     25  C   UNL     1       9.895   5.962   1.153  0.00  0.00    +0.020 A 
ATOM     27  C   UNL     1      10.619   4.943   0.532  0.00  0.00    +0.041 A 
ENDBRANCH  14  19
BRANCH  16  20
ATOM      4  O   UNL     1       8.363  11.043   4.731  0.00  0.00    -0.458 OA
ATOM     20  C   UNL     1       8.615   9.761   5.084  0.00  0.00    +0.189 A 
ATOM     23  C   UNL     1       7.813   8.890   4.399  0.00  0.00    +0.054 A 
ATOM     26  C   UNL     1       7.002   9.691   3.559  0.00  0.00    +0.042 A 
ATOM     28  C   UNL     1       7.376  10.993   3.798  0.00  0.00    +0.196 A 
ENDBRANCH  16  20
TORSDOF 2
ENDMDL
MODEL 5
REMARK VINA RESULT:      -6.6     27.788     29.738
REMARK  Name = 7144125
REMARK  2 active torsions:
REMARK  status: ('A' for Active; 'I' for Inactive)
REMARK    1  A    between atoms: C_14  and  C_19
REMARK    2  A    between atoms: C_16  and  C_20
REMARK                            x       y       z     vdW  Elec       q    Type
REMARK                         _______ _______ _______ _____ _____    ______ ____
ROOT
ATOM      2  O   UNL     1      -6.844 -14.939  17.075  0.00  0.00    -0.268 OA
ATOM      3  O   UNL     1      -8.782 -11.016  18.504  0.00  0.00    -0.267 OA
ATOM      5  N   UNL     1      -5.932 -12.838  16.582  0.00  0.00    -0.311 N 
ATOM      6  N   UNL     1      -6.823 -10.024  17.702  0.00  0.00    -0.294 N 
ATOM      7  C   UNL     1      -4.865 -11.378  18.402  0.00  0.00    +0.027 C 
ATOM      8  C   UNL     1      -5.008 -10.553  16.088  0.00  0.00    +0.054 C 
ATOM      9  C   UNL     1      -4.051 -10.799  17.255  0.00  0.00    +0.018 C 
ATOM     10  C   UNL     1      -5.432 -12.729  17.960  0.00  0.00    +0.130 C 
ATOM     11  C   UNL     1      -5.972 -10.400  18.829  0.00  0.00    +0.113 C 
ATOM     12  C   UNL     1      -6.096  -9.545  16.517  0.00  0.00    +0.117 C 
ATOM     13  C   UNL     1      -5.658 -11.854  15.611  0.00  0.00    +0.034 A 
ATOM     14  C   UNL     1      -6.003 -12.068  14.314  0.00  0.00    +0.002 A 
ATOM     15  C   UNL     1      -6.592 -14.040  16.271  0.00  0.00    +0.252 A 
ATOM     16  C   UNL     1      -8.207 -10.187  17.800  0.00  0.00    +0.282 C 
ATOM     17  C   UNL     1      -6.689 -13.295  13.957  0.00  0.00    +0.015 A 
ATOM     18  C   UNL     1      -6.991 -14.229  14.858  0.00  0.00    +0.071 A 
ENDROOT
BRANCH  14  19
ATOM      1 CL   UNL     1      -4.830  -8.047  10.041  0.00  0.00    -0.084 Cl
ATOM     19  C   UNL     1      -5.713 -11.074  13.257  0.00  0.00    -0.016 A 
ATOM     21  C   UNL     1      -4.487 -11.103  12.597  0.00  0.00    +0.010 A 
ATOM     22  C   UNL     1      -6.668 -10.116  12.928  0.00  0.00    +0.010 A 
ATOM     24  C   UNL     1      -4.214 -10.166  11.601  0.00  0.00    +0.020 A 
ATOM     25  C   UNL     1      -6.394  -9.179  11.933  0.00  0.00    +0.020 A 
ATOM     27  C   UNL     1      -5.168  -9.203  11.268  0.00  0.00    +0.041 A 
ENDBRANCH  14  19
BRANCH  16  20
ATOM      4  O   UNL     1      -9.332  -8.079  17.464  0.00  0.00    -0.458 OA
ATOM     20  C   UNL     1      -9.069  -9.320  16.988  0.00  0.00    +0.189 A 
ATOM     23  C   UNL     1      -9.685  -9.533  15.786  0.00  0.00    +0.054 A 
ATOM     26  C   UNL     1     -10.384  -8.337  15.494  0.00  0.00    +0.042 A 
ATOM     28  C   UNL     1     -10.137  -7.484  16.545  0.00  0.00    +0.196 A 
ENDBRANCH  16  20
TORSDOF 2
ENDMDL
MODEL 6
REMARK VINA RESULT:      -6.5     15.091     17.717
REMARK  Name = 7144125
REMARK  2 active torsions:
REMARK  status: ('A' for Active; 'I' for Inactive)
REMARK    1  A    between atoms: C_14  and  C_19
REMARK    2  A    between atoms: C_16  and  C_20
REMARK                            x       y       z     vdW  Elec       q    Type
REMARK                         _______ _______ _______ _____ _____    ______ ____
ROOT
ATOM      2  O   UNL     1       9.265  10.336   1.271  0.00  0.00    -0.268 OA
ATOM      3  O   UNL     1      12.662   7.336   0.470  0.00  0.00    -0.267 OA
ATOM      5  N   UNL     1      10.543   9.401   2.997  0.00  0.00    -0.311 N 
ATOM      6  N   UNL     1      13.132   7.611   2.743  0.00  0.00    -0.294 N 
ATOM      7  C   UNL     1      13.011  10.020   3.326  0.00  0.00    +0.027 C 
ATOM      8  C   UNL     1      11.951   8.359   4.799  0.00  0.00    +0.054 C 
ATOM      9  C   UNL     1      12.756   9.659   4.781  0.00  0.00    +0.018 C 
ATOM     10  C   UNL     1      11.664  10.286   2.650  0.00  0.00    +0.130 C 
ATOM     11  C   UNL     1      13.800   8.905   2.620  0.00  0.00    +0.113 C 
ATOM     12  C   UNL     1      12.765   7.238   4.118  0.00  0.00    +0.117 C 
ATOM     13  C   UNL     1      10.600   8.524   4.099  0.00  0.00    +0.034 A 
ATOM     14  C   UNL     1       9.489   7.840   4.479  0.00  0.00    +0.002 A 
ATOM     15  C   UNL     1       9.375   9.576   2.233  0.00  0.00    +0.252 A 
ATOM     16  C   UNL     1      12.848   6.870   1.593  0.00  0.00    +0.282 C 
ATOM     17  C   UNL     1       8.268   7.992   3.712  0.00  0.00    +0.015 A 
ATOM     18  C   UNL     1       8.191   8.788   2.645  0.00  0.00    +0.071 A 
ENDROOT
BRANCH  14  19
ATOM      1 CL   UNL     1       9.518   4.155   9.193  0.00  0.00    -0.084 Cl
ATOM     19  C   UNL     1       9.496   6.929   5.644  0.00  0.00    -0.016 A 
ATOM     21  C   UNL     1       9.850   5.593   5.475  0.00  0.00    +0.010 A 
ATOM     22  C   UNL     1       9.150   7.413   6.902  0.00  0.00    +0.010 A 
ATOM     24  C   UNL     1       9.857   4.734   6.574  0.00  0.00    +0.020 A 
ATOM     25  C   UNL     1       9.157   6.554   8.000  0.00  0.00    +0.020 A 
ATOM     27  C   UNL     1       9.511   5.214   7.838  0.00  0.00    +0.041 A 
ENDBRANCH  14  19
BRANCH  16  20
ATOM      4  O   UNL     1      13.848   4.679   1.451  0.00  0.00    -0.458 OA
ATOM     20  C   UNL     1      12.740   5.412   1.715  0.00  0.00    +0.189 A 
ATOM     23  C   UNL     1      11.686   4.612   2.061  0.00  0.00    +0.054 A 
ATOM     26  C   UNL     1      12.175   3.284   2.007  0.00  0.00    +0.042 A 
ATOM     28  C   UNL     1      13.495   3.379   1.631  0.00  0.00    +0.196 A 
ENDBRANCH  16  20
TORSDOF 2
ENDMDL
MODEL 7
REMARK VINA RESULT:      -6.2     13.715     15.811
REMARK  Name = 7144125
REMARK  2 active torsions:
REMARK  status: ('A' for Active; 'I' for Inactive)
REMARK    1  A    between atoms: C_14  and  C_19
REMARK    2  A    between atoms: C_16  and  C_20
REMARK                            x       y       z     vdW  Elec       q    Type
REMARK                         _______ _______ _______ _____ _____    ______ ____
ROOT
ATOM      2  O   UNL     1      19.901  -5.032  21.858  0.00  0.00    -0.268 OA
ATOM      3  O   UNL     1      20.784  -1.619  24.815  0.00  0.00    -0.267 OA
ATOM      5  N   UNL     1      18.307  -4.258  23.390  0.00  0.00    -0.311 N 
ATOM      6  N   UNL     1      18.496  -1.735  25.279  0.00  0.00    -0.294 N 
ATOM      7  C   UNL     1      17.232  -1.941  23.153  0.00  0.00    +0.027 C 
ATOM      8  C   UNL     1      16.646  -3.381  25.060  0.00  0.00    +0.054 C 
ATOM      9  C   UNL     1      16.066  -2.566  23.904  0.00  0.00    +0.018 C 
ATOM     10  C   UNL     1      18.086  -3.064  22.562  0.00  0.00    +0.130 C 
ATOM     11  C   UNL     1      18.047  -1.026  24.083  0.00  0.00    +0.113 C 
ATOM     12  C   UNL     1      17.434  -2.448  26.005  0.00  0.00    +0.117 C 
ATOM     13  C   UNL     1      17.554  -4.505  24.556  0.00  0.00    +0.034 A 
ATOM     14  C   UNL     1      17.680  -5.693  25.205  0.00  0.00    +0.002 A 
ATOM     15  C   UNL     1      19.228  -5.189  22.877  0.00  0.00    +0.252 A 
ATOM     16  C   UNL     1      19.853  -1.736  25.611  0.00  0.00    +0.282 C 
ATOM     17  C   UNL     1      18.623  -6.675  24.707  0.00  0.00    +0.015 A 
ATOM     18  C   UNL     1      19.373  -6.458  23.626  0.00  0.00    +0.071 A 
ENDROOT
BRANCH  14  19
ATOM      1 CL   UNL     1      14.493  -6.952  30.110  0.00  0.00    -0.084 Cl
ATOM     19  C   UNL     1      16.892  -6.005  26.418  0.00  0.00    -0.016 A 
ATOM     21  C   UNL     1      15.695  -6.705  26.303  0.00  0.00    +0.010 A 
ATOM     22  C   UNL     1      17.353  -5.596  27.666  0.00  0.00    +0.010 A 
ATOM     24  C   UNL     1      14.952  -6.999  27.446  0.00  0.00    +0.020 A 
ATOM     25  C   UNL     1      16.610  -5.889  28.808  0.00  0.00    +0.020 A 
ATOM     27  C   UNL     1      15.410  -6.591  28.700  0.00  0.00    +0.041 A 
ENDBRANCH  14  19
BRANCH  16  20
ATOM      4  O   UNL     1      20.671  -0.815  27.686  0.00  0.00    -0.458 OA
ATOM     20  C   UNL     1      20.224  -1.906  27.020  0.00  0.00    +0.189 A 
ATOM     23  C   UNL     1      20.204  -3.009  27.830  0.00  0.00    +0.054 A 
ATOM     26  C   UNL     1      20.674  -2.570  29.091  0.00  0.00    +0.042 A 
ATOM     28  C   UNL     1      20.943  -1.228  28.951  0.00  0.00    +0.196 A 
ENDBRANCH  16  20
TORSDOF 2
ENDMDL
MODEL 8
REMARK VINA RESULT:      -6.1     26.438     29.584
REMARK  Name = 7144125
REMARK  2 active torsions:
REMARK  status: ('A' for Active; 'I' for Inactive)
REMARK    1  A    between atoms: C_14  and  C_19
REMARK    2  A    between atoms: C_16  and  C_20
REMARK                            x       y       z     vdW  Elec       q    Type
REMARK                         _______ _______ _______ _____ _____    ______ ____
ROOT
ATOM      2  O   UNL     1      -1.695 -10.642  16.117  0.00  0.00    -0.268 OA
ATOM      3  O   UNL     1      -4.332 -14.373  15.558  0.00  0.00    -0.267 OA
ATOM      5  N   UNL     1      -3.600 -10.637  14.754  0.00  0.00    -0.311 N 
ATOM      6  N   UNL     1      -5.776 -12.906  14.451  0.00  0.00    -0.294 N 
ATOM      7  C   UNL     1      -5.961 -10.796  15.745  0.00  0.00    +0.027 C 
ATOM      8  C   UNL     1      -5.654 -10.702  13.306  0.00  0.00    +0.054 C 
ATOM      9  C   UNL     1      -6.382 -10.056  14.485  0.00  0.00    +0.018 C 
ATOM     10  C   UNL     1      -4.458 -10.594  15.947  0.00  0.00    +0.130 C 
ATOM     11  C   UNL     1      -6.335 -12.285  15.651  0.00  0.00    +0.113 C 
ATOM     12  C   UNL     1      -6.061 -12.188  13.200  0.00  0.00    +0.117 C 
ATOM     13  C   UNL     1      -4.135 -10.585  13.450  0.00  0.00    +0.034 A 
ATOM     14  C   UNL     1      -3.303 -10.469  12.381  0.00  0.00    +0.002 A 
ATOM     15  C   UNL     1      -2.216 -10.613  15.002  0.00  0.00    +0.252 A 
ATOM     16  C   UNL     1      -4.996 -14.058  14.572  0.00  0.00    +0.282 C 
ATOM     17  C   UNL     1      -1.870 -10.445  12.599  0.00  0.00    +0.015 A 
ATOM     18  C   UNL     1      -1.333 -10.526  13.817  0.00  0.00    +0.071 A 
ENDROOT
BRANCH  14  19
ATOM      1 CL   UNL     1      -5.399 -10.132   6.787  0.00  0.00    -0.084 Cl
ATOM     19  C   UNL     1      -3.821 -10.386  10.998  0.00  0.00    -0.016 A 
ATOM     21  C   UNL     1      -4.184  -9.150  10.469  0.00  0.00    +0.010 A 
ATOM     22  C   UNL     1      -3.942 -11.543  10.234  0.00  0.00    +0.010 A 
ATOM     24  C   UNL     1      -4.672  -9.072   9.165  0.00  0.00    +0.020 A 
ATOM     25  C   UNL     1      -4.431 -11.464   8.931  0.00  0.00    +0.020 A 
ATOM     27  C   UNL     1      -4.796 -10.229   8.395  0.00  0.00    +0.041 A 
ENDBRANCH  14  19
BRANCH  16  20
ATOM      4  O   UNL     1      -5.964 -15.846  13.272  0.00  0.00    -0.458 OA
ATOM     20  C   UNL     1      -4.936 -14.979  13.431  0.00  0.00    +0.189 A 
ATOM     23  C   UNL     1      -3.996 -15.137  12.450  0.00  0.00    +0.054 A 
ATOM     26  C   UNL     1      -4.475 -16.179  11.621  0.00  0.00    +0.042 A 
ATOM     28  C   UNL     1      -5.676 -16.577  12.163  0.00  0.00    +0.196 A 
ENDBRANCH  16  20
TORSDOF 2
ENDMDL
MODEL 9
REMARK VINA RESULT:      -6.0     14.391     16.338
REMARK  Name = 7144125
REMARK  2 active torsions:
REMARK  status: ('A' for Active; 'I' for Inactive)
REMARK    1  A    between atoms: C_14  and  C_19
REMARK    2  A    between atoms: C_16  and  C_20
REMARK                            x       y       z     vdW  Elec       q    Type
REMARK                         _______ _______ _______ _____ _____    ______ ____
ROOT
ATOM      2  O   UNL     1      10.168   4.371   3.067  0.00  0.00    -0.268 OA
ATOM      3  O   UNL     1       7.765   7.974   4.625  0.00  0.00    -0.267 OA
ATOM      5  N   UNL     1      10.884   5.664   4.885  0.00  0.00    -0.311 N 
ATOM      6  N   UNL     1       9.302   7.947   6.386  0.00  0.00    -0.294 N 
ATOM      7  C   UNL     1       9.657   5.608   7.137  0.00  0.00    +0.027 C 
ATOM      8  C   UNL     1      11.594   7.092   6.827  0.00  0.00    +0.054 C 
ATOM      9  C   UNL     1      11.008   5.997   7.718  0.00  0.00    +0.018 C 
ATOM     10  C   UNL     1       9.879   5.019   5.743  0.00  0.00    +0.130 C 
ATOM     11  C   UNL     1       8.711   6.821   7.106  0.00  0.00    +0.113 C 
ATOM     12  C   UNL     1      10.654   8.318   6.829  0.00  0.00    +0.117 C 
ATOM     13  C   UNL     1      11.808   6.599   5.395  0.00  0.00    +0.034 A 
ATOM     14  C   UNL     1      12.818   7.052   4.606  0.00  0.00    +0.002 A 
ATOM     15  C   UNL     1      10.939   5.196   3.560  0.00  0.00    +0.252 A 
ATOM     16  C   UNL     1       8.598   8.537   5.334  0.00  0.00    +0.282 C 
ATOM     17  C   UNL     1      12.903   6.594   3.233  0.00  0.00    +0.015 A 
ATOM     18  C   UNL     1      12.026   5.736   2.712  0.00  0.00    +0.071 A 
ENDROOT
BRANCH  14  19
ATOM      1 CL   UNL     1      16.887  10.944   6.629  0.00  0.00    -0.084 Cl
ATOM     19  C   UNL     1      13.824   8.014   5.106  0.00  0.00    -0.016 A 
ATOM     21  C   UNL     1      14.971   7.547   5.742  0.00  0.00    +0.010 A 
ATOM     22  C   UNL     1      13.619   9.380   4.937  0.00  0.00    +0.010 A 
ATOM     24  C   UNL     1      15.919   8.454   6.214  0.00  0.00    +0.020 A 
ATOM     25  C   UNL     1      14.567  10.287   5.408  0.00  0.00    +0.020 A 
ATOM     27  C   UNL     1      15.718   9.825   6.047  0.00  0.00    +0.041 A 
ENDBRANCH  14  19
BRANCH  16  20
ATOM      4  O   UNL     1       8.311  10.885   5.812  0.00  0.00    -0.458 OA
ATOM     20  C   UNL     1       8.871   9.943   5.016  0.00  0.00    +0.189 A 
ATOM     23  C   UNL     1       9.621  10.514   4.024  0.00  0.00    +0.054 A 
ATOM     26  C   UNL     1       9.517  11.912   4.217  0.00  0.00    +0.042 A 
ATOM     28  C   UNL     1       8.710  12.086   5.318  0.00  0.00    +0.196 A 
ENDBRANCH  16  20
TORSDOF 2
ENDMDL
MODEL 10
REMARK VINA RESULT:      -6.0     26.988     29.481
REMARK  Name = 7144125
REMARK  2 active torsions:
REMARK  status: ('A' for Active; 'I' for Inactive)
REMARK    1  A    between atoms: C_14  and  C_19
REMARK    2  A    between atoms: C_16  and  C_20
REMARK                            x       y       z     vdW  Elec       q    Type
REMARK                         _______ _______ _______ _____ _____    ______ ____
ROOT
ATOM      2  O   UNL     1      -1.941 -15.183  12.731  0.00  0.00    -0.268 OA
ATOM      3  O   UNL     1      -4.721 -13.580  16.030  0.00  0.00    -0.267 OA
ATOM      5  N   UNL     1      -2.552 -12.926  12.867  0.00  0.00    -0.311 N 
ATOM      6  N   UNL     1      -4.137 -11.481  15.185  0.00  0.00    -0.294 N 
ATOM      7  C   UNL     1      -1.693 -11.415  14.754  0.00  0.00    +0.027 C 
ATOM      8  C   UNL     1      -3.249 -10.520  13.071  0.00  0.00    +0.054 C 
ATOM      9  C   UNL     1      -1.898 -10.291  13.749  0.00  0.00    +0.018 C 
ATOM     10  C   UNL     1      -1.624 -12.740  13.992  0.00  0.00    +0.130 C 
ATOM     11  C   UNL     1      -2.816 -11.413  15.806  0.00  0.00    +0.113 C 
ATOM     12  C   UNL     1      -4.372 -10.483  14.131  0.00  0.00    +0.117 C 
ATOM     13  C   UNL     1      -3.282 -11.852  12.319  0.00  0.00    +0.034 A 
ATOM     14  C   UNL     1      -4.007 -12.035  11.183  0.00  0.00    +0.002 A 
ATOM     15  C   UNL     1      -2.569 -14.214  12.303  0.00  0.00    +0.252 A 
ATOM     16  C   UNL     1      -5.031 -12.480  15.577  0.00  0.00    +0.282 C 
ATOM     17  C   UNL     1      -4.050 -13.351  10.576  0.00  0.00    +0.015 A 
ATOM     18  C   UNL     1      -3.398 -14.394  11.089  0.00  0.00    +0.071 A 
ENDROOT
BRANCH  14  19
ATOM      1 CL   UNL     1      -7.086  -7.568   8.660  0.00  0.00    -0.084 Cl
ATOM     19  C   UNL     1      -4.768 -10.931  10.559  0.00  0.00    -0.016 A 
ATOM     21  C   UNL     1      -4.124 -10.047   9.698  0.00  0.00    +0.010 A 
ATOM     22  C   UNL     1      -6.124 -10.782  10.836  0.00  0.00    +0.010 A 
ATOM     24  C   UNL     1      -4.841  -9.006   9.110  0.00  0.00    +0.020 A 
ATOM     25  C   UNL     1      -6.841  -9.741  10.249  0.00  0.00    +0.020 A 
ATOM     27  C   UNL     1      -6.201  -8.853   9.385  0.00  0.00    +0.041 A 
ENDBRANCH  14  19
BRANCH  16  20
ATOM      4  O   UNL     1      -7.070 -11.467  16.376  0.00  0.00    -0.458 OA
ATOM     20  C   UNL     1      -6.468 -12.224  15.427  0.00  0.00    +0.189 A 
ATOM     23  C   UNL     1      -7.359 -12.620  14.468  0.00  0.00    +0.054 A 
ATOM     26  C   UNL     1      -8.607 -12.070  14.849  0.00  0.00    +0.042 A 
ATOM     28  C   UNL     1      -8.378 -11.378  16.016  0.00  0.00    +0.196 A 
ENDBRANCH  16  20
TORSDOF 2
ENDMDL
