MODEL 1
REMARK VINA RESULT:      -7.5      0.000      0.000
REMARK  Name = 26743552
REMARK  4 active torsions:
REMARK  status: ('A' for Active; 'I' for Inactive)
REMARK    1  A    between atoms: O_1  and  C_12
REMARK    2  A    between atoms: N_3  and  C_6
REMARK    3  A    between atoms: C_7  and  C_16
REMARK    4  A    between atoms: C_17  and  C_18
REMARK                            x       y       z     vdW  Elec       q    Type
REMARK                         _______ _______ _______ _____ _____    ______ ____
ROOT
ATOM      3  N   UNL     1      13.493   8.648  19.458  0.00  0.00    -0.286 NA
ATOM      7  C   UNL     1      13.961   7.578  18.553  0.00  0.00    +0.149 C 
ATOM      8  C   UNL     1      12.633   9.517  18.660  0.00  0.00    +0.116 C 
ATOM     11  C   UNL     1      13.947   8.214  17.151  0.00  0.00    +0.061 C 
ATOM     12  C   UNL     1      13.413   9.625  17.364  0.00  0.00    +0.130 C 
ENDROOT
BRANCH   3   6
ATOM      6  C   UNL     1      12.811   8.139  20.647  0.00  0.00    +0.058 C 
ATOM      9  C   UNL     1      11.819   9.186  21.166  0.00  0.00    +0.019 C 
ATOM     10  C   UNL     1      12.102   6.822  20.318  0.00  0.00    +0.019 C 
ATOM     13  C   UNL     1      11.032   8.661  22.365  0.00  0.00    +0.002 C 
ATOM     14  C   UNL     1      11.315   6.298  21.518  0.00  0.00    +0.002 C 
ATOM     15  C   UNL     1      10.333   7.342  22.045  0.00  0.00    +0.000 C 
ENDBRANCH   3   6
BRANCH   7  16
ATOM      2  O   UNL     1      15.780   5.976  18.230  0.00  0.00    -0.336 OA
ATOM      4  N   UNL     1      16.146   7.458  19.869  0.00  0.00    -0.190 NA
ATOM      5  N   UNL     1      17.038   5.667  18.761  0.00  0.00    -0.056 NA
ATOM     16  C   UNL     1      15.324   7.043  18.939  0.00  0.00    +0.245 A 
ATOM     17  C   UNL     1      17.183   6.583  19.722  0.00  0.00    +0.202 A 
BRANCH  17  18
ATOM     18  C   UNL     1      18.351   6.654  20.552  0.00  0.00    +0.022 A 
ATOM     19  C   UNL     1      19.371   5.714  20.401  0.00  0.00    +0.012 A 
ATOM     20  C   UNL     1      18.466   7.660  21.512  0.00  0.00    +0.012 A 
ATOM     21  C   UNL     1      20.506   5.782  21.208  0.00  0.00    +0.001 A 
ATOM     22  C   UNL     1      19.602   7.727  22.319  0.00  0.00    +0.001 A 
ATOM     23  C   UNL     1      20.622   6.788  22.167  0.00  0.00    +0.000 A 
ENDBRANCH  17  18
ENDBRANCH   7  16
BRANCH  12   1
ATOM      1  O   UNL     1      12.586  10.018  16.285  0.00  0.00    -0.390 OA
ATOM     24  H   UNL     1      11.706   9.631  16.435  0.00  0.00    +0.210 HD
ENDBRANCH  12   1
TORSDOF 4
ENDMDL
MODEL 2
REMARK VINA RESULT:      -7.1      1.847      3.703
REMARK  Name = 26743552
REMARK  4 active torsions:
REMARK  status: ('A' for Active; 'I' for Inactive)
REMARK    1  A    between atoms: O_1  and  C_12
REMARK    2  A    between atoms: N_3  and  C_6
REMARK    3  A    between atoms: C_7  and  C_16
REMARK    4  A    between atoms: C_17  and  C_18
REMARK                            x       y       z     vdW  Elec       q    Type
REMARK                         _______ _______ _______ _____ _____    ______ ____
ROOT
ATOM      3  N   UNL     1      12.286   8.367  19.431  0.00  0.00    -0.286 NA
ATOM      7  C   UNL     1      13.167   8.487  20.612  0.00  0.00    +0.149 C 
ATOM      8  C   UNL     1      10.915   8.443  19.929  0.00  0.00    +0.116 C 
ATOM     11  C   UNL     1      12.333   7.935  21.782  0.00  0.00    +0.061 C 
ATOM     12  C   UNL     1      10.984   7.575  21.171  0.00  0.00    +0.130 C 
ENDROOT
BRANCH   3   6
ATOM      6  C   UNL     1      12.557   9.375  18.406  0.00  0.00    +0.058 C 
ATOM      9  C   UNL     1      13.471  10.465  18.976  0.00  0.00    +0.019 C 
ATOM     10  C   UNL     1      13.187   8.711  17.178  0.00  0.00    +0.019 C 
ATOM     13  C   UNL     1      13.837  11.497  17.911  0.00  0.00    +0.002 C 
ATOM     14  C   UNL     1      13.553   9.745  16.114  0.00  0.00    +0.002 C 
ATOM     15  C   UNL     1      14.455  10.839  16.679  0.00  0.00    +0.000 C 
ENDBRANCH   3   6
BRANCH   7  16
ATOM      2  O   UNL     1      14.463   6.660  19.631  0.00  0.00    -0.336 OA
ATOM      4  N   UNL     1      15.656   8.026  20.945  0.00  0.00    -0.190 NA
ATOM      5  N   UNL     1      15.772   6.164  19.621  0.00  0.00    -0.056 NA
ATOM     16  C   UNL     1      14.482   7.757  20.434  0.00  0.00    +0.245 A 
ATOM     17  C   UNL     1      16.416   7.022  20.418  0.00  0.00    +0.202 A 
BRANCH  17  18
ATOM     18  C   UNL     1      17.816   6.906  20.708  0.00  0.00    +0.022 A 
ATOM     19  C   UNL     1      18.440   7.851  21.522  0.00  0.00    +0.012 A 
ATOM     20  C   UNL     1      18.553   5.848  20.175  0.00  0.00    +0.012 A 
ATOM     21  C   UNL     1      19.802   7.738  21.803  0.00  0.00    +0.001 A 
ATOM     22  C   UNL     1      19.915   5.736  20.457  0.00  0.00    +0.001 A 
ATOM     23  C   UNL     1      20.539   6.681  21.270  0.00  0.00    +0.000 A 
ENDBRANCH  17  18
ENDBRANCH   7  16
BRANCH  12   1
ATOM      1  O   UNL     1       9.932   7.861  22.071  0.00  0.00    -0.390 OA
ATOM     24  H   UNL     1       9.972   8.811  22.275  0.00  0.00    +0.210 HD
ENDBRANCH  12   1
TORSDOF 4
ENDMDL
MODEL 3
REMARK VINA RESULT:      -7.1      4.256      7.604
REMARK  Name = 26743552
REMARK  4 active torsions:
REMARK  status: ('A' for Active; 'I' for Inactive)
REMARK    1  A    between atoms: O_1  and  C_12
REMARK    2  A    between atoms: N_3  and  C_6
REMARK    3  A    between atoms: C_7  and  C_16
REMARK    4  A    between atoms: C_17  and  C_18
REMARK                            x       y       z     vdW  Elec       q    Type
REMARK                         _______ _______ _______ _____ _____    ______ ____
ROOT
ATOM      3  N   UNL     1      12.415   8.240  20.130  0.00  0.00    -0.286 NA
ATOM      7  C   UNL     1      11.280   8.711  20.950  0.00  0.00    +0.149 C 
ATOM      8  C   UNL     1      12.170   6.826  19.859  0.00  0.00    +0.116 C 
ATOM     11  C   UNL     1      10.792   7.461  21.703  0.00  0.00    +0.061 C 
ATOM     12  C   UNL     1      11.684   6.329  21.207  0.00  0.00    +0.130 C 
ENDROOT
BRANCH   3   6
ATOM      6  C   UNL     1      12.599   9.012  18.902  0.00  0.00    +0.058 C 
ATOM      9  C   UNL     1      14.078   9.007  18.501  0.00  0.00    +0.019 C 
ATOM     10  C   UNL     1      11.722   8.434  17.788  0.00  0.00    +0.019 C 
ATOM     13  C   UNL     1      14.299   9.740  17.179  0.00  0.00    +0.002 C 
ATOM     14  C   UNL     1      11.944   9.169  16.467  0.00  0.00    +0.002 C 
ATOM     15  C   UNL     1      13.417   9.176  16.068  0.00  0.00    +0.000 C 
ENDBRANCH   3   6
BRANCH   7  16
ATOM      2  O   UNL     1      12.954   9.870  22.303  0.00  0.00    -0.336 OA
ATOM      4  N   UNL     1      10.926  10.819  22.347  0.00  0.00    -0.190 NA
ATOM      5  N   UNL     1      13.065  10.988  23.138  0.00  0.00    -0.056 NA
ATOM     16  C   UNL     1      11.663   9.843  21.880  0.00  0.00    +0.245 A 
ATOM     17  C   UNL     1      11.829  11.496  23.114  0.00  0.00    +0.202 A 
BRANCH  17  18
ATOM     18  C   UNL     1      11.465  12.676  23.843  0.00  0.00    +0.022 A 
ATOM     19  C   UNL     1      10.907  12.564  25.117  0.00  0.00    +0.012 A 
ATOM     20  C   UNL     1      11.666  13.936  23.278  0.00  0.00    +0.012 A 
ATOM     21  C   UNL     1      10.552  13.711  25.826  0.00  0.00    +0.001 A 
ATOM     22  C   UNL     1      11.310  15.083  23.987  0.00  0.00    +0.001 A 
ATOM     23  C   UNL     1      10.753  14.970  25.261  0.00  0.00    +0.000 A 
ENDBRANCH  17  18
ENDBRANCH   7  16
BRANCH  12   1
ATOM      1  O   UNL     1      10.949   5.126  21.089  0.00  0.00    -0.390 OA
ATOM     24  H   UNL     1      11.103   4.609  21.899  0.00  0.00    +0.210 HD
ENDBRANCH  12   1
TORSDOF 4
ENDMDL
MODEL 4
REMARK VINA RESULT:      -7.1      2.655      6.592
REMARK  Name = 26743552
REMARK  4 active torsions:
REMARK  status: ('A' for Active; 'I' for Inactive)
REMARK    1  A    between atoms: O_1  and  C_12
REMARK    2  A    between atoms: N_3  and  C_6
REMARK    3  A    between atoms: C_7  and  C_16
REMARK    4  A    between atoms: C_17  and  C_18
REMARK                            x       y       z     vdW  Elec       q    Type
REMARK                         _______ _______ _______ _____ _____    ______ ____
ROOT
ATOM      3  N   UNL     1      14.833   7.833  19.959  0.00  0.00    -0.286 NA
ATOM      7  C   UNL     1      14.129   7.250  18.800  0.00  0.00    +0.149 C 
ATOM      8  C   UNL     1      14.237   7.234  21.150  0.00  0.00    +0.116 C 
ATOM     11  C   UNL     1      12.730   6.887  19.330  0.00  0.00    +0.061 C 
ATOM     12  C   UNL     1      12.759   7.261  20.807  0.00  0.00    +0.130 C 
ENDROOT
BRANCH   3   6
ATOM      6  C   UNL     1      16.282   7.638  19.912  0.00  0.00    +0.058 C 
ATOM      9  C   UNL     1      16.894   7.948  21.282  0.00  0.00    +0.019 C 
ATOM     10  C   UNL     1      16.600   6.205  19.475  0.00  0.00    +0.019 C 
ATOM     13  C   UNL     1      18.398   7.682  21.293  0.00  0.00    +0.002 C 
ATOM     14  C   UNL     1      18.105   5.941  19.486  0.00  0.00    +0.002 C 
ATOM     15  C   UNL     1      18.722   6.258  20.846  0.00  0.00    +0.000 C 
ENDBRANCH   3   6
BRANCH   7  16
ATOM      2  O   UNL     1      13.592   7.678  16.453  0.00  0.00    -0.336 OA
ATOM      4  N   UNL     1      14.442   9.446  17.534  0.00  0.00    -0.190 NA
ATOM      5  N   UNL     1      13.645   8.718  15.518  0.00  0.00    -0.056 NA
ATOM     16  C   UNL     1      14.080   8.190  17.614  0.00  0.00    +0.245 A 
ATOM     17  C   UNL     1      14.157   9.726  16.230  0.00  0.00    +0.202 A 
BRANCH  17  18
ATOM     18  C   UNL     1      14.395  11.025  15.669  0.00  0.00    +0.022 A 
ATOM     19  C   UNL     1      13.619  11.476  14.602  0.00  0.00    +0.012 A 
ATOM     20  C   UNL     1      15.403  11.836  16.191  0.00  0.00    +0.012 A 
ATOM     21  C   UNL     1      13.850  12.739  14.056  0.00  0.00    +0.001 A 
ATOM     22  C   UNL     1      15.635  13.099  15.644  0.00  0.00    +0.001 A 
ATOM     23  C   UNL     1      14.858  13.550  14.577  0.00  0.00    +0.000 A 
ENDBRANCH  17  18
ENDBRANCH   7  16
BRANCH  12   1
ATOM      1  O   UNL     1      12.025   6.328  21.576  0.00  0.00    -0.390 OA
ATOM     24  H   UNL     1      11.476   5.811  20.961  0.00  0.00    +0.210 HD
ENDBRANCH  12   1
TORSDOF 4
ENDMDL
MODEL 5
REMARK VINA RESULT:      -7.1      1.918      3.860
REMARK  Name = 26743552
REMARK  4 active torsions:
REMARK  status: ('A' for Active; 'I' for Inactive)
REMARK    1  A    between atoms: O_1  and  C_12
REMARK    2  A    between atoms: N_3  and  C_6
REMARK    3  A    between atoms: C_7  and  C_16
REMARK    4  A    between atoms: C_17  and  C_18
REMARK                            x       y       z     vdW  Elec       q    Type
REMARK                         _______ _______ _______ _____ _____    ______ ____
ROOT
ATOM      3  N   UNL     1      13.966   7.745  18.547  0.00  0.00    -0.286 NA
ATOM      7  C   UNL     1      14.613   7.671  19.873  0.00  0.00    +0.149 C 
ATOM      8  C   UNL     1      12.526   7.757  18.791  0.00  0.00    +0.116 C 
ATOM     11  C   UNL     1      13.590   6.954  20.772  0.00  0.00    +0.061 C 
ATOM     12  C   UNL     1      12.383   6.706  19.875  0.00  0.00    +0.130 C 
ENDROOT
BRANCH   3   6
ATOM      6  C   UNL     1      14.400   8.896  17.757  0.00  0.00    +0.058 C 
ATOM      9  C   UNL     1      14.148   8.630  16.268  0.00  0.00    +0.019 C 
ATOM     10  C   UNL     1      13.666  10.156  18.225  0.00  0.00    +0.019 C 
ATOM     13  C   UNL     1      14.519   9.843  15.416  0.00  0.00    +0.002 C 
ATOM     14  C   UNL     1      14.039  11.367  17.372  0.00  0.00    +0.002 C 
ATOM     15  C   UNL     1      13.800  11.104  15.887  0.00  0.00    +0.000 C 
ENDBRANCH   3   6
BRANCH   7  16
ATOM      2  O   UNL     1      16.170   6.144  18.767  0.00  0.00    -0.336 OA
ATOM      4  N   UNL     1      16.950   7.023  20.673  0.00  0.00    -0.190 NA
ATOM      5  N   UNL     1      17.453   5.613  18.944  0.00  0.00    -0.056 NA
ATOM     16  C   UNL     1      15.952   6.964  19.829  0.00  0.00    +0.245 A 
ATOM     17  C   UNL     1      17.848   6.178  20.089  0.00  0.00    +0.202 A 
BRANCH  17  18
ATOM     18  C   UNL     1      19.132   5.920  20.674  0.00  0.00    +0.022 A 
ATOM     19  C   UNL     1      19.550   6.652  21.786  0.00  0.00    +0.012 A 
ATOM     20  C   UNL     1      19.963   4.939  20.131  0.00  0.00    +0.012 A 
ATOM     21  C   UNL     1      20.799   6.402  22.355  0.00  0.00    +0.001 A 
ATOM     22  C   UNL     1      21.211   4.690  20.701  0.00  0.00    +0.001 A 
ATOM     23  C   UNL     1      21.629   5.422  21.813  0.00  0.00    +0.000 A 
ENDBRANCH  17  18
ENDBRANCH   7  16
BRANCH  12   1
ATOM      1  O   UNL     1      11.178   6.860  20.601  0.00  0.00    -0.390 OA
ATOM     24  H   UNL     1      11.410   6.903  21.545  0.00  0.00    +0.210 HD
ENDBRANCH  12   1
TORSDOF 4
ENDMDL
MODEL 6
REMARK VINA RESULT:      -7.0      2.274      3.740
REMARK  Name = 26743552
REMARK  4 active torsions:
REMARK  status: ('A' for Active; 'I' for Inactive)
REMARK    1  A    between atoms: O_1  and  C_12
REMARK    2  A    between atoms: N_3  and  C_6
REMARK    3  A    between atoms: C_7  and  C_16
REMARK    4  A    between atoms: C_17  and  C_18
REMARK                            x       y       z     vdW  Elec       q    Type
REMARK                         _______ _______ _______ _____ _____    ______ ____
ROOT
ATOM      3  N   UNL     1      12.408   8.956  20.580  0.00  0.00    -0.286 NA
ATOM      7  C   UNL     1      13.100   8.088  21.555  0.00  0.00    +0.149 C 
ATOM      8  C   UNL     1      10.986   8.889  20.903  0.00  0.00    +0.116 C 
ATOM     11  C   UNL     1      12.057   7.027  21.948  0.00  0.00    +0.061 C 
ATOM     12  C   UNL     1      10.797   7.409  21.179  0.00  0.00    +0.130 C 
ENDROOT
BRANCH   3   6
ATOM      6  C   UNL     1      12.907  10.331  20.576  0.00  0.00    +0.058 C 
ATOM      9  C   UNL     1      13.197  10.776  19.139  0.00  0.00    +0.019 C 
ATOM     10  C   UNL     1      11.887  11.257  21.246  0.00  0.00    +0.019 C 
ATOM     13  C   UNL     1      13.648  12.234  19.087  0.00  0.00    +0.002 C 
ATOM     14  C   UNL     1      12.340  12.715  21.194  0.00  0.00    +0.002 C 
ATOM     15  C   UNL     1      12.640  13.160  19.765  0.00  0.00    +0.000 C 
ENDBRANCH   3   6
BRANCH   7  16
ATOM      2  O   UNL     1      14.252   6.792  19.832  0.00  0.00    -0.336 OA
ATOM      4  N   UNL     1      15.589   7.523  21.473  0.00  0.00    -0.190 NA
ATOM      5  N   UNL     1      15.537   6.334  19.519  0.00  0.00    -0.056 NA
ATOM     16  C   UNL     1      14.371   7.482  20.996  0.00  0.00    +0.245 A 
ATOM     17  C   UNL     1      16.270   6.805  20.533  0.00  0.00    +0.202 A 
BRANCH  17  18
ATOM     18  C   UNL     1      17.682   6.577  20.636  0.00  0.00    +0.022 A 
ATOM     19  C   UNL     1      18.458   7.378  21.474  0.00  0.00    +0.012 A 
ATOM     20  C   UNL     1      18.280   5.555  19.898  0.00  0.00    +0.012 A 
ATOM     21  C   UNL     1      19.831   7.157  21.575  0.00  0.00    +0.001 A 
ATOM     22  C   UNL     1      19.654   5.334  19.999  0.00  0.00    +0.001 A 
ATOM     23  C   UNL     1      20.429   6.136  20.837  0.00  0.00    +0.000 A 
ENDBRANCH  17  18
ENDBRANCH   7  16
BRANCH  12   1
ATOM      1  O   UNL     1       9.641   7.162  21.955  0.00  0.00    -0.390 OA
ATOM     24  H   UNL     1       9.936   6.863  22.832  0.00  0.00    +0.210 HD
ENDBRANCH  12   1
TORSDOF 4
ENDMDL
MODEL 7
REMARK VINA RESULT:      -6.7      3.141      7.089
REMARK  Name = 26743552
REMARK  4 active torsions:
REMARK  status: ('A' for Active; 'I' for Inactive)
REMARK    1  A    between atoms: O_1  and  C_12
REMARK    2  A    between atoms: N_3  and  C_6
REMARK    3  A    between atoms: C_7  and  C_16
REMARK    4  A    between atoms: C_17  and  C_18
REMARK                            x       y       z     vdW  Elec       q    Type
REMARK                         _______ _______ _______ _____ _____    ______ ____
ROOT
ATOM      3  N   UNL     1      13.743   8.814  19.290  0.00  0.00    -0.286 NA
ATOM      7  C   UNL     1      12.937   7.925  20.151  0.00  0.00    +0.149 C 
ATOM      8  C   UNL     1      14.869   8.017  18.811  0.00  0.00    +0.116 C 
ATOM     11  C   UNL     1      13.940   6.898  20.705  0.00  0.00    +0.061 C 
ATOM     12  C   UNL     1      15.274   7.263  20.064  0.00  0.00    +0.130 C 
ENDROOT
BRANCH   3   6
ATOM      6  C   UNL     1      12.977   9.401  18.191  0.00  0.00    +0.058 C 
ATOM      9  C   UNL     1      13.918   9.760  17.035  0.00  0.00    +0.019 C 
ATOM     10  C   UNL     1      11.888   8.425  17.735  0.00  0.00    +0.019 C 
ATOM     13  C   UNL     1      13.143  10.307  15.837  0.00  0.00    +0.002 C 
ATOM     14  C   UNL     1      11.115   8.974  16.537  0.00  0.00    +0.002 C 
ATOM     15  C   UNL     1      12.048   9.343  15.387  0.00  0.00    +0.000 C 
ENDBRANCH   3   6
BRANCH   7  16
ATOM      2  O   UNL     1      11.358   7.950  22.017  0.00  0.00    -0.336 OA
ATOM      4  N   UNL     1      12.266   9.946  21.561  0.00  0.00    -0.190 NA
ATOM      5  N   UNL     1      10.808   8.848  22.940  0.00  0.00    -0.056 NA
ATOM     16  C   UNL     1      12.205   8.677  21.243  0.00  0.00    +0.245 A 
ATOM     17  C   UNL     1      11.392  10.003  22.607  0.00  0.00    +0.202 A 
BRANCH  17  18
ATOM     18  C   UNL     1      11.124  11.231  23.299  0.00  0.00    +0.022 A 
ATOM     19  C   UNL     1      11.085  11.251  24.693  0.00  0.00    +0.012 A 
ATOM     20  C   UNL     1      10.902  12.405  22.577  0.00  0.00    +0.012 A 
ATOM     21  C   UNL     1      10.825  12.445  25.366  0.00  0.00    +0.001 A 
ATOM     22  C   UNL     1      10.641  13.598  23.251  0.00  0.00    +0.001 A 
ATOM     23  C   UNL     1      10.603  13.618  24.645  0.00  0.00    +0.000 A 
ENDBRANCH  17  18
ENDBRANCH   7  16
BRANCH  12   1
ATOM      1  O   UNL     1      16.020   6.101  19.759  0.00  0.00    -0.390 OA
ATOM     24  H   UNL     1      15.455   5.333  19.952  0.00  0.00    +0.210 HD
ENDBRANCH  12   1
TORSDOF 4
ENDMDL
MODEL 8
REMARK VINA RESULT:      -6.5     31.671     32.900
REMARK  Name = 26743552
REMARK  4 active torsions:
REMARK  status: ('A' for Active; 'I' for Inactive)
REMARK    1  A    between atoms: O_1  and  C_12
REMARK    2  A    between atoms: N_3  and  C_6
REMARK    3  A    between atoms: C_7  and  C_16
REMARK    4  A    between atoms: C_17  and  C_18
REMARK                            x       y       z     vdW  Elec       q    Type
REMARK                         _______ _______ _______ _____ _____    ______ ____
ROOT
ATOM      3  N   UNL     1     -15.257   1.718  29.807  0.00  0.00    -0.286 NA
ATOM      7  C   UNL     1     -15.440   1.253  31.197  0.00  0.00    +0.149 C 
ATOM      8  C   UNL     1     -14.975   0.528  29.008  0.00  0.00    +0.116 C 
ATOM     11  C   UNL     1     -14.598  -0.030  31.299  0.00  0.00    +0.061 C 
ATOM     12  C   UNL     1     -14.016  -0.231  29.905  0.00  0.00    +0.130 C 
ENDROOT
BRANCH   3   6
ATOM      6  C   UNL     1     -16.402   2.467  29.293  0.00  0.00    +0.058 C 
ATOM      9  C   UNL     1     -15.917   3.735  28.580  0.00  0.00    +0.019 C 
ATOM     10  C   UNL     1     -17.222   1.583  28.350  0.00  0.00    +0.019 C 
ATOM     13  C   UNL     1     -17.082   4.506  27.963  0.00  0.00    +0.002 C 
ATOM     14  C   UNL     1     -18.387   2.356  27.733  0.00  0.00    +0.002 C 
ATOM     15  C   UNL     1     -17.910   3.625  27.032  0.00  0.00    +0.000 C 
ENDBRANCH   3   6
BRANCH   7  16
ATOM      2  O   UNL     1     -15.061   1.912  33.521  0.00  0.00    -0.336 OA
ATOM      4  N   UNL     1     -14.674   3.541  32.034  0.00  0.00    -0.190 NA
ATOM      5  N   UNL     1     -14.661   3.030  34.263  0.00  0.00    -0.056 NA
ATOM     16  C   UNL     1     -15.042   2.299  32.218  0.00  0.00    +0.245 A 
ATOM     17  C   UNL     1     -14.451   3.949  33.317  0.00  0.00    +0.202 A 
BRANCH  17  18
ATOM     18  C   UNL     1     -14.017   5.283  33.618  0.00  0.00    +0.022 A 
ATOM     19  C   UNL     1     -13.860   5.681  34.946  0.00  0.00    +0.012 A 
ATOM     20  C   UNL     1     -13.755   6.182  32.584  0.00  0.00    +0.012 A 
ATOM     21  C   UNL     1     -13.439   6.978  35.239  0.00  0.00    +0.001 A 
ATOM     22  C   UNL     1     -13.334   7.480  32.879  0.00  0.00    +0.001 A 
ATOM     23  C   UNL     1     -13.177   7.877  34.206  0.00  0.00    +0.000 A 
ENDBRANCH  17  18
ENDBRANCH   7  16
BRANCH  12   1
ATOM      1  O   UNL     1     -13.965  -1.606  29.575  0.00  0.00    -0.390 OA
ATOM     24  H   UNL     1     -13.276  -2.013  30.127  0.00  0.00    +0.210 HD
ENDBRANCH  12   1
TORSDOF 4
ENDMDL
MODEL 9
REMARK VINA RESULT:      -6.5     16.940     20.032
REMARK  Name = 26743552
REMARK  4 active torsions:
REMARK  status: ('A' for Active; 'I' for Inactive)
REMARK    1  A    between atoms: O_1  and  C_12
REMARK    2  A    between atoms: N_3  and  C_6
REMARK    3  A    between atoms: C_7  and  C_16
REMARK    4  A    between atoms: C_17  and  C_18
REMARK                            x       y       z     vdW  Elec       q    Type
REMARK                         _______ _______ _______ _____ _____    ______ ____
ROOT
ATOM      3  N   UNL     1      13.322   4.385  -0.325  0.00  0.00    -0.286 NA
ATOM      7  C   UNL     1      13.487   3.942   1.075  0.00  0.00    +0.149 C 
ATOM      8  C   UNL     1      14.528   3.967  -1.036  0.00  0.00    +0.116 C 
ATOM     11  C   UNL     1      15.009   3.915   1.303  0.00  0.00    +0.061 C 
ATOM     12  C   UNL     1      15.616   4.313  -0.037  0.00  0.00    +0.130 C 
ENDROOT
BRANCH   3   6
ATOM      6  C   UNL     1      12.106   3.872  -0.953  0.00  0.00    +0.058 C 
ATOM      9  C   UNL     1      11.430   4.982  -1.764  0.00  0.00    +0.019 C 
ATOM     10  C   UNL     1      12.446   2.669  -1.840  0.00  0.00    +0.019 C 
ATOM     13  C   UNL     1      10.195   4.462  -2.498  0.00  0.00    +0.002 C 
ATOM     14  C   UNL     1      11.210   2.151  -2.573  0.00  0.00    +0.002 C 
ATOM     15  C   UNL     1      10.526   3.257  -3.374  0.00  0.00    +0.000 C 
ENDBRANCH   3   6
BRANCH   7  16
ATOM      2  O   UNL     1      13.405   5.977   2.427  0.00  0.00    -0.336 OA
ATOM      4  N   UNL     1      11.590   4.678   2.618  0.00  0.00    -0.190 NA
ATOM      5  N   UNL     1      12.552   6.628   3.327  0.00  0.00    -0.056 NA
ATOM     16  C   UNL     1      12.763   4.837   2.058  0.00  0.00    +0.245 A 
ATOM     17  C   UNL     1      11.504   5.801   3.387  0.00  0.00    +0.202 A 
BRANCH  17  18
ATOM     18  C   UNL     1      10.357   6.068   4.205  0.00  0.00    +0.022 A 
ATOM     19  C   UNL     1       9.389   6.976   3.775  0.00  0.00    +0.012 A 
ATOM     20  C   UNL     1      10.208   5.420   5.433  0.00  0.00    +0.012 A 
ATOM     21  C   UNL     1       8.274   7.236   4.570  0.00  0.00    +0.001 A 
ATOM     22  C   UNL     1       9.092   5.681   6.228  0.00  0.00    +0.001 A 
ATOM     23  C   UNL     1       8.125   6.589   5.797  0.00  0.00    +0.000 A 
ENDBRANCH  17  18
ENDBRANCH   7  16
BRANCH  12   1
ATOM      1  O   UNL     1      16.805   3.589  -0.285  0.00  0.00    -0.390 OA
ATOM     24  H   UNL     1      17.420   4.186  -0.746  0.00  0.00    +0.210 HD
ENDBRANCH  12   1
TORSDOF 4
ENDMDL
MODEL 10
REMARK VINA RESULT:      -6.4     29.364     32.240
REMARK  Name = 26743552
REMARK  4 active torsions:
REMARK  status: ('A' for Active; 'I' for Inactive)
REMARK    1  A    between atoms: O_1  and  C_12
REMARK    2  A    between atoms: N_3  and  C_6
REMARK    3  A    between atoms: C_7  and  C_16
REMARK    4  A    between atoms: C_17  and  C_18
REMARK                            x       y       z     vdW  Elec       q    Type
REMARK                         _______ _______ _______ _____ _____    ______ ____
ROOT
ATOM      3  N   UNL     1     -17.090   2.573  27.194  0.00  0.00    -0.286 NA
ATOM      7  C   UNL     1     -16.364   1.827  26.146  0.00  0.00    +0.149 C 
ATOM      8  C   UNL     1     -17.880   1.589  27.929  0.00  0.00    +0.116 C 
ATOM     11  C   UNL     1     -17.250   0.604  25.847  0.00  0.00    +0.061 C 
ATOM     12  C   UNL     1     -18.426   0.725  26.808  0.00  0.00    +0.130 C 
ENDROOT
BRANCH   3   6
ATOM      6  C   UNL     1     -16.207   3.338  28.073  0.00  0.00    +0.058 C 
ATOM      9  C   UNL     1     -17.028   4.341  28.891  0.00  0.00    +0.019 C 
ATOM     10  C   UNL     1     -15.429   2.386  28.987  0.00  0.00    +0.019 C 
ATOM     13  C   UNL     1     -16.149   5.107  29.878  0.00  0.00    +0.002 C 
ATOM     14  C   UNL     1     -14.551   3.154  29.973  0.00  0.00    +0.002 C 
ATOM     15  C   UNL     1     -15.363   4.162  30.782  0.00  0.00    +0.000 C 
ENDBRANCH   3   6
BRANCH   7  16
ATOM      2  O   UNL     1     -16.638   2.232  23.751  0.00  0.00    -0.336 OA
ATOM      4  N   UNL     1     -15.395   3.770  24.801  0.00  0.00    -0.190 NA
ATOM      5  N   UNL     1     -16.253   3.157  22.772  0.00  0.00    -0.056 NA
ATOM     16  C   UNL     1     -16.091   2.667  24.916  0.00  0.00    +0.245 A 
ATOM     17  C   UNL     1     -15.523   4.033  23.469  0.00  0.00    +0.202 A 
BRANCH  17  18
ATOM     18  C   UNL     1     -14.909   5.179  22.864  0.00  0.00    +0.022 A 
ATOM     19  C   UNL     1     -15.486   6.440  23.017  0.00  0.00    +0.012 A 
ATOM     20  C   UNL     1     -13.736   5.034  22.122  0.00  0.00    +0.012 A 
ATOM     21  C   UNL     1     -14.890   7.556  22.429  0.00  0.00    +0.001 A 
ATOM     22  C   UNL     1     -13.141   6.150  21.534  0.00  0.00    +0.001 A 
ATOM     23  C   UNL     1     -13.718   7.411  21.688  0.00  0.00    +0.000 A 
ENDBRANCH  17  18
ENDBRANCH   7  16
BRANCH  12   1
ATOM      1  O   UNL     1     -18.827  -0.548  27.274  0.00  0.00    -0.390 OA
ATOM     24  H   UNL     1     -18.121  -1.178  27.048  0.00  0.00    +0.210 HD
ENDBRANCH  12   1
TORSDOF 4
ENDMDL
