MODEL 1
REMARK VINA RESULT:      -6.4      0.000      0.000
REMARK  Name = 38027645
REMARK  15 active torsions:
REMARK  status: ('A' for Active; 'I' for Inactive)
REMARK    1  A    between atoms: S_1  and  N_6
REMARK    2  A    between atoms: S_1  and  C_22
REMARK    3  A    between atoms: O_5  and  C_26
REMARK    4  A    between atoms: O_5  and  C_31
REMARK    5  A    between atoms: N_6  and  C_16
REMARK    6  A    between atoms: N_7  and  C_23
REMARK    7  A    between atoms: C_9  and  C_13
REMARK    8  A    between atoms: C_10  and  C_16
REMARK    9  A    between atoms: C_12  and  C_17
REMARK   10  A    between atoms: C_13  and  C_18
REMARK   11  A    between atoms: C_13  and  C_19
REMARK   12  A    between atoms: C_14  and  C_20
REMARK   13  A    between atoms: C_17  and  C_21
REMARK   14  A    between atoms: C_23  and  C_26
REMARK   15  A    between atoms: C_27  and  C_30
REMARK                            x       y       z     vdW  Elec       q    Type
REMARK                         _______ _______ _______ _____ _____    ______ ____
ROOT
ATOM      9  C   UNL     1      16.822   8.297  21.042  0.00  0.00    +0.000 C 
ATOM     10  C   UNL     1      16.410   7.361  19.878  0.00  0.00    +0.030 C 
ATOM     11  C   UNL     1      18.337   8.544  21.021  0.00  0.00    +0.012 C 
ATOM     12  C   UNL     1      19.142   7.236  21.140  0.00  0.00    +0.023 C 
ATOM     14  C   UNL     1      18.617   6.166  20.203  0.00  0.00    -0.073 C 
ATOM     15  C   UNL     1      17.399   6.246  19.639  0.00  0.00    -0.023 C 
ATOM     20  C   UNL     1      19.544   5.023  19.894  0.00  0.00    +0.039 C 
ENDROOT
BRANCH   9  13
ATOM     13  C   UNL     1      16.077   9.635  20.987  0.00  0.00    -0.013 C 
ATOM     18  C   UNL     1      15.395   9.920  22.321  0.00  0.00    +0.007 C 
ATOM     19  C   UNL     1      17.037  10.762  20.618  0.00  0.00    +0.007 C 
ENDBRANCH   9  13
BRANCH  10  16
ATOM     16  C   UNL     1      15.017   6.766  20.113  0.00  0.00    +0.113 C 
BRANCH  16   6
ATOM      6  N   UNL     1      14.236   6.867  18.869  0.00  0.00    -0.189 NA
ATOM     32  H   UNL     1      14.756   7.093  18.013  0.00  0.00    +0.148 HD
BRANCH   6   1
ATOM      1  S   UNL     1      12.584   7.281  18.925  0.00  0.00    +0.058 S 
ATOM      3  O   UNL     1      11.941   6.545  19.996  0.00  0.00    -0.153 OA
ATOM      4  O   UNL     1      12.039   7.239  17.582  0.00  0.00    -0.153 OA
BRANCH   1  22
ATOM     22  C   UNL     1      12.657   8.983  19.399  0.00  0.00    +0.106 A 
ATOM     24  C   UNL     1      12.049   9.404  20.582  0.00  0.00    +0.047 A 
ATOM     25  C   UNL     1      13.319   9.904  18.589  0.00  0.00    +0.028 A 
ATOM     27  C   UNL     1      12.104  10.747  20.954  0.00  0.00    +0.054 A 
ATOM     28  C   UNL     1      13.374  11.247  18.961  0.00  0.00    +0.003 A 
ATOM     29  C   UNL     1      12.767  11.668  20.144  0.00  0.00    +0.019 A 
BRANCH  27  30
ATOM      8  N   UNL     1      10.978  11.529  23.150  0.00  0.00    -0.191 NA
ATOM     30  C   UNL     1      11.482  11.179  22.166  0.00  0.00    +0.099 C 
ENDBRANCH  27  30
ENDBRANCH   1  22
ENDBRANCH   6   1
ENDBRANCH  16   6
ENDBRANCH  10  16
BRANCH  12  17
ATOM     17  C   UNL     1      19.169   6.732  22.587  0.00  0.00    +0.103 C 
BRANCH  17  21
ATOM      2  O   UNL     1      21.260   7.908  22.902  0.00  0.00    -0.276 OA
ATOM      7  N   UNL     1      19.981   7.330  24.754  0.00  0.00    -0.313 N 
ATOM     21  C   UNL     1      20.262   7.392  23.398  0.00  0.00    +0.214 C 
ATOM     33  H   UNL     1      19.126   6.882  25.070  0.00  0.00    +0.149 HD
BRANCH   7  23
ATOM     23  C   UNL     1      20.853   7.880  25.768  0.00  0.00    +0.132 C 
BRANCH  23  26
ATOM     26  C   UNL     1      20.213   7.713  27.134  0.00  0.00    +0.178 C 
BRANCH  26   5
ATOM      5  O   UNL     1      19.918   6.340  27.353  0.00  0.00    -0.381 OA
ATOM     31  C   UNL     1      21.067   5.623  27.785  0.00  0.00    +0.194 C 
ENDBRANCH  26   5
ENDBRANCH  23  26
ENDBRANCH   7  23
ENDBRANCH  17  21
ENDBRANCH  12  17
TORSDOF 11
ENDMDL
MODEL 2
REMARK VINA RESULT:      -6.0      1.940      2.826
REMARK  Name = 38027645
REMARK  15 active torsions:
REMARK  status: ('A' for Active; 'I' for Inactive)
REMARK    1  A    between atoms: S_1  and  N_6
REMARK    2  A    between atoms: S_1  and  C_22
REMARK    3  A    between atoms: O_5  and  C_26
REMARK    4  A    between atoms: O_5  and  C_31
REMARK    5  A    between atoms: N_6  and  C_16
REMARK    6  A    between atoms: N_7  and  C_23
REMARK    7  A    between atoms: C_9  and  C_13
REMARK    8  A    between atoms: C_10  and  C_16
REMARK    9  A    between atoms: C_12  and  C_17
REMARK   10  A    between atoms: C_13  and  C_18
REMARK   11  A    between atoms: C_13  and  C_19
REMARK   12  A    between atoms: C_14  and  C_20
REMARK   13  A    between atoms: C_17  and  C_21
REMARK   14  A    between atoms: C_23  and  C_26
REMARK   15  A    between atoms: C_27  and  C_30
REMARK                            x       y       z     vdW  Elec       q    Type
REMARK                         _______ _______ _______ _____ _____    ______ ____
ROOT
ATOM      9  C   UNL     1      16.506   8.320  21.148  0.00  0.00    +0.000 C 
ATOM     10  C   UNL     1      15.980   7.356  20.056  0.00  0.00    +0.030 C 
ATOM     11  C   UNL     1      18.000   8.605  20.937  0.00  0.00    +0.012 C 
ATOM     12  C   UNL     1      18.849   7.320  20.971  0.00  0.00    +0.023 C 
ATOM     14  C   UNL     1      18.242   6.222  20.121  0.00  0.00    -0.073 C 
ATOM     15  C   UNL     1      16.962   6.262  19.711  0.00  0.00    -0.023 C 
ATOM     20  C   UNL     1      19.154   5.098  19.714  0.00  0.00    +0.039 C 
ENDROOT
BRANCH   9  13
ATOM     13  C   UNL     1      15.725   9.638  21.168  0.00  0.00    -0.013 C 
ATOM     18  C   UNL     1      15.030   9.825  22.513  0.00  0.00    +0.007 C 
ATOM     19  C   UNL     1      16.654  10.812  20.871  0.00  0.00    +0.007 C 
ENDBRANCH   9  13
BRANCH  10  16
ATOM     16  C   UNL     1      14.643   6.730  20.469  0.00  0.00    +0.113 C 
BRANCH  16   6
ATOM      6  N   UNL     1      13.834   6.486  19.265  0.00  0.00    -0.189 NA
ATOM     32  H   UNL     1      14.177   5.769  18.613  0.00  0.00    +0.148 HD
BRANCH   6   1
ATOM      1  S   UNL     1      12.842   7.719  18.633  0.00  0.00    +0.058 S 
ATOM      3  O   UNL     1      11.863   7.135  17.737  0.00  0.00    -0.153 OA
ATOM      4  O   UNL     1      13.678   8.816  18.184  0.00  0.00    -0.153 OA
BRANCH   1  22
ATOM     22  C   UNL     1      11.994   8.275  20.081  0.00  0.00    +0.106 A 
ATOM     24  C   UNL     1      12.010   9.628  20.422  0.00  0.00    +0.047 A 
ATOM     25  C   UNL     1      11.312   7.361  20.883  0.00  0.00    +0.028 A 
ATOM     27  C   UNL     1      11.342  10.066  21.566  0.00  0.00    +0.054 A 
ATOM     28  C   UNL     1      10.645   7.799  22.027  0.00  0.00    +0.003 A 
ATOM     29  C   UNL     1      10.660   9.152  22.368  0.00  0.00    +0.019 A 
BRANCH  27  30
ATOM      8  N   UNL     1      11.370  12.576  22.200  0.00  0.00    -0.191 NA
ATOM     30  C   UNL     1      11.357  11.451  21.916  0.00  0.00    +0.099 C 
ENDBRANCH  27  30
ENDBRANCH   1  22
ENDBRANCH   6   1
ENDBRANCH  16   6
ENDBRANCH  10  16
BRANCH  12  17
ATOM     17  C   UNL     1      19.068   6.841  22.410  0.00  0.00    +0.103 C 
BRANCH  17  21
ATOM      2  O   UNL     1      21.123   7.825  23.225  0.00  0.00    -0.276 OA
ATOM      7  N   UNL     1      21.098   5.591  22.587  0.00  0.00    -0.313 N 
ATOM     21  C   UNL     1      20.532   6.839  22.792  0.00  0.00    +0.214 C 
ATOM     33  H   UNL     1      20.525   4.833  22.226  0.00  0.00    +0.149 HD
BRANCH   7  23
ATOM     23  C   UNL     1      22.486   5.297  22.865  0.00  0.00    +0.132 C 
BRANCH  23  26
ATOM     26  C   UNL     1      22.638   3.821  23.186  0.00  0.00    +0.178 C 
BRANCH  26   5
ATOM      5  O   UNL     1      23.756   3.298  22.480  0.00  0.00    -0.381 OA
ATOM     31  C   UNL     1      23.536   3.305  21.076  0.00  0.00    +0.194 C 
ENDBRANCH  26   5
ENDBRANCH  23  26
ENDBRANCH   7  23
ENDBRANCH  17  21
ENDBRANCH  12  17
TORSDOF 11
ENDMDL
MODEL 3
REMARK VINA RESULT:      -6.0      1.698      2.308
REMARK  Name = 38027645
REMARK  15 active torsions:
REMARK  status: ('A' for Active; 'I' for Inactive)
REMARK    1  A    between atoms: S_1  and  N_6
REMARK    2  A    between atoms: S_1  and  C_22
REMARK    3  A    between atoms: O_5  and  C_26
REMARK    4  A    between atoms: O_5  and  C_31
REMARK    5  A    between atoms: N_6  and  C_16
REMARK    6  A    between atoms: N_7  and  C_23
REMARK    7  A    between atoms: C_9  and  C_13
REMARK    8  A    between atoms: C_10  and  C_16
REMARK    9  A    between atoms: C_12  and  C_17
REMARK   10  A    between atoms: C_13  and  C_18
REMARK   11  A    between atoms: C_13  and  C_19
REMARK   12  A    between atoms: C_14  and  C_20
REMARK   13  A    between atoms: C_17  and  C_21
REMARK   14  A    between atoms: C_23  and  C_26
REMARK   15  A    between atoms: C_27  and  C_30
REMARK                            x       y       z     vdW  Elec       q    Type
REMARK                         _______ _______ _______ _____ _____    ______ ____
ROOT
ATOM      9  C   UNL     1      16.745   8.363  21.175  0.00  0.00    +0.000 C 
ATOM     10  C   UNL     1      16.234   7.411  20.066  0.00  0.00    +0.030 C 
ATOM     11  C   UNL     1      18.254   8.602  21.024  0.00  0.00    +0.012 C 
ATOM     12  C   UNL     1      19.062   7.293  21.096  0.00  0.00    +0.023 C 
ATOM     14  C   UNL     1      18.456   6.210  20.225  0.00  0.00    -0.073 C 
ATOM     15  C   UNL     1      17.196   6.286  19.763  0.00  0.00    -0.023 C 
ATOM     20  C   UNL     1      19.350   5.057  19.859  0.00  0.00    +0.039 C 
ENDROOT
BRANCH   9  13
ATOM     13  C   UNL     1      16.004   9.704  21.160  0.00  0.00    -0.013 C 
ATOM     18  C   UNL     1      15.260   9.916  22.475  0.00  0.00    +0.007 C 
ATOM     19  C   UNL     1      16.979  10.848  20.898  0.00  0.00    +0.007 C 
ENDBRANCH   9  13
BRANCH  10  16
ATOM     16  C   UNL     1      14.863   6.827  20.426  0.00  0.00    +0.113 C 
BRANCH  16   6
ATOM      6  N   UNL     1      14.102   6.589  19.189  0.00  0.00    -0.189 NA
ATOM     32  H   UNL     1      14.646   6.457  18.328  0.00  0.00    +0.148 HD
BRANCH   6   1
ATOM      1  S   UNL     1      12.510   7.176  19.036  0.00  0.00    +0.058 S 
ATOM      3  O   UNL     1      11.700   6.653  20.119  0.00  0.00    -0.153 OA
ATOM      4  O   UNL     1      12.077   7.019  17.660  0.00  0.00    -0.153 OA
BRANCH   1  22
ATOM     22  C   UNL     1      12.737   8.907  19.311  0.00  0.00    +0.106 A 
ATOM     24  C   UNL     1      12.107   9.531  20.387  0.00  0.00    +0.047 A 
ATOM     25  C   UNL     1      13.544   9.650  18.449  0.00  0.00    +0.028 A 
ATOM     27  C   UNL     1      12.284  10.898  20.602  0.00  0.00    +0.054 A 
ATOM     28  C   UNL     1      13.721  11.016  18.664  0.00  0.00    +0.003 A 
ATOM     29  C   UNL     1      13.091  11.640  19.741  0.00  0.00    +0.019 A 
BRANCH  27  30
ATOM      8  N   UNL     1      11.116  12.057  22.601  0.00  0.00    -0.191 NA
ATOM     30  C   UNL     1      11.639  11.538  21.705  0.00  0.00    +0.099 C 
ENDBRANCH  27  30
ENDBRANCH   1  22
ENDBRANCH   6   1
ENDBRANCH  16   6
ENDBRANCH  10  16
BRANCH  12  17
ATOM     17  C   UNL     1      19.208   6.813  22.544  0.00  0.00    +0.103 C 
BRANCH  17  21
ATOM      2  O   UNL     1      21.112   5.409  23.054  0.00  0.00    -0.276 OA
ATOM      7  N   UNL     1      21.359   7.720  23.056  0.00  0.00    -0.313 N 
ATOM     21  C   UNL     1      20.649   6.539  22.910  0.00  0.00    +0.214 C 
ATOM     33  H   UNL     1      20.888   8.610  22.914  0.00  0.00    +0.149 HD
BRANCH   7  23
ATOM     23  C   UNL     1      22.761   7.762  23.406  0.00  0.00    +0.132 C 
BRANCH  23  26
ATOM     26  C   UNL     1      23.598   7.835  22.141  0.00  0.00    +0.178 C 
BRANCH  26   5
ATOM      5  O   UNL     1      24.723   8.674  22.368  0.00  0.00    -0.381 OA
ATOM     31  C   UNL     1      25.794   7.959  22.969  0.00  0.00    +0.194 C 
ENDBRANCH  26   5
ENDBRANCH  23  26
ENDBRANCH   7  23
ENDBRANCH  17  21
ENDBRANCH  12  17
TORSDOF 11
ENDMDL
MODEL 4
REMARK VINA RESULT:      -5.8      1.886      2.631
REMARK  Name = 38027645
REMARK  15 active torsions:
REMARK  status: ('A' for Active; 'I' for Inactive)
REMARK    1  A    between atoms: S_1  and  N_6
REMARK    2  A    between atoms: S_1  and  C_22
REMARK    3  A    between atoms: O_5  and  C_26
REMARK    4  A    between atoms: O_5  and  C_31
REMARK    5  A    between atoms: N_6  and  C_16
REMARK    6  A    between atoms: N_7  and  C_23
REMARK    7  A    between atoms: C_9  and  C_13
REMARK    8  A    between atoms: C_10  and  C_16
REMARK    9  A    between atoms: C_12  and  C_17
REMARK   10  A    between atoms: C_13  and  C_18
REMARK   11  A    between atoms: C_13  and  C_19
REMARK   12  A    between atoms: C_14  and  C_20
REMARK   13  A    between atoms: C_17  and  C_21
REMARK   14  A    between atoms: C_23  and  C_26
REMARK   15  A    between atoms: C_27  and  C_30
REMARK                            x       y       z     vdW  Elec       q    Type
REMARK                         _______ _______ _______ _____ _____    ______ ____
ROOT
ATOM      9  C   UNL     1      16.689   8.314  21.152  0.00  0.00    +0.000 C 
ATOM     10  C   UNL     1      16.183   7.368  20.035  0.00  0.00    +0.030 C 
ATOM     11  C   UNL     1      18.197   8.562  21.002  0.00  0.00    +0.012 C 
ATOM     12  C   UNL     1      19.012   7.256  21.063  0.00  0.00    +0.023 C 
ATOM     14  C   UNL     1      18.412   6.177  20.183  0.00  0.00    -0.073 C 
ATOM     15  C   UNL     1      17.150   6.251  19.723  0.00  0.00    -0.023 C 
ATOM     20  C   UNL     1      19.311   5.032  19.808  0.00  0.00    +0.039 C 
ENDROOT
BRANCH   9  13
ATOM     13  C   UNL     1      15.941   9.651  21.148  0.00  0.00    -0.013 C 
ATOM     18  C   UNL     1      15.236   9.870  22.483  0.00  0.00    +0.007 C 
ATOM     19  C   UNL     1      16.902  10.797  20.848  0.00  0.00    +0.007 C 
ENDBRANCH   9  13
BRANCH  10  16
ATOM     16  C   UNL     1      14.815   6.773  20.391  0.00  0.00    +0.113 C 
BRANCH  16   6
ATOM      6  N   UNL     1      14.046   6.563  19.155  0.00  0.00    -0.189 NA
ATOM     32  H   UNL     1      14.583   6.346  18.306  0.00  0.00    +0.148 HD
BRANCH   6   1
ATOM      1  S   UNL     1      12.520   7.295  18.959  0.00  0.00    +0.058 S 
ATOM      3  O   UNL     1      11.688   6.982  20.104  0.00  0.00    -0.153 OA
ATOM      4  O   UNL     1      12.039   7.036  17.615  0.00  0.00    -0.153 OA
BRANCH   1  22
ATOM     22  C   UNL     1      12.933   9.012  19.037  0.00  0.00    +0.106 A 
ATOM     24  C   UNL     1      13.808   9.563  18.101  0.00  0.00    +0.047 A 
ATOM     25  C   UNL     1      12.385   9.816  20.036  0.00  0.00    +0.028 A 
ATOM     27  C   UNL     1      14.136  10.917  18.165  0.00  0.00    +0.054 A 
ATOM     28  C   UNL     1      12.712  11.170  20.100  0.00  0.00    +0.003 A 
ATOM     29  C   UNL     1      13.588  11.721  19.164  0.00  0.00    +0.019 A 
BRANCH  27  30
ATOM      8  N   UNL     1      15.760  11.940  16.428  0.00  0.00    -0.191 NA
ATOM     30  C   UNL     1      15.032  11.482  17.206  0.00  0.00    +0.099 C 
ENDBRANCH  27  30
ENDBRANCH   1  22
ENDBRANCH   6   1
ENDBRANCH  16   6
ENDBRANCH  10  16
BRANCH  12  17
ATOM     17  C   UNL     1      19.161   6.765  22.507  0.00  0.00    +0.103 C 
BRANCH  17  21
ATOM      2  O   UNL     1      21.520   7.202  22.828  0.00  0.00    -0.276 OA
ATOM      7  N   UNL     1      19.972   8.152  24.277  0.00  0.00    -0.313 N 
ATOM     21  C   UNL     1      20.361   7.379  23.195  0.00  0.00    +0.214 C 
ATOM     33  H   UNL     1      18.985   8.240  24.503  0.00  0.00    +0.149 HD
BRANCH   7  23
ATOM     23  C   UNL     1      20.910   8.858  25.122  0.00  0.00    +0.132 C 
BRANCH  23  26
ATOM     26  C   UNL     1      21.057  10.287  24.633  0.00  0.00    +0.178 C 
BRANCH  26   5
ATOM      5  O   UNL     1      21.200  11.156  25.750  0.00  0.00    -0.381 OA
ATOM     31  C   UNL     1      22.552  11.232  26.180  0.00  0.00    +0.194 C 
ENDBRANCH  26   5
ENDBRANCH  23  26
ENDBRANCH   7  23
ENDBRANCH  17  21
ENDBRANCH  12  17
TORSDOF 11
ENDMDL
MODEL 5
REMARK VINA RESULT:      -5.8     15.467     19.109
REMARK  Name = 38027645
REMARK  15 active torsions:
REMARK  status: ('A' for Active; 'I' for Inactive)
REMARK    1  A    between atoms: S_1  and  N_6
REMARK    2  A    between atoms: S_1  and  C_22
REMARK    3  A    between atoms: O_5  and  C_26
REMARK    4  A    between atoms: O_5  and  C_31
REMARK    5  A    between atoms: N_6  and  C_16
REMARK    6  A    between atoms: N_7  and  C_23
REMARK    7  A    between atoms: C_9  and  C_13
REMARK    8  A    between atoms: C_10  and  C_16
REMARK    9  A    between atoms: C_12  and  C_17
REMARK   10  A    between atoms: C_13  and  C_18
REMARK   11  A    between atoms: C_13  and  C_19
REMARK   12  A    between atoms: C_14  and  C_20
REMARK   13  A    between atoms: C_17  and  C_21
REMARK   14  A    between atoms: C_23  and  C_26
REMARK   15  A    between atoms: C_27  and  C_30
REMARK                            x       y       z     vdW  Elec       q    Type
REMARK                         _______ _______ _______ _____ _____    ______ ____
ROOT
ATOM      9  C   UNL     1      12.582   4.535   1.936  0.00  0.00    +0.000 C 
ATOM     10  C   UNL     1      12.322   5.589   0.832  0.00  0.00    +0.030 C 
ATOM     11  C   UNL     1      11.256   4.066   2.552  0.00  0.00    +0.012 C 
ATOM     12  C   UNL     1      10.456   5.230   3.168  0.00  0.00    +0.023 C 
ATOM     14  C   UNL     1      10.385   6.420   2.233  0.00  0.00    -0.073 C 
ATOM     15  C   UNL     1      11.219   6.557   1.187  0.00  0.00    -0.023 C 
ATOM     20  C   UNL     1       9.303   7.429   2.502  0.00  0.00    +0.039 C 
ENDROOT
BRANCH   9  13
ATOM     13  C   UNL     1      13.359   3.328   1.399  0.00  0.00    -0.013 C 
ATOM     18  C   UNL     1      13.066   3.123  -0.084  0.00  0.00    +0.007 C 
ATOM     19  C   UNL     1      14.855   3.511   1.635  0.00  0.00    +0.007 C 
ENDBRANCH   9  13
BRANCH  10  16
ATOM     16  C   UNL     1      13.600   6.370   0.502  0.00  0.00    +0.113 C 
BRANCH  16   6
ATOM      6  N   UNL     1      13.812   7.402   1.529  0.00  0.00    -0.189 NA
ATOM     32  H   UNL     1      12.972   7.847   1.919  0.00  0.00    +0.148 HD
BRANCH   6   1
ATOM      1  S   UNL     1      15.267   8.288   1.569  0.00  0.00    +0.058 S 
ATOM      3  O   UNL     1      15.004   9.657   1.172  0.00  0.00    -0.153 OA
ATOM      4  O   UNL     1      16.305   7.522   0.906  0.00  0.00    -0.153 OA
BRANCH   1  22
ATOM     22  C   UNL     1      15.644   8.283   3.295  0.00  0.00    +0.106 A 
ATOM     24  C   UNL     1      14.751   7.712   4.203  0.00  0.00    +0.047 A 
ATOM     25  C   UNL     1      16.832   8.852   3.751  0.00  0.00    +0.028 A 
ATOM     27  C   UNL     1      15.048   7.711   5.566  0.00  0.00    +0.054 A 
ATOM     28  C   UNL     1      17.129   8.851   5.114  0.00  0.00    +0.003 A 
ATOM     29  C   UNL     1      16.237   8.280   6.021  0.00  0.00    +0.019 A 
BRANCH  27  30
ATOM      8  N   UNL     1      13.393   6.650   7.251  0.00  0.00    -0.191 NA
ATOM     30  C   UNL     1      14.135   7.125   6.496  0.00  0.00    +0.099 C 
ENDBRANCH  27  30
ENDBRANCH   1  22
ENDBRANCH   6   1
ENDBRANCH  16   6
ENDBRANCH  10  16
BRANCH  12  17
ATOM     17  C   UNL     1      11.030   5.635   4.530  0.00  0.00    +0.103 C 
BRANCH  17  21
ATOM      2  O   UNL     1       8.778   5.523   5.407  0.00  0.00    -0.276 OA
ATOM      7  N   UNL     1      10.574   5.656   6.876  0.00  0.00    -0.313 N 
ATOM     21  C   UNL     1       9.985   5.597   5.622  0.00  0.00    +0.214 C 
ATOM     33  H   UNL     1      11.585   5.714   6.954  0.00  0.00    +0.149 HD
BRANCH   7  23
ATOM     23  C   UNL     1       9.815   5.639   8.106  0.00  0.00    +0.132 C 
BRANCH  23  26
ATOM     26  C   UNL     1       9.783   4.227   8.664  0.00  0.00    +0.178 C 
BRANCH  26   5
ATOM      5  O   UNL     1       9.843   4.278  10.083  0.00  0.00    -0.381 OA
ATOM     31  C   UNL     1       8.575   4.583  10.648  0.00  0.00    +0.194 C 
ENDBRANCH  26   5
ENDBRANCH  23  26
ENDBRANCH   7  23
ENDBRANCH  17  21
ENDBRANCH  12  17
TORSDOF 11
ENDMDL
MODEL 6
REMARK VINA RESULT:      -5.6     28.072     30.856
REMARK  Name = 38027645
REMARK  15 active torsions:
REMARK  status: ('A' for Active; 'I' for Inactive)
REMARK    1  A    between atoms: S_1  and  N_6
REMARK    2  A    between atoms: S_1  and  C_22
REMARK    3  A    between atoms: O_5  and  C_26
REMARK    4  A    between atoms: O_5  and  C_31
REMARK    5  A    between atoms: N_6  and  C_16
REMARK    6  A    between atoms: N_7  and  C_23
REMARK    7  A    between atoms: C_9  and  C_13
REMARK    8  A    between atoms: C_10  and  C_16
REMARK    9  A    between atoms: C_12  and  C_17
REMARK   10  A    between atoms: C_13  and  C_18
REMARK   11  A    between atoms: C_13  and  C_19
REMARK   12  A    between atoms: C_14  and  C_20
REMARK   13  A    between atoms: C_17  and  C_21
REMARK   14  A    between atoms: C_23  and  C_26
REMARK   15  A    between atoms: C_27  and  C_30
REMARK                            x       y       z     vdW  Elec       q    Type
REMARK                         _______ _______ _______ _____ _____    ______ ____
ROOT
ATOM      9  C   UNL     1      -6.672 -10.943  17.869  0.00  0.00    +0.000 C 
ATOM     10  C   UNL     1      -5.909 -11.314  16.573  0.00  0.00    +0.030 C 
ATOM     11  C   UNL     1      -8.188 -10.972  17.626  0.00  0.00    +0.012 C 
ATOM     12  C   UNL     1      -8.618  -9.999  16.512  0.00  0.00    +0.023 C 
ATOM     14  C   UNL     1      -7.733 -10.120  15.287  0.00  0.00    -0.073 C 
ATOM     15  C   UNL     1      -6.532 -10.723  15.331  0.00  0.00    -0.023 C 
ATOM     20  C   UNL     1      -8.281  -9.572  13.999  0.00  0.00    +0.039 C 
ENDROOT
BRANCH   9  13
ATOM     13  C   UNL     1      -6.315 -11.880  19.028  0.00  0.00    -0.013 C 
ATOM     18  C   UNL     1      -5.584 -11.113  20.126  0.00  0.00    +0.007 C 
ATOM     19  C   UNL     1      -7.571 -12.548  19.578  0.00  0.00    +0.007 C 
ENDBRANCH   9  13
BRANCH  10  16
ATOM     16  C   UNL     1      -4.438 -10.893  16.657  0.00  0.00    +0.113 C 
BRANCH  16   6
ATOM      6  N   UNL     1      -4.021 -10.342  15.357  0.00  0.00    -0.189 NA
ATOM     32  H   UNL     1      -4.654  -9.663  14.917  0.00  0.00    +0.148 HD
BRANCH   6   1
ATOM      1  S   UNL     1      -2.986 -11.234  14.339  0.00  0.00    +0.058 S 
ATOM      3  O   UNL     1      -3.466 -12.599  14.246  0.00  0.00    -0.153 OA
ATOM      4  O   UNL     1      -1.610 -10.969  14.712  0.00  0.00    -0.153 OA
BRANCH   1  22
ATOM     22  C   UNL     1      -3.257 -10.452  12.777  0.00  0.00    +0.106 A 
ATOM     24  C   UNL     1      -4.551 -10.109  12.384  0.00  0.00    +0.047 A 
ATOM     25  C   UNL     1      -2.178 -10.181  11.937  0.00  0.00    +0.028 A 
ATOM     27  C   UNL     1      -4.764  -9.495  11.150  0.00  0.00    +0.054 A 
ATOM     28  C   UNL     1      -2.391  -9.567  10.703  0.00  0.00    +0.003 A 
ATOM     29  C   UNL     1      -3.685  -9.224  10.310  0.00  0.00    +0.019 A 
BRANCH  27  30
ATOM      8  N   UNL     1      -7.165  -8.857  10.420  0.00  0.00    -0.191 NA
ATOM     30  C   UNL     1      -6.089  -9.143  10.747  0.00  0.00    +0.099 C 
ENDBRANCH  27  30
ENDBRANCH   1  22
ENDBRANCH   6   1
ENDBRANCH  16   6
ENDBRANCH  10  16
BRANCH  12  17
ATOM     17  C   UNL     1      -8.652  -8.554  17.022  0.00  0.00    +0.103 C 
BRANCH  17  21
ATOM      2  O   UNL     1     -10.962  -8.579  17.745  0.00  0.00    -0.276 OA
ATOM      7  N   UNL     1     -10.195  -6.832  16.418  0.00  0.00    -0.313 N 
ATOM     21  C   UNL     1     -10.064  -8.019  17.120  0.00  0.00    +0.214 C 
ATOM     33  H   UNL     1      -9.392  -6.444  15.932  0.00  0.00    +0.149 HD
BRANCH   7  23
ATOM     23  C   UNL     1     -11.437  -6.096  16.337  0.00  0.00    +0.132 C 
BRANCH  23  26
ATOM     26  C   UNL     1     -11.836  -5.932  14.881  0.00  0.00    +0.178 C 
BRANCH  26   5
ATOM      5  O   UNL     1     -12.519  -7.100  14.444  0.00  0.00    -0.381 OA
ATOM     31  C   UNL     1     -12.407  -7.273  13.038  0.00  0.00    +0.194 C 
ENDBRANCH  26   5
ENDBRANCH  23  26
ENDBRANCH   7  23
ENDBRANCH  17  21
ENDBRANCH  12  17
TORSDOF 11
ENDMDL
MODEL 7
REMARK VINA RESULT:      -5.6     27.848     30.551
REMARK  Name = 38027645
REMARK  15 active torsions:
REMARK  status: ('A' for Active; 'I' for Inactive)
REMARK    1  A    between atoms: S_1  and  N_6
REMARK    2  A    between atoms: S_1  and  C_22
REMARK    3  A    between atoms: O_5  and  C_26
REMARK    4  A    between atoms: O_5  and  C_31
REMARK    5  A    between atoms: N_6  and  C_16
REMARK    6  A    between atoms: N_7  and  C_23
REMARK    7  A    between atoms: C_9  and  C_13
REMARK    8  A    between atoms: C_10  and  C_16
REMARK    9  A    between atoms: C_12  and  C_17
REMARK   10  A    between atoms: C_13  and  C_18
REMARK   11  A    between atoms: C_13  and  C_19
REMARK   12  A    between atoms: C_14  and  C_20
REMARK   13  A    between atoms: C_17  and  C_21
REMARK   14  A    between atoms: C_23  and  C_26
REMARK   15  A    between atoms: C_27  and  C_30
REMARK                            x       y       z     vdW  Elec       q    Type
REMARK                         _______ _______ _______ _____ _____    ______ ____
ROOT
ATOM      9  C   UNL     1      -5.696 -10.811  17.379  0.00  0.00    +0.000 C 
ATOM     10  C   UNL     1      -4.595 -11.647  16.681  0.00  0.00    +0.030 C 
ATOM     11  C   UNL     1      -7.083 -11.397  17.082  0.00  0.00    +0.012 C 
ATOM     12  C   UNL     1      -7.387 -11.439  15.573  0.00  0.00    +0.023 C 
ATOM     14  C   UNL     1      -6.227 -12.011  14.782  0.00  0.00    -0.073 C 
ATOM     15  C   UNL     1      -4.990 -12.108  15.298  0.00  0.00    -0.023 C 
ATOM     20  C   UNL     1      -6.533 -12.511  13.397  0.00  0.00    +0.039 C 
ENDROOT
BRANCH   9  13
ATOM     13  C   UNL     1      -5.478 -10.734  18.894  0.00  0.00    -0.013 C 
ATOM     18  C   UNL     1      -6.810 -10.552  19.614  0.00  0.00    +0.007 C 
ATOM     19  C   UNL     1      -4.760 -11.985  19.391  0.00  0.00    +0.007 C 
ENDBRANCH   9  13
BRANCH  10  16
ATOM     16  C   UNL     1      -3.275 -10.871  16.603  0.00  0.00    +0.113 C 
BRANCH  16   6
ATOM      6  N   UNL     1      -3.132 -10.301  15.254  0.00  0.00    -0.189 NA
ATOM     32  H   UNL     1      -3.999 -10.059  14.759  0.00  0.00    +0.148 HD
BRANCH   6   1
ATOM      1  S   UNL     1      -1.757 -10.658  14.313  0.00  0.00    +0.058 S 
ATOM      3  O   UNL     1      -1.069 -11.799  14.885  0.00  0.00    -0.153 OA
ATOM      4  O   UNL     1      -1.034  -9.429  14.045  0.00  0.00    -0.153 OA
BRANCH   1  22
ATOM     22  C   UNL     1      -2.489 -11.169  12.788  0.00  0.00    +0.106 A 
ATOM     24  C   UNL     1      -2.901 -10.215  11.857  0.00  0.00    +0.047 A 
ATOM     25  C   UNL     1      -2.656 -12.527  12.516  0.00  0.00    +0.028 A 
ATOM     27  C   UNL     1      -3.480 -10.620  10.655  0.00  0.00    +0.054 A 
ATOM     28  C   UNL     1      -3.236 -12.931  11.313  0.00  0.00    +0.003 A 
ATOM     29  C   UNL     1      -3.648 -11.977  10.383  0.00  0.00    +0.019 A 
BRANCH  27  30
ATOM      8  N   UNL     1      -4.245  -8.850   8.927  0.00  0.00    -0.191 NA
ATOM     30  C   UNL     1      -3.903  -9.643   9.701  0.00  0.00    +0.099 C 
ENDBRANCH  27  30
ENDBRANCH   1  22
ENDBRANCH   6   1
ENDBRANCH  16   6
ENDBRANCH  10  16
BRANCH  12  17
ATOM     17  C   UNL     1      -7.779 -10.054  15.048  0.00  0.00    +0.103 C 
BRANCH  17  21
ATOM      2  O   UNL     1     -10.132 -10.209  15.591  0.00  0.00    -0.276 OA
ATOM      7  N   UNL     1      -8.930  -8.326  16.232  0.00  0.00    -0.313 N 
ATOM     21  C   UNL     1      -9.083  -9.569  15.640  0.00  0.00    +0.214 C 
ATOM     33  H   UNL     1      -8.020  -7.874  16.224  0.00  0.00    +0.149 HD
BRANCH   7  23
ATOM     23  C   UNL     1     -10.013  -7.618  16.877  0.00  0.00    +0.132 C 
BRANCH  23  26
ATOM     26  C   UNL     1     -10.675  -6.685  15.879  0.00  0.00    +0.178 C 
BRANCH  26   5
ATOM      5  O   UNL     1     -11.868  -7.285  15.390  0.00  0.00    -0.381 OA
ATOM     31  C   UNL     1     -12.138  -6.892  14.052  0.00  0.00    +0.194 C 
ENDBRANCH  26   5
ENDBRANCH  23  26
ENDBRANCH   7  23
ENDBRANCH  17  21
ENDBRANCH  12  17
TORSDOF 11
ENDMDL
MODEL 8
REMARK VINA RESULT:      -5.5     15.390     19.338
REMARK  Name = 38027645
REMARK  15 active torsions:
REMARK  status: ('A' for Active; 'I' for Inactive)
REMARK    1  A    between atoms: S_1  and  N_6
REMARK    2  A    between atoms: S_1  and  C_22
REMARK    3  A    between atoms: O_5  and  C_26
REMARK    4  A    between atoms: O_5  and  C_31
REMARK    5  A    between atoms: N_6  and  C_16
REMARK    6  A    between atoms: N_7  and  C_23
REMARK    7  A    between atoms: C_9  and  C_13
REMARK    8  A    between atoms: C_10  and  C_16
REMARK    9  A    between atoms: C_12  and  C_17
REMARK   10  A    between atoms: C_13  and  C_18
REMARK   11  A    between atoms: C_13  and  C_19
REMARK   12  A    between atoms: C_14  and  C_20
REMARK   13  A    between atoms: C_17  and  C_21
REMARK   14  A    between atoms: C_23  and  C_26
REMARK   15  A    between atoms: C_27  and  C_30
REMARK                            x       y       z     vdW  Elec       q    Type
REMARK                         _______ _______ _______ _____ _____    ______ ____
ROOT
ATOM      9  C   UNL     1       9.251   8.700   2.533  0.00  0.00    +0.000 C 
ATOM     10  C   UNL     1       8.149   8.502   3.604  0.00  0.00    +0.030 C 
ATOM     11  C   UNL     1       9.636   7.353   1.905  0.00  0.00    +0.012 C 
ATOM     12  C   UNL     1      10.150   6.347   2.953  0.00  0.00    +0.023 C 
ATOM     14  C   UNL     1       9.249   6.294   4.171  0.00  0.00    -0.073 C 
ATOM     15  C   UNL     1       8.352   7.260   4.438  0.00  0.00    -0.023 C 
ATOM     20  C   UNL     1       9.372   5.082   5.052  0.00  0.00    +0.039 C 
ENDROOT
BRANCH   9  13
ATOM     13  C   UNL     1       8.810   9.675   1.437  0.00  0.00    -0.013 C 
ATOM     18  C   UNL     1       9.818   9.679   0.291  0.00  0.00    +0.007 C 
ATOM     19  C   UNL     1       7.417   9.313   0.931  0.00  0.00    +0.007 C 
ENDBRANCH   9  13
BRANCH  10  16
ATOM     16  C   UNL     1       8.047   9.724   4.525  0.00  0.00    +0.113 C 
BRANCH  16   6
ATOM      6  N   UNL     1       8.333   9.310   5.907  0.00  0.00    -0.189 NA
ATOM     32  H   UNL     1       7.533   9.002   6.474  0.00  0.00    +0.148 HD
BRANCH   6   1
ATOM      1  S   UNL     1       9.689   9.936   6.728  0.00  0.00    +0.058 S 
ATOM      3  O   UNL     1       9.265  10.495   7.996  0.00  0.00    -0.153 OA
ATOM      4  O   UNL     1      10.475  10.732   5.805  0.00  0.00    -0.153 OA
BRANCH   1  22
ATOM     22  C   UNL     1      10.616   8.468   7.061  0.00  0.00    +0.106 A 
ATOM     24  C   UNL     1      10.029   7.418   7.767  0.00  0.00    +0.047 A 
ATOM     25  C   UNL     1      11.935   8.362   6.621  0.00  0.00    +0.028 A 
ATOM     27  C   UNL     1      10.762   6.261   8.033  0.00  0.00    +0.054 A 
ATOM     28  C   UNL     1      12.668   7.205   6.887  0.00  0.00    +0.003 A 
ATOM     29  C   UNL     1      12.081   6.155   7.593  0.00  0.00    +0.019 A 
BRANCH  27  30
ATOM      8  N   UNL     1       9.674   4.311   9.343  0.00  0.00    -0.191 NA
ATOM     30  C   UNL     1      10.161   5.185   8.756  0.00  0.00    +0.099 C 
ENDBRANCH  27  30
ENDBRANCH   1  22
ENDBRANCH   6   1
ENDBRANCH  16   6
ENDBRANCH  10  16
BRANCH  12  17
ATOM     17  C   UNL     1      11.596   6.658   3.354  0.00  0.00    +0.103 C 
BRANCH  17  21
ATOM      2  O   UNL     1      13.487   6.543   1.848  0.00  0.00    -0.276 OA
ATOM      7  N   UNL     1      12.369   4.592   2.434  0.00  0.00    -0.313 N 
ATOM     21  C   UNL     1      12.597   5.959   2.461  0.00  0.00    +0.214 C 
ATOM     33  H   UNL     1      11.607   4.199   2.978  0.00  0.00    +0.149 HD
BRANCH   7  23
ATOM     23  C   UNL     1      13.173   3.672   1.661  0.00  0.00    +0.132 C 
BRANCH  23  26
ATOM     26  C   UNL     1      12.555   3.491   0.285  0.00  0.00    +0.178 C 
BRANCH  26   5
ATOM      5  O   UNL     1      13.588   3.358  -0.682  0.00  0.00    -0.381 OA
ATOM     31  C   UNL     1      14.773   4.029  -0.275  0.00  0.00    +0.194 C 
ENDBRANCH  26   5
ENDBRANCH  23  26
ENDBRANCH   7  23
ENDBRANCH  17  21
ENDBRANCH  12  17
TORSDOF 11
ENDMDL
MODEL 9
REMARK VINA RESULT:      -5.5     27.712     30.554
REMARK  Name = 38027645
REMARK  15 active torsions:
REMARK  status: ('A' for Active; 'I' for Inactive)
REMARK    1  A    between atoms: S_1  and  N_6
REMARK    2  A    between atoms: S_1  and  C_22
REMARK    3  A    between atoms: O_5  and  C_26
REMARK    4  A    between atoms: O_5  and  C_31
REMARK    5  A    between atoms: N_6  and  C_16
REMARK    6  A    between atoms: N_7  and  C_23
REMARK    7  A    between atoms: C_9  and  C_13
REMARK    8  A    between atoms: C_10  and  C_16
REMARK    9  A    between atoms: C_12  and  C_17
REMARK   10  A    between atoms: C_13  and  C_18
REMARK   11  A    between atoms: C_13  and  C_19
REMARK   12  A    between atoms: C_14  and  C_20
REMARK   13  A    between atoms: C_17  and  C_21
REMARK   14  A    between atoms: C_23  and  C_26
REMARK   15  A    between atoms: C_27  and  C_30
REMARK                            x       y       z     vdW  Elec       q    Type
REMARK                         _______ _______ _______ _____ _____    ______ ____
ROOT
ATOM      9  C   UNL     1      -5.574 -10.551  10.395  0.00  0.00    +0.000 C 
ATOM     10  C   UNL     1      -5.003  -9.554   9.356  0.00  0.00    +0.030 C 
ATOM     11  C   UNL     1      -5.054 -10.217  11.800  0.00  0.00    +0.012 C 
ATOM     12  C   UNL     1      -3.516 -10.262  11.877  0.00  0.00    +0.023 C 
ATOM     14  C   UNL     1      -2.873  -9.519  10.723  0.00  0.00    -0.073 C 
ATOM     15  C   UNL     1      -3.557  -9.200   9.610  0.00  0.00    -0.023 C 
ATOM     20  C   UNL     1      -1.436  -9.111  10.896  0.00  0.00    +0.039 C 
ENDROOT
BRANCH   9  13
ATOM     13  C   UNL     1      -7.107 -10.553  10.397  0.00  0.00    -0.013 C 
ATOM     18  C   UNL     1      -7.635 -11.646  11.321  0.00  0.00    +0.007 C 
ATOM     19  C   UNL     1      -7.640  -9.186  10.814  0.00  0.00    +0.007 C 
ENDBRANCH   9  13
BRANCH  10  16
ATOM     16  C   UNL     1      -5.153 -10.096   7.929  0.00  0.00    +0.113 C 
BRANCH  16   6
ATOM      6  N   UNL     1      -5.767  -9.060   7.084  0.00  0.00    -0.189 NA
ATOM     32  H   UNL     1      -5.649  -8.085   7.386  0.00  0.00    +0.148 HD
BRANCH   6   1
ATOM      1  S   UNL     1      -7.123  -9.431   6.121  0.00  0.00    +0.058 S 
ATOM      3  O   UNL     1      -7.276 -10.871   6.045  0.00  0.00    -0.153 OA
ATOM      4  O   UNL     1      -7.075  -8.637   4.908  0.00  0.00    -0.153 OA
BRANCH   1  22
ATOM     22  C   UNL     1      -8.447  -8.793   7.104  0.00  0.00    +0.106 A 
ATOM     24  C   UNL     1      -8.490  -7.435   7.417  0.00  0.00    +0.047 A 
ATOM     25  C   UNL     1      -9.445  -9.649   7.568  0.00  0.00    +0.028 A 
ATOM     27  C   UNL     1      -9.534  -6.932   8.195  0.00  0.00    +0.054 A 
ATOM     28  C   UNL     1     -10.488  -9.146   8.346  0.00  0.00    +0.003 A 
ATOM     29  C   UNL     1     -10.532  -7.788   8.659  0.00  0.00    +0.019 A 
BRANCH  27  30
ATOM      8  N   UNL     1      -9.617  -4.411   8.776  0.00  0.00    -0.191 NA
ATOM     30  C   UNL     1      -9.580  -5.540   8.516  0.00  0.00    +0.099 C 
ENDBRANCH  27  30
ENDBRANCH   1  22
ENDBRANCH   6   1
ENDBRANCH  16   6
ENDBRANCH  10  16
BRANCH  12  17
ATOM     17  C   UNL     1      -3.008 -11.706  11.951  0.00  0.00    +0.103 C 
BRANCH  17  21
ATOM      2  O   UNL     1      -1.396 -12.922  13.284  0.00  0.00    -0.276 OA
ATOM      7  N   UNL     1      -2.220 -10.890  14.055  0.00  0.00    -0.313 N 
ATOM     21  C   UNL     1      -2.114 -11.934  13.149  0.00  0.00    +0.214 C 
ATOM     33  H   UNL     1      -2.842 -10.113  13.854  0.00  0.00    +0.149 HD
BRANCH   7  23
ATOM     23  C   UNL     1      -1.479 -10.843  15.296  0.00  0.00    +0.132 C 
BRANCH  23  26
ATOM     26  C   UNL     1      -2.448 -10.744  16.461  0.00  0.00    +0.178 C 
BRANCH  26   5
ATOM      5  O   UNL     1      -3.771 -10.590  15.964  0.00  0.00    -0.381 OA
ATOM     31  C   UNL     1      -4.688 -10.291  17.007  0.00  0.00    +0.194 C 
ENDBRANCH  26   5
ENDBRANCH  23  26
ENDBRANCH   7  23
ENDBRANCH  17  21
ENDBRANCH  12  17
TORSDOF 11
ENDMDL
MODEL 10
REMARK VINA RESULT:      -5.4     27.898     30.719
REMARK  Name = 38027645
REMARK  15 active torsions:
REMARK  status: ('A' for Active; 'I' for Inactive)
REMARK    1  A    between atoms: S_1  and  N_6
REMARK    2  A    between atoms: S_1  and  C_22
REMARK    3  A    between atoms: O_5  and  C_26
REMARK    4  A    between atoms: O_5  and  C_31
REMARK    5  A    between atoms: N_6  and  C_16
REMARK    6  A    between atoms: N_7  and  C_23
REMARK    7  A    between atoms: C_9  and  C_13
REMARK    8  A    between atoms: C_10  and  C_16
REMARK    9  A    between atoms: C_12  and  C_17
REMARK   10  A    between atoms: C_13  and  C_18
REMARK   11  A    between atoms: C_13  and  C_19
REMARK   12  A    between atoms: C_14  and  C_20
REMARK   13  A    between atoms: C_17  and  C_21
REMARK   14  A    between atoms: C_23  and  C_26
REMARK   15  A    between atoms: C_27  and  C_30
REMARK                            x       y       z     vdW  Elec       q    Type
REMARK                         _______ _______ _______ _____ _____    ______ ____
ROOT
ATOM      9  C   UNL     1      -4.174 -11.811  11.909  0.00  0.00    +0.000 C 
ATOM     10  C   UNL     1      -2.978 -10.998  11.354  0.00  0.00    +0.030 C 
ATOM     11  C   UNL     1      -5.381 -11.700  10.966  0.00  0.00    +0.012 C 
ATOM     12  C   UNL     1      -5.834 -10.241  10.770  0.00  0.00    +0.023 C 
ATOM     14  C   UNL     1      -4.663  -9.322  10.482  0.00  0.00    -0.073 C 
ATOM     15  C   UNL     1      -3.393  -9.683  10.738  0.00  0.00    -0.023 C 
ATOM     20  C   UNL     1      -4.982  -7.996   9.851  0.00  0.00    +0.039 C 
ENDROOT
BRANCH   9  13
ATOM     13  C   UNL     1      -3.812 -13.286  12.115  0.00  0.00    -0.013 C 
ATOM     18  C   UNL     1      -4.730 -13.918  13.156  0.00  0.00    +0.007 C 
ATOM     19  C   UNL     1      -3.891 -14.043  10.793  0.00  0.00    +0.007 C 
ENDBRANCH   9  13
BRANCH  10  16
ATOM     16  C   UNL     1      -1.930 -10.742  12.444  0.00  0.00    +0.113 C 
BRANCH  16   6
ATOM      6  N   UNL     1      -2.596 -10.174  13.627  0.00  0.00    -0.189 NA
ATOM     32  H   UNL     1      -2.827  -9.173  13.593  0.00  0.00    +0.148 HD
BRANCH   6   1
ATOM      1  S   UNL     1      -2.371 -10.881  15.161  0.00  0.00    +0.058 S 
ATOM      3  O   UNL     1      -1.446 -10.072  15.930  0.00  0.00    -0.153 OA
ATOM      4  O   UNL     1      -2.134 -12.303  14.997  0.00  0.00    -0.153 OA
BRANCH   1  22
ATOM     22  C   UNL     1      -3.977 -10.705  15.877  0.00  0.00    +0.106 A 
ATOM     24  C   UNL     1      -4.166 -10.956  17.236  0.00  0.00    +0.047 A 
ATOM     25  C   UNL     1      -5.056 -10.318  15.082  0.00  0.00    +0.028 A 
ATOM     27  C   UNL     1      -5.435 -10.819  17.800  0.00  0.00    +0.054 A 
ATOM     28  C   UNL     1      -6.324 -10.181  15.646  0.00  0.00    +0.003 A 
ATOM     29  C   UNL     1      -6.513 -10.432  17.005  0.00  0.00    +0.019 A 
BRANCH  27  30
ATOM      8  N   UNL     1      -5.787 -11.284  20.322  0.00  0.00    -0.191 NA
ATOM     30  C   UNL     1      -5.629 -11.076  19.192  0.00  0.00    +0.099 C 
ENDBRANCH  27  30
ENDBRANCH   1  22
ENDBRANCH   6   1
ENDBRANCH  16   6
ENDBRANCH  10  16
BRANCH  12  17
ATOM     17  C   UNL     1      -6.637  -9.744  11.977  0.00  0.00    +0.103 C 
BRANCH  17  21
ATOM      2  O   UNL     1      -8.990 -10.020  12.468  0.00  0.00    -0.276 OA
ATOM      7  N   UNL     1      -8.344  -9.136  10.418  0.00  0.00    -0.313 N 
ATOM     21  C   UNL     1      -8.118  -9.662  11.680  0.00  0.00    +0.214 C 
ATOM     33  H   UNL     1      -7.555  -8.866   9.837  0.00  0.00    +0.149 HD
BRANCH   7  23
ATOM     23  C   UNL     1      -9.667  -8.945   9.867  0.00  0.00    +0.132 C 
BRANCH  23  26
ATOM     26  C   UNL     1      -9.681  -7.698   9.001  0.00  0.00    +0.178 C 
BRANCH  26   5
ATOM      5  O   UNL     1      -8.498  -7.658   8.212  0.00  0.00    -0.381 OA
ATOM     31  C   UNL     1      -8.033  -6.326   8.039  0.00  0.00    +0.194 C 
ENDBRANCH  26   5
ENDBRANCH  23  26
ENDBRANCH   7  23
ENDBRANCH  17  21
ENDBRANCH  12  17
TORSDOF 11
ENDMDL
