MODEL 1
REMARK VINA RESULT:      -6.7      0.000      0.000
REMARK  Name = 11882969
REMARK  10 active torsions:
REMARK  status: ('A' for Active; 'I' for Inactive)
REMARK    1  A    between atoms: O_2  and  C_14
REMARK    2  A    between atoms: O_3  and  C_19
REMARK    3  A    between atoms: N_8  and  C_27
REMARK    4  A    between atoms: C_9  and  C_17
REMARK    5  A    between atoms: C_11  and  C_19
REMARK    6  A    between atoms: C_11  and  C_20
REMARK    7  A    between atoms: C_12  and  C_22
REMARK    8  A    between atoms: C_22  and  C_23
REMARK    9  A    between atoms: C_25  and  C_26
REMARK   10  A    between atoms: C_27  and  C_33
REMARK                            x       y       z     vdW  Elec       q    Type
REMARK                         _______ _______ _______ _____ _____    ______ ____
ROOT
ATOM      1  S   UNL     1      13.894   7.702   6.864  0.00  0.00    -0.057 S 
ATOM      5  O   UNL     1      11.063   5.390   3.960  0.00  0.00    -0.275 OA
ATOM      6  N   UNL     1      13.627   6.817   4.447  0.00  0.00    -0.229 NA
ATOM      7  N   UNL     1      11.808   6.389   5.969  0.00  0.00    -0.264 N 
ATOM      9  C   UNL     1      16.909   8.635   3.557  0.00  0.00    -0.019 C 
ATOM     10  C   UNL     1      17.501   8.451   5.024  0.00  0.00    +0.011 C 
ATOM     11  C   UNL     1      18.884   9.143   5.329  0.00  0.00    +0.021 C 
ATOM     12  C   UNL     1      15.779   7.526   3.339  0.00  0.00    +0.054 C 
ATOM     13  C   UNL     1      18.032   8.400   2.514  0.00  0.00    +0.010 C 
ATOM     14  C   UNL     1      19.875   8.846   4.168  0.00  0.00    +0.123 C 
ATOM     15  C   UNL     1      16.417   8.706   6.111  0.00  0.00    +0.049 C 
ATOM     16  C   UNL     1      19.307   9.183   2.794  0.00  0.00    +0.032 C 
ATOM     17  C   UNL     1      16.302  10.040   3.326  0.00  0.00    +0.012 C 
ATOM     18  C   UNL     1      14.849   7.459   4.522  0.00  0.00    +0.058 A 
ATOM     20  C   UNL     1      19.487   8.523   6.622  0.00  0.00    +0.016 C 
ATOM     21  C   UNL     1      15.162   7.979   5.762  0.00  0.00    +0.015 A 
ATOM     24  C   UNL     1      13.034   6.889   5.619  0.00  0.00    +0.165 A 
ATOM     26  C   UNL     1      10.916   5.687   5.141  0.00  0.00    +0.222 C 
ATOM     37  H   UNL     1      11.543   6.553   6.937  0.00  0.00    +0.157 HD
ENDROOT
BRANCH  26  25
ATOM     25  C   UNL     1       9.668   5.293   5.877  0.00  0.00    +0.075 C 
ATOM     28  C   UNL     1       9.748   5.696   7.351  0.00  0.00    +0.013 C 
ATOM     29  C   UNL     1       8.437   5.869   5.173  0.00  0.00    +0.013 C 
ATOM     30  C   UNL     1       9.530   7.190   7.586  0.00  0.00    +0.001 C 
ATOM     31  C   UNL     1       8.249   7.364   5.423  0.00  0.00    +0.001 C 
ATOM     32  C   UNL     1       8.257   7.691   6.913  0.00  0.00    +0.000 C 
ENDBRANCH  26  25
BRANCH  14   2
ATOM      2  O   UNL     1      21.094   9.565   4.350  0.00  0.00    -0.391 OA
ATOM     35  H   UNL     1      20.928  10.265   5.005  0.00  0.00    +0.210 HD
ENDBRANCH  14   2
BRANCH  11  19
ATOM     19  C   UNL     1      18.794  10.661   5.601  0.00  0.00    +0.165 C 
BRANCH  19   3
ATOM      3  O   UNL     1      19.780  10.989   6.554  0.00  0.00    -0.394 OA
ATOM     36  H   UNL     1      20.548  10.417   6.385  0.00  0.00    +0.209 HD
ENDBRANCH  19   3
ENDBRANCH  11  19
BRANCH  12  22
ATOM     22  C   UNL     1      15.003   7.658   2.021  0.00  0.00    +0.106 C 
BRANCH  22  23
ATOM      4  O   UNL     1      14.912   6.301   0.020  0.00  0.00    -0.276 OA
ATOM      8  N   UNL     1      15.043   5.271   2.099  0.00  0.00    -0.304 N 
ATOM     23  C   UNL     1      14.980   6.361   1.244  0.00  0.00    +0.214 C 
ATOM     38  H   UNL     1      15.115   5.428   3.100  0.00  0.00    +0.150 HD
BRANCH   8  27
ATOM     27  C   UNL     1      15.036   3.902   1.634  0.00  0.00    +0.193 C 
BRANCH  27  33
ATOM     33  C   UNL     1      13.675   3.367   1.591  0.00  0.00    -0.087 C 
ATOM     34  C   UNL     1      12.557   2.931   1.552  0.00  0.00    +0.005 C 
ENDBRANCH  27  33
ENDBRANCH   8  27
ENDBRANCH  22  23
ENDBRANCH  12  22
TORSDOF 8
ENDMDL
MODEL 2
REMARK VINA RESULT:      -6.7     15.953     19.131
REMARK  Name = 11882969
REMARK  10 active torsions:
REMARK  status: ('A' for Active; 'I' for Inactive)
REMARK    1  A    between atoms: O_2  and  C_14
REMARK    2  A    between atoms: O_3  and  C_19
REMARK    3  A    between atoms: N_8  and  C_27
REMARK    4  A    between atoms: C_9  and  C_17
REMARK    5  A    between atoms: C_11  and  C_19
REMARK    6  A    between atoms: C_11  and  C_20
REMARK    7  A    between atoms: C_12  and  C_22
REMARK    8  A    between atoms: C_22  and  C_23
REMARK    9  A    between atoms: C_25  and  C_26
REMARK   10  A    between atoms: C_27  and  C_33
REMARK                            x       y       z     vdW  Elec       q    Type
REMARK                         _______ _______ _______ _____ _____    ______ ____
ROOT
ATOM      1  S   UNL     1      16.948   5.878  19.793  0.00  0.00    -0.057 S 
ATOM      5  O   UNL     1      21.170   7.338  21.147  0.00  0.00    -0.275 OA
ATOM      6  N   UNL     1      18.241   7.811  20.927  0.00  0.00    -0.229 NA
ATOM      7  N   UNL     1      19.537   5.911  20.204  0.00  0.00    -0.264 N 
ATOM      9  C   UNL     1      14.953   9.825  20.949  0.00  0.00    -0.019 C 
ATOM     10  C   UNL     1      14.059   8.514  21.083  0.00  0.00    +0.011 C 
ATOM     11  C   UNL     1      12.495   8.706  21.023  0.00  0.00    +0.021 C 
ATOM     12  C   UNL     1      16.423   9.474  21.468  0.00  0.00    +0.054 C 
ATOM     13  C   UNL     1      14.370  10.942  21.853  0.00  0.00    +0.010 C 
ATOM     14  C   UNL     1      12.087   9.889  21.947  0.00  0.00    +0.123 C 
ATOM     15  C   UNL     1      14.587   7.371  20.170  0.00  0.00    +0.049 C 
ATOM     16  C   UNL     1      12.875  11.164  21.672  0.00  0.00    +0.032 C 
ATOM     17  C   UNL     1      15.033  10.353  19.496  0.00  0.00    +0.012 C 
ATOM     18  C   UNL     1      16.907   8.171  20.886  0.00  0.00    +0.058 A 
ATOM     20  C   UNL     1      11.806   7.427  21.577  0.00  0.00    +0.016 C 
ATOM     21  C   UNL     1      16.064   7.233  20.324  0.00  0.00    +0.015 A 
ATOM     24  C   UNL     1      18.381   6.626  20.373  0.00  0.00    +0.165 A 
ATOM     26  C   UNL     1      20.831   6.299  20.590  0.00  0.00    +0.222 C 
ATOM     37  H   UNL     1      19.416   5.008  19.754  0.00  0.00    +0.157 HD
ENDROOT
BRANCH  26  25
ATOM     25  C   UNL     1      21.851   5.253  20.242  0.00  0.00    +0.075 C 
ATOM     28  C   UNL     1      23.269   5.753  20.523  0.00  0.00    +0.013 C 
ATOM     29  C   UNL     1      21.531   3.944  20.967  0.00  0.00    +0.013 C 
ATOM     30  C   UNL     1      23.633   5.750  22.007  0.00  0.00    +0.001 C 
ATOM     31  C   UNL     1      21.901   3.974  22.449  0.00  0.00    +0.001 C 
ATOM     32  C   UNL     1      23.350   4.402  22.659  0.00  0.00    +0.000 C 
ENDBRANCH  26  25
BRANCH  14   2
ATOM      2  O   UNL     1      10.694  10.172  21.816  0.00  0.00    -0.391 OA
ATOM     35  H   UNL     1      10.213   9.332  21.906  0.00  0.00    +0.210 HD
ENDBRANCH  14   2
BRANCH  11  19
ATOM     19  C   UNL     1      11.928   8.899  19.600  0.00  0.00    +0.165 C 
BRANCH  19   3
ATOM      3  O   UNL     1      10.589   8.454  19.604  0.00  0.00    -0.394 OA
ATOM     36  H   UNL     1      10.022   9.242  19.669  0.00  0.00    +0.209 HD
ENDBRANCH  19   3
ENDBRANCH  11  19
BRANCH  12  22
ATOM     22  C   UNL     1      17.454  10.595  21.271  0.00  0.00    +0.106 C 
BRANCH  22  23
ATOM      4  O   UNL     1      18.008  11.793  23.298  0.00  0.00    -0.276 OA
ATOM      8  N   UNL     1      19.261   9.934  22.686  0.00  0.00    -0.304 N 
ATOM     23  C   UNL     1      18.246  10.865  22.530  0.00  0.00    +0.214 C 
ATOM     38  H   UNL     1      19.364   9.192  22.000  0.00  0.00    +0.150 HD
BRANCH   8  27
ATOM     27  C   UNL     1      20.181   9.948  23.801  0.00  0.00    +0.193 C 
BRANCH  27  33
ATOM     33  C   UNL     1      20.483   8.590  24.252  0.00  0.00    -0.087 C 
ATOM     34  C   UNL     1      20.735   7.477  24.625  0.00  0.00    +0.005 C 
ENDBRANCH  27  33
ENDBRANCH   8  27
ENDBRANCH  22  23
ENDBRANCH  12  22
TORSDOF 8
ENDMDL
MODEL 3
REMARK VINA RESULT:      -6.5     25.895     28.868
REMARK  Name = 11882969
REMARK  10 active torsions:
REMARK  status: ('A' for Active; 'I' for Inactive)
REMARK    1  A    between atoms: O_2  and  C_14
REMARK    2  A    between atoms: O_3  and  C_19
REMARK    3  A    between atoms: N_8  and  C_27
REMARK    4  A    between atoms: C_9  and  C_17
REMARK    5  A    between atoms: C_11  and  C_19
REMARK    6  A    between atoms: C_11  and  C_20
REMARK    7  A    between atoms: C_12  and  C_22
REMARK    8  A    between atoms: C_22  and  C_23
REMARK    9  A    between atoms: C_25  and  C_26
REMARK   10  A    between atoms: C_27  and  C_33
REMARK                            x       y       z     vdW  Elec       q    Type
REMARK                         _______ _______ _______ _____ _____    ______ ____
ROOT
ATOM      1  S   UNL     1      -8.429  -9.743  13.161  0.00  0.00    -0.057 S 
ATOM      5  O   UNL     1      -4.791 -10.136  16.059  0.00  0.00    -0.275 OA
ATOM      6  N   UNL     1      -5.862 -10.041  13.285  0.00  0.00    -0.229 NA
ATOM      7  N   UNL     1      -7.041  -9.883  15.381  0.00  0.00    -0.264 N 
ATOM      9  C   UNL     1      -5.857 -10.485   9.455  0.00  0.00    -0.019 C 
ATOM     10  C   UNL     1      -7.116  -9.528   9.264  0.00  0.00    +0.011 C 
ATOM     11  C   UNL     1      -7.700  -9.397   7.805  0.00  0.00    +0.021 C 
ATOM     12  C   UNL     1      -5.179 -10.132  10.858  0.00  0.00    +0.054 C 
ATOM     13  C   UNL     1      -4.825 -10.211   8.331  0.00  0.00    +0.010 C 
ATOM     14  C   UNL     1      -6.533  -9.172   6.802  0.00  0.00    +0.123 C 
ATOM     15  C   UNL     1      -8.197  -9.786  10.352  0.00  0.00    +0.049 C 
ATOM     16  C   UNL     1      -5.423 -10.209   6.931  0.00  0.00    +0.032 C 
ATOM     17  C   UNL     1      -6.234 -11.986   9.428  0.00  0.00    +0.012 C 
ATOM     18  C   UNL     1      -6.214 -10.023  11.948  0.00  0.00    +0.058 A 
ATOM     20  C   UNL     1      -8.617  -8.143   7.736  0.00  0.00    +0.016 C 
ATOM     21  C   UNL     1      -7.561  -9.850  11.700  0.00  0.00    +0.015 A 
ATOM     24  C   UNL     1      -6.948  -9.908  14.015  0.00  0.00    +0.165 A 
ATOM     26  C   UNL     1      -5.985  -9.996  16.300  0.00  0.00    +0.222 C 
ATOM     37  H   UNL     1      -7.985  -9.764  15.740  0.00  0.00    +0.157 HD
ENDROOT
BRANCH  26  25
ATOM     25  C   UNL     1      -6.472  -9.922  17.718  0.00  0.00    +0.075 C 
ATOM     28  C   UNL     1      -7.913 -10.422  17.831  0.00  0.00    +0.013 C 
ATOM     29  C   UNL     1      -5.512 -10.670  18.646  0.00  0.00    +0.013 C 
ATOM     30  C   UNL     1      -8.036 -11.944  17.768  0.00  0.00    +0.001 C 
ATOM     31  C   UNL     1      -5.655 -12.189  18.556  0.00  0.00    +0.001 C 
ATOM     32  C   UNL     1      -7.101 -12.630  18.757  0.00  0.00    +0.000 C 
ENDBRANCH  26  25
BRANCH  14   2
ATOM      2  O   UNL     1      -7.015  -9.179   5.459  0.00  0.00    -0.391 OA
ATOM     35  H   UNL     1      -6.456  -8.573   4.943  0.00  0.00    +0.210 HD
ENDBRANCH  14   2
BRANCH  11  19
ATOM     19  C   UNL     1      -8.586 -10.582   7.361  0.00  0.00    +0.165 C 
BRANCH  19   3
ATOM      3  O   UNL     1      -9.591 -10.076   6.512  0.00  0.00    -0.394 OA
ATOM     36  H   UNL     1     -10.335 -10.701   6.539  0.00  0.00    +0.209 HD
ENDBRANCH  19   3
ENDBRANCH  11  19
BRANCH  12  22
ATOM     22  C   UNL     1      -4.032 -11.068  11.265  0.00  0.00    +0.106 C 
BRANCH  22  23
ATOM      4  O   UNL     1      -2.139  -9.587  10.989  0.00  0.00    -0.276 OA
ATOM      8  N   UNL     1      -2.567 -10.524  13.072  0.00  0.00    -0.304 N 
ATOM     23  C   UNL     1      -2.812 -10.302  11.725  0.00  0.00    +0.214 C 
ATOM     38  H   UNL     1      -3.197 -11.122  13.599  0.00  0.00    +0.150 HD
BRANCH   8  27
ATOM     27  C   UNL     1      -1.463  -9.922  13.783  0.00  0.00    +0.193 C 
BRANCH  27  33
ATOM     33  C   UNL     1      -1.452 -10.334  15.186  0.00  0.00    -0.087 C 
ATOM     34  C   UNL     1      -1.439 -10.672  16.339  0.00  0.00    +0.005 C 
ENDBRANCH  27  33
ENDBRANCH   8  27
ENDBRANCH  22  23
ENDBRANCH  12  22
TORSDOF 8
ENDMDL
MODEL 4
REMARK VINA RESULT:      -6.4     26.616     29.423
REMARK  Name = 11882969
REMARK  10 active torsions:
REMARK  status: ('A' for Active; 'I' for Inactive)
REMARK    1  A    between atoms: O_2  and  C_14
REMARK    2  A    between atoms: O_3  and  C_19
REMARK    3  A    between atoms: N_8  and  C_27
REMARK    4  A    between atoms: C_9  and  C_17
REMARK    5  A    between atoms: C_11  and  C_19
REMARK    6  A    between atoms: C_11  and  C_20
REMARK    7  A    between atoms: C_12  and  C_22
REMARK    8  A    between atoms: C_22  and  C_23
REMARK    9  A    between atoms: C_25  and  C_26
REMARK   10  A    between atoms: C_27  and  C_33
REMARK                            x       y       z     vdW  Elec       q    Type
REMARK                         _______ _______ _______ _____ _____    ______ ____
ROOT
ATOM      1  S   UNL     1      -6.026 -10.111  10.570  0.00  0.00    -0.057 S 
ATOM      5  O   UNL     1     -10.389  -8.567  11.176  0.00  0.00    -0.275 OA
ATOM      6  N   UNL     1      -7.828  -9.540  12.337  0.00  0.00    -0.229 NA
ATOM      7  N   UNL     1      -8.432  -9.224  10.024  0.00  0.00    -0.264 N 
ATOM      9  C   UNL     1      -5.449 -10.938  15.029  0.00  0.00    -0.019 C 
ATOM     10  C   UNL     1      -4.149 -10.512  14.214  0.00  0.00    +0.011 C 
ATOM     11  C   UNL     1      -2.756 -10.956  14.805  0.00  0.00    +0.021 C 
ATOM     12  C   UNL     1      -6.667 -10.038  14.520  0.00  0.00    +0.054 C 
ATOM     13  C   UNL     1      -5.228 -10.653  16.537  0.00  0.00    +0.010 C 
ATOM     14  C   UNL     1      -2.721 -10.642  16.328  0.00  0.00    +0.123 C 
ATOM     15  C   UNL     1      -4.309 -10.806  12.694  0.00  0.00    +0.049 C 
ATOM     16  C   UNL     1      -3.919 -11.205  17.084  0.00  0.00    +0.032 C 
ATOM     17  C   UNL     1      -5.805 -12.434  14.853  0.00  0.00    +0.012 C 
ATOM     18  C   UNL     1      -6.708  -9.982  13.014  0.00  0.00    +0.058 A 
ATOM     20  C   UNL     1      -1.630 -10.119  14.134  0.00  0.00    +0.016 C 
ATOM     21  C   UNL     1      -5.632 -10.314  12.215  0.00  0.00    +0.015 A 
ATOM     24  C   UNL     1      -7.587  -9.572  11.044  0.00  0.00    +0.165 A 
ATOM     26  C   UNL     1      -9.751  -8.754  10.146  0.00  0.00    +0.222 C 
ATOM     37  H   UNL     1      -8.036  -9.320   9.093  0.00  0.00    +0.157 HD
ENDROOT
BRANCH  26  25
ATOM     25  C   UNL     1     -10.366  -8.472   8.806  0.00  0.00    +0.075 C 
ATOM     28  C   UNL     1     -11.606  -7.588   8.945  0.00  0.00    +0.013 C 
ATOM     29  C   UNL     1      -9.320  -7.879   7.860  0.00  0.00    +0.013 C 
ATOM     30  C   UNL     1     -11.279  -6.118   9.210  0.00  0.00    +0.001 C 
ATOM     31  C   UNL     1      -9.010  -6.412   8.153  0.00  0.00    +0.001 C 
ATOM     32  C   UNL     1     -10.280  -5.568   8.199  0.00  0.00    +0.000 C 
ENDBRANCH  26  25
BRANCH  14   2
ATOM      2  O   UNL     1      -1.525 -11.150  16.919  0.00  0.00    -0.391 OA
ATOM     35  H   UNL     1      -1.406 -12.062  16.605  0.00  0.00    +0.210 HD
ENDBRANCH  14   2
BRANCH  11  19
ATOM     19  C   UNL     1      -2.389 -12.432  14.539  0.00  0.00    +0.165 C 
BRANCH  19   3
ATOM      3  O   UNL     1      -1.043 -12.475  14.120  0.00  0.00    -0.394 OA
ATOM     36  H   UNL     1      -0.898 -11.712  13.534  0.00  0.00    +0.209 HD
ENDBRANCH  19   3
ENDBRANCH  11  19
BRANCH  12  22
ATOM     22  C   UNL     1      -8.033 -10.423  15.105  0.00  0.00    +0.106 C 
BRANCH  22  23
ATOM      4  O   UNL     1      -8.429  -9.181  17.143  0.00  0.00    -0.276 OA
ATOM      8  N   UNL     1      -9.415  -8.476  15.160  0.00  0.00    -0.304 N 
ATOM     23  C   UNL     1      -8.627  -9.311  15.938  0.00  0.00    +0.214 C 
ATOM     38  H   UNL     1      -9.501  -8.660  14.165  0.00  0.00    +0.150 HD
BRANCH   8  27
ATOM     27  C   UNL     1     -10.113  -7.327  15.691  0.00  0.00    +0.193 C 
BRANCH  27  33
ATOM     33  C   UNL     1     -11.500  -7.657  16.017  0.00  0.00    -0.087 C 
ATOM     34  C   UNL     1     -12.640  -7.927  16.281  0.00  0.00    +0.005 C 
ENDBRANCH  27  33
ENDBRANCH   8  27
ENDBRANCH  22  23
ENDBRANCH  12  22
TORSDOF 8
ENDMDL
MODEL 5
REMARK VINA RESULT:      -6.3     27.187     31.764
REMARK  Name = 11882969
REMARK  10 active torsions:
REMARK  status: ('A' for Active; 'I' for Inactive)
REMARK    1  A    between atoms: O_2  and  C_14
REMARK    2  A    between atoms: O_3  and  C_19
REMARK    3  A    between atoms: N_8  and  C_27
REMARK    4  A    between atoms: C_9  and  C_17
REMARK    5  A    between atoms: C_11  and  C_19
REMARK    6  A    between atoms: C_11  and  C_20
REMARK    7  A    between atoms: C_12  and  C_22
REMARK    8  A    between atoms: C_22  and  C_23
REMARK    9  A    between atoms: C_25  and  C_26
REMARK   10  A    between atoms: C_27  and  C_33
REMARK                            x       y       z     vdW  Elec       q    Type
REMARK                         _______ _______ _______ _____ _____    ______ ____
ROOT
ATOM      1  S   UNL     1      -8.063  -9.563  12.704  0.00  0.00    -0.057 S 
ATOM      5  O   UNL     1      -3.913 -10.684  14.524  0.00  0.00    -0.275 OA
ATOM      6  N   UNL     1      -6.809 -10.114  14.899  0.00  0.00    -0.229 NA
ATOM      7  N   UNL     1      -5.508 -10.127  12.870  0.00  0.00    -0.264 N 
ATOM      9  C   UNL     1     -10.045  -9.258  16.812  0.00  0.00    -0.019 C 
ATOM     10  C   UNL     1     -10.975  -9.736  15.610  0.00  0.00    +0.011 C 
ATOM     11  C   UNL     1     -12.526  -9.506  15.771  0.00  0.00    +0.021 C 
ATOM     12  C   UNL     1      -8.622  -9.967  16.646  0.00  0.00    +0.054 C 
ATOM     13  C   UNL     1     -10.665  -9.716  18.158  0.00  0.00    +0.010 C 
ATOM     14  C   UNL     1     -12.971  -9.975  17.186  0.00  0.00    +0.123 C 
ATOM     15  C   UNL     1     -10.411  -9.274  14.236  0.00  0.00    +0.049 C 
ATOM     16  C   UNL     1     -12.138  -9.366  18.309  0.00  0.00    +0.032 C 
ATOM     17  C   UNL     1      -9.854  -7.723  16.850  0.00  0.00    +0.012 C 
ATOM     18  C   UNL     1      -8.128  -9.865  15.226  0.00  0.00    +0.058 A 
ATOM     20  C   UNL     1     -13.280 -10.387  14.734  0.00  0.00    +0.016 C 
ATOM     21  C   UNL     1      -8.951  -9.571  14.157  0.00  0.00    +0.015 A 
ATOM     24  C   UNL     1      -6.656  -9.977  13.600  0.00  0.00    +0.165 A 
ATOM     26  C   UNL     1      -4.235 -10.463  13.361  0.00  0.00    +0.222 C 
ATOM     37  H   UNL     1      -5.617  -9.980  11.870  0.00  0.00    +0.157 HD
ENDROOT
BRANCH  26  25
ATOM     25  C   UNL     1      -3.217 -10.540  12.260  0.00  0.00    +0.075 C 
ATOM     28  C   UNL     1      -2.294 -11.745  12.448  0.00  0.00    +0.013 C 
ATOM     29  C   UNL     1      -3.913 -10.535  10.897  0.00  0.00    +0.013 C 
ATOM     30  C   UNL     1      -2.945 -13.075  12.068  0.00  0.00    +0.001 C 
ATOM     31  C   UNL     1      -4.558 -11.875  10.549  0.00  0.00    +0.001 C 
ATOM     32  C   UNL     1      -3.566 -13.027  10.678  0.00  0.00    +0.000 C 
ENDBRANCH  26  25
BRANCH  14   2
ATOM      2  O   UNL     1     -14.345  -9.660  17.411  0.00  0.00    -0.391 OA
ATOM     35  H   UNL     1     -14.810 -10.492  17.604  0.00  0.00    +0.210 HD
ENDBRANCH  14   2
BRANCH  11  19
ATOM     19  C   UNL     1     -12.990  -8.058  15.500  0.00  0.00    +0.165 C 
BRANCH  19   3
ATOM      3  O   UNL     1     -14.269  -8.117  14.910  0.00  0.00    -0.394 OA
ATOM     36  H   UNL     1     -14.174  -7.839  13.983  0.00  0.00    +0.209 HD
ENDBRANCH  19   3
ENDBRANCH  11  19
BRANCH  12  22
ATOM     22  C   UNL     1      -7.556  -9.499  17.646  0.00  0.00    +0.106 C 
BRANCH  22  23
ATOM      4  O   UNL     1      -7.275 -10.716  19.718  0.00  0.00    -0.276 OA
ATOM      8  N   UNL     1      -6.324 -11.542  17.764  0.00  0.00    -0.304 N 
ATOM     23  C   UNL     1      -7.056 -10.632  18.513  0.00  0.00    +0.214 C 
ATOM     38  H   UNL     1      -6.215 -11.389  16.766  0.00  0.00    +0.150 HD
BRANCH   8  27
ATOM     27  C   UNL     1      -5.721 -12.726  18.331  0.00  0.00    +0.193 C 
BRANCH  27  33
ATOM     33  C   UNL     1      -4.432 -12.416  18.950  0.00  0.00    -0.087 C 
ATOM     34  C   UNL     1      -3.373 -12.167  19.458  0.00  0.00    +0.005 C 
ENDBRANCH  27  33
ENDBRANCH   8  27
ENDBRANCH  22  23
ENDBRANCH  12  22
TORSDOF 8
ENDMDL
MODEL 6
REMARK VINA RESULT:      -6.2     16.263     19.474
REMARK  Name = 11882969
REMARK  10 active torsions:
REMARK  status: ('A' for Active; 'I' for Inactive)
REMARK    1  A    between atoms: O_2  and  C_14
REMARK    2  A    between atoms: O_3  and  C_19
REMARK    3  A    between atoms: N_8  and  C_27
REMARK    4  A    between atoms: C_9  and  C_17
REMARK    5  A    between atoms: C_11  and  C_19
REMARK    6  A    between atoms: C_11  and  C_20
REMARK    7  A    between atoms: C_12  and  C_22
REMARK    8  A    between atoms: C_22  and  C_23
REMARK    9  A    between atoms: C_25  and  C_26
REMARK   10  A    between atoms: C_27  and  C_33
REMARK                            x       y       z     vdW  Elec       q    Type
REMARK                         _______ _______ _______ _____ _____    ______ ____
ROOT
ATOM      1  S   UNL     1      16.865   6.227  20.028  0.00  0.00    -0.057 S 
ATOM      5  O   UNL     1      20.889   8.232  21.283  0.00  0.00    -0.275 OA
ATOM      6  N   UNL     1      17.918   8.309  21.146  0.00  0.00    -0.229 NA
ATOM      7  N   UNL     1      19.437   6.605  20.370  0.00  0.00    -0.264 N 
ATOM      9  C   UNL     1      14.392   9.863  21.276  0.00  0.00    -0.019 C 
ATOM     10  C   UNL     1      13.686   8.443  21.420  0.00  0.00    +0.011 C 
ATOM     11  C   UNL     1      12.109   8.423  21.404  0.00  0.00    +0.021 C 
ATOM     12  C   UNL     1      15.909   9.709  21.752  0.00  0.00    +0.054 C 
ATOM     13  C   UNL     1      13.689  10.886  22.206  0.00  0.00    +0.010 C 
ATOM     14  C   UNL     1      11.572   9.534  22.350  0.00  0.00    +0.123 C 
ATOM     15  C   UNL     1      14.336   7.386  20.482  0.00  0.00    +0.049 C 
ATOM     16  C   UNL     1      12.173  10.906  22.067  0.00  0.00    +0.032 C 
ATOM     17  C   UNL     1      14.360  10.406  19.827  0.00  0.00    +0.012 C 
ATOM     18  C   UNL     1      16.547   8.487  21.145  0.00  0.00    +0.058 A 
ATOM     20  C   UNL     1      11.614   7.060  21.964  0.00  0.00    +0.016 C 
ATOM     21  C   UNL     1      15.822   7.448  20.596  0.00  0.00    +0.015 A 
ATOM     24  C   UNL     1      18.201   7.157  20.577  0.00  0.00    +0.165 A 
ATOM     26  C   UNL     1      20.678   7.161  20.726  0.00  0.00    +0.222 C 
ATOM     37  H   UNL     1      19.425   5.697  19.915  0.00  0.00    +0.157 HD
ENDROOT
BRANCH  26  25
ATOM     25  C   UNL     1      21.818   6.264  20.341  0.00  0.00    +0.075 C 
ATOM     28  C   UNL     1      23.135   6.759  20.943  0.00  0.00    +0.013 C 
ATOM     29  C   UNL     1      21.502   4.816  20.722  0.00  0.00    +0.013 C 
ATOM     30  C   UNL     1      23.274   6.455  22.434  0.00  0.00    +0.001 C 
ATOM     31  C   UNL     1      21.645   4.545  22.218  0.00  0.00    +0.001 C 
ATOM     32  C   UNL     1      23.008   4.986  22.742  0.00  0.00    +0.000 C 
ENDBRANCH  26  25
BRANCH  14   2
ATOM      2  O   UNL     1      10.150   9.629  22.259  0.00  0.00    -0.391 OA
ATOM     35  H   UNL     1       9.773   9.061  22.952  0.00  0.00    +0.210 HD
ENDBRANCH  14   2
BRANCH  11  19
ATOM     19  C   UNL     1      11.482   8.546  19.998  0.00  0.00    +0.165 C 
BRANCH  19   3
ATOM      3  O   UNL     1      10.179   8.009  20.058  0.00  0.00    -0.394 OA
ATOM     36  H   UNL     1      10.163   7.224  19.484  0.00  0.00    +0.209 HD
ENDBRANCH  19   3
ENDBRANCH  11  19
BRANCH  12  22
ATOM     22  C   UNL     1      16.775  10.959  21.538  0.00  0.00    +0.106 C 
BRANCH  22  23
ATOM      4  O   UNL     1      16.171  13.189  22.259  0.00  0.00    -0.276 OA
ATOM      8  N   UNL     1      16.599  11.546  23.847  0.00  0.00    -0.304 N 
ATOM     23  C   UNL     1      16.476  12.036  22.555  0.00  0.00    +0.214 C 
ATOM     38  H   UNL     1      16.840  10.569  23.986  0.00  0.00    +0.150 HD
BRANCH   8  27
ATOM     27  C   UNL     1      16.374  12.354  25.023  0.00  0.00    +0.193 C 
BRANCH  27  33
ATOM     33  C   UNL     1      14.970  12.311  25.433  0.00  0.00    -0.087 C 
ATOM     34  C   UNL     1      13.819  12.273  25.773  0.00  0.00    +0.005 C 
ENDBRANCH  27  33
ENDBRANCH   8  27
ENDBRANCH  22  23
ENDBRANCH  12  22
TORSDOF 8
ENDMDL
MODEL 7
REMARK VINA RESULT:      -6.1     27.142     29.351
REMARK  Name = 11882969
REMARK  10 active torsions:
REMARK  status: ('A' for Active; 'I' for Inactive)
REMARK    1  A    between atoms: O_2  and  C_14
REMARK    2  A    between atoms: O_3  and  C_19
REMARK    3  A    between atoms: N_8  and  C_27
REMARK    4  A    between atoms: C_9  and  C_17
REMARK    5  A    between atoms: C_11  and  C_19
REMARK    6  A    between atoms: C_11  and  C_20
REMARK    7  A    between atoms: C_12  and  C_22
REMARK    8  A    between atoms: C_22  and  C_23
REMARK    9  A    between atoms: C_25  and  C_26
REMARK   10  A    between atoms: C_27  and  C_33
REMARK                            x       y       z     vdW  Elec       q    Type
REMARK                         _______ _______ _______ _____ _____    ______ ____
ROOT
ATOM      1  S   UNL     1      -4.930  -9.314  10.290  0.00  0.00    -0.057 S 
ATOM      5  O   UNL     1      -9.206  -7.667   9.398  0.00  0.00    -0.275 OA
ATOM      6  N   UNL     1      -7.303  -8.987  11.266  0.00  0.00    -0.229 NA
ATOM      7  N   UNL     1      -6.935  -8.203   9.017  0.00  0.00    -0.264 N 
ATOM      9  C   UNL     1      -6.172 -11.005  14.351  0.00  0.00    -0.019 C 
ATOM     10  C   UNL     1      -4.665 -10.506  14.222  0.00  0.00    +0.011 C 
ATOM     11  C   UNL     1      -3.616 -11.133  15.219  0.00  0.00    +0.021 C 
ATOM     12  C   UNL     1      -7.105  -9.956  13.587  0.00  0.00    +0.054 C 
ATOM     13  C   UNL     1      -6.583 -11.026  15.846  0.00  0.00    +0.010 C 
ATOM     14  C   UNL     1      -4.204 -11.117  16.659  0.00  0.00    +0.123 C 
ATOM     15  C   UNL     1      -4.194 -10.497  12.739  0.00  0.00    +0.049 C 
ATOM     16  C   UNL     1      -5.590 -11.745  16.748  0.00  0.00    +0.032 C 
ATOM     17  C   UNL     1      -6.391 -12.417  13.756  0.00  0.00    +0.012 C 
ATOM     18  C   UNL     1      -6.539  -9.613  12.233  0.00  0.00    +0.058 A 
ATOM     20  C   UNL     1      -2.337 -10.250  15.231  0.00  0.00    +0.016 C 
ATOM     21  C   UNL     1      -5.225  -9.848  11.879  0.00  0.00    +0.015 A 
ATOM     24  C   UNL     1      -6.562  -8.787  10.198  0.00  0.00    +0.165 A 
ATOM     26  C   UNL     1      -8.203  -7.691   8.693  0.00  0.00    +0.222 C 
ATOM     37  H   UNL     1      -6.197  -8.143   8.321  0.00  0.00    +0.157 HD
ENDROOT
BRANCH  26  25
ATOM     25  C   UNL     1      -8.235  -7.125   7.303  0.00  0.00    +0.075 C 
ATOM     28  C   UNL     1      -7.792  -8.167   6.275  0.00  0.00    +0.013 C 
ATOM     29  C   UNL     1      -9.619  -6.547   7.000  0.00  0.00    +0.013 C 
ATOM     30  C   UNL     1      -8.861  -9.218   5.974  0.00  0.00    +0.001 C 
ATOM     31  C   UNL     1     -10.666  -7.621   6.709  0.00  0.00    +0.001 C 
ATOM     32  C   UNL     1     -10.199  -8.580   5.619  0.00  0.00    +0.000 C 
ENDBRANCH  26  25
BRANCH  14   2
ATOM      2  O   UNL     1      -3.334 -11.795  17.565  0.00  0.00    -0.391 OA
ATOM     35  H   UNL     1      -2.448 -11.408  17.468  0.00  0.00    +0.210 HD
ENDBRANCH  14   2
BRANCH  11  19
ATOM     19  C   UNL     1      -3.137 -12.551  14.836  0.00  0.00    +0.165 C 
BRANCH  19   3
ATOM      3  O   UNL     1      -1.727 -12.546  14.839  0.00  0.00    -0.394 OA
ATOM     36  H   UNL     1      -1.433 -13.273  14.264  0.00  0.00    +0.209 HD
ENDBRANCH  19   3
ENDBRANCH  11  19
BRANCH  12  22
ATOM     22  C   UNL     1      -8.581 -10.368  13.490  0.00  0.00    +0.106 C 
BRANCH  22  23
ATOM      4  O   UNL     1     -10.575  -9.000  13.567  0.00  0.00    -0.276 OA
ATOM      8  N   UNL     1      -8.964  -8.771  15.226  0.00  0.00    -0.304 N 
ATOM     23  C   UNL     1      -9.501  -9.317  14.069  0.00  0.00    +0.214 C 
ATOM     38  H   UNL     1      -8.072  -9.116  15.570  0.00  0.00    +0.150 HD
BRANCH   8  27
ATOM     27  C   UNL     1      -9.624  -7.740  15.993  0.00  0.00    +0.193 C 
BRANCH  27  33
ATOM     33  C   UNL     1     -10.507  -8.321  17.005  0.00  0.00    -0.087 C 
ATOM     34  C   UNL     1     -11.228  -8.797  17.839  0.00  0.00    +0.005 C 
ENDBRANCH  27  33
ENDBRANCH   8  27
ENDBRANCH  22  23
ENDBRANCH  12  22
TORSDOF 8
ENDMDL
MODEL 8
REMARK VINA RESULT:      -6.1     25.948     30.556
REMARK  Name = 11882969
REMARK  10 active torsions:
REMARK  status: ('A' for Active; 'I' for Inactive)
REMARK    1  A    between atoms: O_2  and  C_14
REMARK    2  A    between atoms: O_3  and  C_19
REMARK    3  A    between atoms: N_8  and  C_27
REMARK    4  A    between atoms: C_9  and  C_17
REMARK    5  A    between atoms: C_11  and  C_19
REMARK    6  A    between atoms: C_11  and  C_20
REMARK    7  A    between atoms: C_12  and  C_22
REMARK    8  A    between atoms: C_22  and  C_23
REMARK    9  A    between atoms: C_25  and  C_26
REMARK   10  A    between atoms: C_27  and  C_33
REMARK                            x       y       z     vdW  Elec       q    Type
REMARK                         _______ _______ _______ _____ _____    ______ ____
ROOT
ATOM      1  S   UNL     1      -8.867 -10.055  13.365  0.00  0.00    -0.057 S 
ATOM      5  O   UNL     1      -4.704  -9.084  11.491  0.00  0.00    -0.275 OA
ATOM      6  N   UNL     1      -6.318 -10.030  13.805  0.00  0.00    -0.229 NA
ATOM      7  N   UNL     1      -7.054  -9.299  11.629  0.00  0.00    -0.264 N 
ATOM      9  C   UNL     1      -7.070 -10.974  17.466  0.00  0.00    -0.019 C 
ATOM     10  C   UNL     1      -8.382 -11.785  17.070  0.00  0.00    +0.011 C 
ATOM     11  C   UNL     1      -9.255 -12.356  18.253  0.00  0.00    +0.021 C 
ATOM     12  C   UNL     1      -6.138 -10.883  16.172  0.00  0.00    +0.054 C 
ATOM     13  C   UNL     1      -6.299 -11.746  18.570  0.00  0.00    +0.010 C 
ATOM     14  C   UNL     1      -8.325 -13.054  19.287  0.00  0.00    +0.123 C 
ATOM     15  C   UNL     1      -9.208 -11.036  15.986  0.00  0.00    +0.049 C 
ATOM     16  C   UNL     1      -7.168 -12.173  19.744  0.00  0.00    +0.032 C 
ATOM     17  C   UNL     1      -7.377  -9.547  17.981  0.00  0.00    +0.012 C 
ATOM     18  C   UNL     1      -6.934 -10.479  14.958  0.00  0.00    +0.058 A 
ATOM     20  C   UNL     1     -10.221 -13.438  17.694  0.00  0.00    +0.016 C 
ATOM     21  C   UNL     1      -8.309 -10.573  14.889  0.00  0.00    +0.015 A 
ATOM     24  C   UNL     1      -7.238  -9.770  12.901  0.00  0.00    +0.165 A 
ATOM     26  C   UNL     1      -5.829  -8.991  11.013  0.00  0.00    +0.222 C 
ATOM     37  H   UNL     1      -7.910  -9.174  11.095  0.00  0.00    +0.157 HD
ENDROOT
BRANCH  26  25
ATOM     25  C   UNL     1      -6.022  -8.502   9.607  0.00  0.00    +0.075 C 
ATOM     28  C   UNL     1      -4.809  -8.836   8.737  0.00  0.00    +0.013 C 
ATOM     29  C   UNL     1      -7.330  -9.050   9.033  0.00  0.00    +0.013 C 
ATOM     30  C   UNL     1      -4.747 -10.305   8.319  0.00  0.00    +0.001 C 
ATOM     31  C   UNL     1      -7.238 -10.520   8.629  0.00  0.00    +0.001 C 
ATOM     32  C   UNL     1      -6.057 -10.775   7.698  0.00  0.00    +0.000 C 
ENDBRANCH  26  25
BRANCH  14   2
ATOM      2  O   UNL     1      -9.069 -13.467  20.433  0.00  0.00    -0.391 OA
ATOM     35  H   UNL     1     -10.013 -13.362  20.225  0.00  0.00    +0.210 HD
ENDBRANCH  14   2
BRANCH  11  19
ATOM     19  C   UNL     1     -10.158 -11.311  18.944  0.00  0.00    +0.165 C 
BRANCH  19   3
ATOM      3  O   UNL     1     -11.326 -11.970  19.380  0.00  0.00    -0.394 OA
ATOM     36  H   UNL     1     -11.489 -12.707  18.767  0.00  0.00    +0.209 HD
ENDBRANCH  19   3
ENDBRANCH  11  19
BRANCH  12  22
ATOM     22  C   UNL     1      -4.891 -10.003  16.344  0.00  0.00    +0.106 C 
BRANCH  22  23
ATOM      4  O   UNL     1      -2.768 -11.087  16.760  0.00  0.00    -0.276 OA
ATOM      8  N   UNL     1      -3.571 -10.933  14.584  0.00  0.00    -0.304 N 
ATOM     23  C   UNL     1      -3.625 -10.731  15.955  0.00  0.00    +0.214 C 
ATOM     38  H   UNL     1      -4.342 -10.615  14.005  0.00  0.00    +0.150 HD
BRANCH   8  27
ATOM     27  C   UNL     1      -2.471 -11.602  13.928  0.00  0.00    +0.193 C 
BRANCH  27  33
ATOM     33  C   UNL     1      -1.963 -10.809  12.809  0.00  0.00    -0.087 C 
ATOM     34  C   UNL     1      -1.550 -10.155  11.890  0.00  0.00    +0.005 C 
ENDBRANCH  27  33
ENDBRANCH   8  27
ENDBRANCH  22  23
ENDBRANCH  12  22
TORSDOF 8
ENDMDL
MODEL 9
REMARK VINA RESULT:      -6.1     26.334     31.719
REMARK  Name = 11882969
REMARK  10 active torsions:
REMARK  status: ('A' for Active; 'I' for Inactive)
REMARK    1  A    between atoms: O_2  and  C_14
REMARK    2  A    between atoms: O_3  and  C_19
REMARK    3  A    between atoms: N_8  and  C_27
REMARK    4  A    between atoms: C_9  and  C_17
REMARK    5  A    between atoms: C_11  and  C_19
REMARK    6  A    between atoms: C_11  and  C_20
REMARK    7  A    between atoms: C_12  and  C_22
REMARK    8  A    between atoms: C_22  and  C_23
REMARK    9  A    between atoms: C_25  and  C_26
REMARK   10  A    between atoms: C_27  and  C_33
REMARK                            x       y       z     vdW  Elec       q    Type
REMARK                         _______ _______ _______ _____ _____    ______ ____
ROOT
ATOM      1  S   UNL     1      -9.083 -11.525  13.312  0.00  0.00    -0.057 S 
ATOM      5  O   UNL     1      -4.449 -11.017  13.073  0.00  0.00    -0.275 OA
ATOM      6  N   UNL     1      -6.945 -11.057  14.692  0.00  0.00    -0.229 NA
ATOM      7  N   UNL     1      -6.659 -11.392  12.322  0.00  0.00    -0.264 N 
ATOM      9  C   UNL     1      -9.209 -10.437  17.750  0.00  0.00    -0.019 C 
ATOM     10  C   UNL     1     -10.311 -11.469  17.242  0.00  0.00    +0.011 C 
ATOM     11  C   UNL     1     -11.638 -11.572  18.087  0.00  0.00    +0.021 C 
ATOM     12  C   UNL     1      -7.825 -10.807  17.042  0.00  0.00    +0.054 C 
ATOM     13  C   UNL     1      -9.029 -10.587  19.283  0.00  0.00    +0.010 C 
ATOM     14  C   UNL     1     -11.279 -11.670  19.597  0.00  0.00    +0.123 C 
ATOM     15  C   UNL     1     -10.551 -11.336  15.711  0.00  0.00    +0.049 C 
ATOM     16  C   UNL     1     -10.337 -10.565  20.062  0.00  0.00    +0.032 C 
ATOM     17  C   UNL     1      -9.572  -8.966  17.435  0.00  0.00    +0.012 C 
ATOM     18  C   UNL     1      -8.016 -11.037  15.565  0.00  0.00    +0.058 A 
ATOM     20  C   UNL     1     -12.383 -12.882  17.703  0.00  0.00    +0.016 C 
ATOM     21  C   UNL     1      -9.245 -11.290  14.991  0.00  0.00    +0.015 A 
ATOM     24  C   UNL     1      -7.388 -11.298  13.477  0.00  0.00    +0.165 A 
ATOM     26  C   UNL     1      -5.267 -11.250  12.190  0.00  0.00    +0.222 C 
ATOM     37  H   UNL     1      -7.206 -11.592  11.489  0.00  0.00    +0.157 HD
ENDROOT
BRANCH  26  25
ATOM     25  C   UNL     1      -4.823 -11.422  10.766  0.00  0.00    +0.075 C 
ATOM     28  C   UNL     1      -5.617 -10.511   9.829  0.00  0.00    +0.013 C 
ATOM     29  C   UNL     1      -3.312 -11.212  10.655  0.00  0.00    +0.013 C 
ATOM     30  C   UNL     1      -5.179  -9.048   9.887  0.00  0.00    +0.001 C 
ATOM     31  C   UNL     1      -2.906  -9.741  10.723  0.00  0.00    +0.001 C 
ATOM     32  C   UNL     1      -3.673  -8.898   9.709  0.00  0.00    +0.000 C 
ENDBRANCH  26  25
BRANCH  14   2
ATOM      2  O   UNL     1     -12.460 -11.633  20.398  0.00  0.00    -0.391 OA
ATOM     35  H   UNL     1     -12.471 -12.439  20.942  0.00  0.00    +0.210 HD
ENDBRANCH  14   2
BRANCH  11  19
ATOM     19  C   UNL     1     -12.648 -10.431  17.834  0.00  0.00    +0.165 C 
BRANCH  19   3
ATOM      3  O   UNL     1     -13.942 -10.938  18.075  0.00  0.00    -0.394 OA
ATOM     36  H   UNL     1     -14.529 -10.177  18.222  0.00  0.00    +0.209 HD
ENDBRANCH  19   3
ENDBRANCH  11  19
BRANCH  12  22
ATOM     22  C   UNL     1      -6.685  -9.814  17.313  0.00  0.00    +0.106 C 
BRANCH  22  23
ATOM      4  O   UNL     1      -5.262 -10.955  18.903  0.00  0.00    -0.276 OA
ATOM      8  N   UNL     1      -4.493 -10.571  16.743  0.00  0.00    -0.304 N 
ATOM     23  C   UNL     1      -5.424 -10.511  17.769  0.00  0.00    +0.214 C 
ATOM     38  H   UNL     1      -4.732 -10.189  15.834  0.00  0.00    +0.150 HD
BRANCH   8  27
ATOM     27  C   UNL     1      -3.191 -11.181  16.893  0.00  0.00    +0.193 C 
BRANCH  27  33
ATOM     33  C   UNL     1      -2.246 -10.654  15.908  0.00  0.00    -0.087 C 
ATOM     34  C   UNL     1      -1.467 -10.224  15.102  0.00  0.00    +0.005 C 
ENDBRANCH  27  33
ENDBRANCH   8  27
ENDBRANCH  22  23
ENDBRANCH  12  22
TORSDOF 8
ENDMDL
MODEL 10
REMARK VINA RESULT:      -6.0     28.063     30.895
REMARK  Name = 11882969
REMARK  10 active torsions:
REMARK  status: ('A' for Active; 'I' for Inactive)
REMARK    1  A    between atoms: O_2  and  C_14
REMARK    2  A    between atoms: O_3  and  C_19
REMARK    3  A    between atoms: N_8  and  C_27
REMARK    4  A    between atoms: C_9  and  C_17
REMARK    5  A    between atoms: C_11  and  C_19
REMARK    6  A    between atoms: C_11  and  C_20
REMARK    7  A    between atoms: C_12  and  C_22
REMARK    8  A    between atoms: C_22  and  C_23
REMARK    9  A    between atoms: C_25  and  C_26
REMARK   10  A    between atoms: C_27  and  C_33
REMARK                            x       y       z     vdW  Elec       q    Type
REMARK                         _______ _______ _______ _____ _____    ______ ____
ROOT
ATOM      1  S   UNL     1      -6.589 -11.204  12.507  0.00  0.00    -0.057 S 
ATOM      5  O   UNL     1     -10.272  -8.683  11.140  0.00  0.00    -0.275 OA
ATOM      6  N   UNL     1      -8.635  -9.853  13.331  0.00  0.00    -0.229 NA
ATOM      7  N   UNL     1      -8.315  -9.996  10.946  0.00  0.00    -0.264 N 
ATOM      9  C   UNL     1      -7.795 -11.012  16.911  0.00  0.00    -0.019 C 
ATOM     10  C   UNL     1      -6.233 -11.081  16.607  0.00  0.00    +0.011 C 
ATOM     11  C   UNL     1      -5.306 -11.646  17.750  0.00  0.00    +0.021 C 
ATOM     12  C   UNL     1      -8.463 -10.031  15.842  0.00  0.00    +0.054 C 
ATOM     13  C   UNL     1      -8.020 -10.418  18.326  0.00  0.00    +0.010 C 
ATOM     14  C   UNL     1      -5.694 -10.982  19.102  0.00  0.00    +0.123 C 
ATOM     15  C   UNL     1      -5.953 -11.699  15.208  0.00  0.00    +0.049 C 
ATOM     16  C   UNL     1      -7.183 -11.079  19.413  0.00  0.00    +0.032 C 
ATOM     17  C   UNL     1      -8.483 -12.397  16.839  0.00  0.00    +0.012 C 
ATOM     18  C   UNL     1      -7.981 -10.339  14.448  0.00  0.00    +0.058 A 
ATOM     20  C   UNL     1      -3.832 -11.254  17.448  0.00  0.00    +0.016 C 
ATOM     21  C   UNL     1      -6.842 -11.075  14.185  0.00  0.00    +0.015 A 
ATOM     24  C   UNL     1      -7.996 -10.252  12.253  0.00  0.00    +0.165 A 
ATOM     26  C   UNL     1      -9.407  -9.247  10.477  0.00  0.00    +0.222 C 
ATOM     37  H   UNL     1      -7.676 -10.399  10.267  0.00  0.00    +0.157 HD
ENDROOT
BRANCH  26  25
ATOM     25  C   UNL     1      -9.432  -9.181   8.978  0.00  0.00    +0.075 C 
ATOM     28  C   UNL     1     -10.333  -8.044   8.492  0.00  0.00    +0.013 C 
ATOM     29  C   UNL     1      -8.006  -9.080   8.430  0.00  0.00    +0.013 C 
ATOM     30  C   UNL     1      -9.699  -6.661   8.637  0.00  0.00    +0.001 C 
ATOM     31  C   UNL     1      -7.399  -7.688   8.595  0.00  0.00    +0.001 C 
ATOM     32  C   UNL     1      -8.307  -6.606   8.019  0.00  0.00    +0.000 C 
ENDBRANCH  26  25
BRANCH  14   2
ATOM      2  O   UNL     1      -4.961 -11.567  20.178  0.00  0.00    -0.391 OA
ATOM     35  H   UNL     1      -5.338 -12.448  20.346  0.00  0.00    +0.210 HD
ENDBRANCH  14   2
BRANCH  11  19
ATOM     19  C   UNL     1      -5.308 -13.186  17.873  0.00  0.00    +0.165 C 
BRANCH  19   3
ATOM      3  O   UNL     1      -4.125 -13.568  18.538  0.00  0.00    -0.394 OA
ATOM     36  H   UNL     1      -3.774 -12.777  18.982  0.00  0.00    +0.209 HD
ENDBRANCH  19   3
ENDBRANCH  11  19
BRANCH  12  22
ATOM     22  C   UNL     1      -9.996  -9.967  15.905  0.00  0.00    +0.106 C 
BRANCH  22  23
ATOM      4  O   UNL     1     -11.175  -8.409  17.332  0.00  0.00    -0.276 OA
ATOM      8  N   UNL     1     -10.065  -7.624  15.447  0.00  0.00    -0.304 N 
ATOM     23  C   UNL     1     -10.489  -8.604  16.332  0.00  0.00    +0.214 C 
ATOM     38  H   UNL     1      -9.484  -7.886  14.657  0.00  0.00    +0.150 HD
BRANCH   8  27
ATOM     27  C   UNL     1     -10.390  -6.224  15.604  0.00  0.00    +0.193 C 
BRANCH  27  33
ATOM     33  C   UNL     1     -11.626  -5.888  14.897  0.00  0.00    -0.087 C 
ATOM     34  C   UNL     1     -12.642  -5.609  14.321  0.00  0.00    +0.005 C 
ENDBRANCH  27  33
ENDBRANCH   8  27
ENDBRANCH  22  23
ENDBRANCH  12  22
TORSDOF 8
ENDMDL
