MODEL 1
REMARK VINA RESULT:      -6.3      0.000      0.000
REMARK  Name = 75536034
REMARK  14 active torsions:
REMARK  status: ('A' for Active; 'I' for Inactive)
REMARK    1  A    between atoms: O_4  and  C_28
REMARK    2  A    between atoms: O_4  and  C_40
REMARK    3  A    between atoms: O_6  and  C_39
REMARK    4  A    between atoms: O_6  and  C_43
REMARK    5  A    between atoms: N_8  and  C_12
REMARK    6  A    between atoms: N_10  and  C_25
REMARK    7  A    between atoms: N_11  and  C_34
REMARK    8  A    between atoms: N_11  and  C_41
REMARK    9  A    between atoms: N_11  and  C_42
REMARK   10  A    between atoms: C_18  and  C_23
REMARK   11  A    between atoms: C_24  and  C_26
REMARK   12  A    between atoms: C_25  and  C_27
REMARK   13  A    between atoms: C_25  and  C_28
REMARK   14  A    between atoms: C_27  and  C_31
REMARK                            x       y       z     vdW  Elec       q    Type
REMARK                         _______ _______ _______ _____ _____    ______ ____
ROOT
ATOM      1  O   UNL     1      -9.975  -9.829  12.936  0.00  0.00    -0.253 OA
ATOM      3  O   UNL     1      -3.513  -9.142   9.524  0.00  0.00    -0.270 OA
ATOM      7  N   UNL     1      -7.738  -9.621  12.340  0.00  0.00    -0.271 N 
ATOM      8  N   UNL     1      -8.429  -9.461  14.596  0.00  0.00    -0.296 N 
ATOM      9  N   UNL     1      -5.644  -9.693  10.310  0.00  0.00    -0.294 N 
ATOM     18  C   UNL     1      -6.353  -9.247  12.662  0.00  0.00    +0.181 C 
ATOM     19  C   UNL     1      -5.564  -8.768  11.443  0.00  0.00    +0.140 C 
ATOM     20  C   UNL     1      -8.050  -9.816  10.921  0.00  0.00    +0.129 C 
ATOM     21  C   UNL     1      -6.895 -10.445  10.154  0.00  0.00    +0.127 C 
ATOM     22  C   UNL     1      -8.800  -9.648  13.268  0.00  0.00    +0.303 C 
ATOM     24  C   UNL     1      -4.570  -9.761   9.415  0.00  0.00    +0.247 C 
ATOM     44  H   UNL     1      -7.448  -9.438  14.847  0.00  0.00    +0.151 HD
ENDROOT
BRANCH   8  12
ATOM     12  C   UNL     1      -9.396  -9.466  15.671  0.00  0.00    +0.074 C 
ATOM     13  C   UNL     1      -8.893  -8.651  16.868  0.00  0.00    +0.022 C 
ATOM     14  C   UNL     1      -9.753 -10.897  16.084  0.00  0.00    +0.022 C 
ATOM     15  C   UNL     1      -7.756  -9.351  17.614  0.00  0.00    +0.002 C 
ATOM     16  C   UNL     1      -8.616 -11.592  16.831  0.00  0.00    +0.002 C 
ATOM     17  C   UNL     1      -8.139 -10.769  18.024  0.00  0.00    +0.000 C 
ENDBRANCH   8  12
BRANCH  24  26
ATOM     26  C   UNL     1      -4.701 -10.644   8.245  0.00  0.00    +0.037 A 
ATOM     29  C   UNL     1      -5.292 -10.168   7.075  0.00  0.00    +0.015 A 
ATOM     30  C   UNL     1      -4.234 -11.957   8.306  0.00  0.00    +0.015 A 
ATOM     32  C   UNL     1      -5.416 -11.004   5.965  0.00  0.00    +0.024 A 
ATOM     33  C   UNL     1      -4.358 -12.793   7.197  0.00  0.00    +0.024 A 
ATOM     34  C   UNL     1      -4.948 -12.317   6.026  0.00  0.00    +0.029 A 
BRANCH  34  11
ATOM     11  N   UNL     1      -5.074 -13.161   4.904  0.00  0.00    -0.336 N 
ATOM     41  C   UNL     1      -5.204 -12.600   3.574  0.00  0.00    +0.129 C 
ATOM     42  C   UNL     1      -5.069 -14.602   5.064  0.00  0.00    +0.129 C 
ENDBRANCH  34  11
ENDBRANCH  24  26
BRANCH  18  23
ATOM      2  O   UNL     1      -6.240 -11.545  13.310  0.00  0.00    -0.274 OA
ATOM     10  N   UNL     1      -4.422 -10.161  13.751  0.00  0.00    -0.301 N 
ATOM     23  C   UNL     1      -5.684 -10.451  13.263  0.00  0.00    +0.236 C 
ATOM     45  H   UNL     1      -4.052  -9.221  13.642  0.00  0.00    +0.150 HD
BRANCH  10  25
ATOM     25  C   UNL     1      -3.579 -11.141  14.397  0.00  0.00    +0.186 C 
BRANCH  25  28
ATOM      5  O   UNL     1      -2.006 -10.719  16.183  0.00  0.00    -0.249 OA
ATOM     28  C   UNL     1      -3.173 -10.720  15.803  0.00  0.00    +0.328 C 
BRANCH  28   4
ATOM      4  O   UNL     1      -4.247 -10.370  16.565  0.00  0.00    -0.467 OA
ATOM     40  C   UNL     1      -4.423 -11.119  17.772  0.00  0.00    +0.280 C 
ENDBRANCH  28   4
ENDBRANCH  25  28
BRANCH  25  27
ATOM     27  C   UNL     1      -2.362 -11.490  13.527  0.00  0.00    +0.069 C 
BRANCH  27  31
ATOM     31  C   UNL     1      -2.437 -12.838  12.847  0.00  0.00    -0.045 A 
ATOM     35  C   UNL     1      -1.707 -13.915  13.349  0.00  0.00    +0.007 A 
ATOM     36  C   UNL     1      -3.236 -13.005  11.716  0.00  0.00    +0.007 A 
ATOM     37  C   UNL     1      -1.776 -15.159  12.722  0.00  0.00    +0.046 A 
ATOM     38  C   UNL     1      -3.306 -14.249  11.089  0.00  0.00    +0.046 A 
ATOM     39  C   UNL     1      -2.575 -15.325  11.592  0.00  0.00    +0.120 A 
BRANCH  39   6
ATOM      6  O   UNL     1      -2.643 -16.539  10.978  0.00  0.00    -0.495 OA
ATOM     43  C   UNL     1      -3.105 -16.560   9.629  0.00  0.00    +0.277 C 
ENDBRANCH  39   6
ENDBRANCH  27  31
ENDBRANCH  25  27
ENDBRANCH  10  25
ENDBRANCH  18  23
TORSDOF 10
ENDMDL
MODEL 2
REMARK VINA RESULT:      -6.2      1.702      3.870
REMARK  Name = 75536034
REMARK  14 active torsions:
REMARK  status: ('A' for Active; 'I' for Inactive)
REMARK    1  A    between atoms: O_4  and  C_28
REMARK    2  A    between atoms: O_4  and  C_40
REMARK    3  A    between atoms: O_6  and  C_39
REMARK    4  A    between atoms: O_6  and  C_43
REMARK    5  A    between atoms: N_8  and  C_12
REMARK    6  A    between atoms: N_10  and  C_25
REMARK    7  A    between atoms: N_11  and  C_34
REMARK    8  A    between atoms: N_11  and  C_41
REMARK    9  A    between atoms: N_11  and  C_42
REMARK   10  A    between atoms: C_18  and  C_23
REMARK   11  A    between atoms: C_24  and  C_26
REMARK   12  A    between atoms: C_25  and  C_27
REMARK   13  A    between atoms: C_25  and  C_28
REMARK   14  A    between atoms: C_27  and  C_31
REMARK                            x       y       z     vdW  Elec       q    Type
REMARK                         _______ _______ _______ _____ _____    ______ ____
ROOT
ATOM      1  O   UNL     1     -10.141  -9.779  12.645  0.00  0.00    -0.253 OA
ATOM      3  O   UNL     1      -3.926  -8.811   8.862  0.00  0.00    -0.270 OA
ATOM      7  N   UNL     1      -7.950  -9.517  11.915  0.00  0.00    -0.271 N 
ATOM      8  N   UNL     1      -8.485  -9.531  14.218  0.00  0.00    -0.296 N 
ATOM      9  N   UNL     1      -6.000  -9.428   9.747  0.00  0.00    -0.294 N 
ATOM     18  C   UNL     1      -6.545  -9.164  12.170  0.00  0.00    +0.181 C 
ATOM     19  C   UNL     1      -5.842  -8.591  10.939  0.00  0.00    +0.140 C 
ATOM     20  C   UNL     1      -8.358  -9.606  10.510  0.00  0.00    +0.129 C 
ATOM     21  C   UNL     1      -7.259 -10.170   9.621  0.00  0.00    +0.127 C 
ATOM     22  C   UNL     1      -8.946  -9.619  12.909  0.00  0.00    +0.303 C 
ATOM     24  C   UNL     1      -4.989  -9.424   8.779  0.00  0.00    +0.247 C 
ATOM     44  H   UNL     1      -7.489  -9.523  14.403  0.00  0.00    +0.151 HD
ENDROOT
BRANCH   8  12
ATOM     12  C   UNL     1      -9.376  -9.621  15.354  0.00  0.00    +0.074 C 
ATOM     13  C   UNL     1      -8.866  -8.772  16.523  0.00  0.00    +0.022 C 
ATOM     14  C   UNL     1      -9.586 -11.079  15.775  0.00  0.00    +0.022 C 
ATOM     15  C   UNL     1      -7.629  -9.377  17.188  0.00  0.00    +0.002 C 
ATOM     16  C   UNL     1      -8.349 -11.679  16.441  0.00  0.00    +0.002 C 
ATOM     17  C   UNL     1      -7.866 -10.824  17.609  0.00  0.00    +0.000 C 
ENDBRANCH   8  12
BRANCH  24  26
ATOM     26  C   UNL     1      -5.201 -10.216   7.557  0.00  0.00    +0.037 A 
ATOM     29  C   UNL     1      -4.583 -11.459   7.416  0.00  0.00    +0.015 A 
ATOM     30  C   UNL     1      -6.018  -9.725   6.539  0.00  0.00    +0.015 A 
ATOM     32  C   UNL     1      -4.783 -12.211   6.258  0.00  0.00    +0.024 A 
ATOM     33  C   UNL     1      -6.218 -10.475   5.381  0.00  0.00    +0.024 A 
ATOM     34  C   UNL     1      -5.601 -11.718   5.240  0.00  0.00    +0.029 A 
BRANCH  34  11
ATOM     11  N   UNL     1      -5.803 -12.478   4.070  0.00  0.00    -0.336 N 
ATOM     41  C   UNL     1      -7.080 -13.118   3.821  0.00  0.00    +0.129 C 
ATOM     42  C   UNL     1      -4.739 -12.625   3.097  0.00  0.00    +0.129 C 
ENDBRANCH  34  11
ENDBRANCH  24  26
BRANCH  18  23
ATOM      2  O   UNL     1      -6.402 -11.498  12.665  0.00  0.00    -0.274 OA
ATOM     10  N   UNL     1      -4.532 -10.156  13.012  0.00  0.00    -0.301 N 
ATOM     23  C   UNL     1      -5.839 -10.407  12.630  0.00  0.00    +0.236 C 
ATOM     45  H   UNL     1      -4.161  -9.214  12.925  0.00  0.00    +0.150 HD
BRANCH  10  25
ATOM     25  C   UNL     1      -3.644 -11.180  13.515  0.00  0.00    +0.186 C 
BRANCH  25  28
ATOM      5  O   UNL     1      -1.615 -12.206  12.697  0.00  0.00    -0.249 OA
ATOM     28  C   UNL     1      -2.711 -11.718  12.439  0.00  0.00    +0.328 C 
BRANCH  28   4
ATOM      4  O   UNL     1      -3.232 -11.575  11.188  0.00  0.00    -0.467 OA
ATOM     40  C   UNL     1      -3.736 -12.771  10.585  0.00  0.00    +0.280 C 
ENDBRANCH  28   4
ENDBRANCH  25  28
BRANCH  25  27
ATOM     27  C   UNL     1      -4.427 -12.303  14.212  0.00  0.00    +0.069 C 
BRANCH  27  31
ATOM     31  C   UNL     1      -4.480 -12.196  15.720  0.00  0.00    -0.045 A 
ATOM     35  C   UNL     1      -4.928 -13.275  16.480  0.00  0.00    +0.007 A 
ATOM     36  C   UNL     1      -4.080 -11.017  16.349  0.00  0.00    +0.007 A 
ATOM     37  C   UNL     1      -4.976 -13.176  17.871  0.00  0.00    +0.046 A 
ATOM     38  C   UNL     1      -4.127 -10.918  17.739  0.00  0.00    +0.046 A 
ATOM     39  C   UNL     1      -4.576 -11.998  18.500  0.00  0.00    +0.120 A 
BRANCH  39   6
ATOM      6  O   UNL     1      -4.624 -11.900  19.857  0.00  0.00    -0.495 OA
ATOM     43  C   UNL     1      -5.785 -11.298  20.426  0.00  0.00    +0.277 C 
ENDBRANCH  39   6
ENDBRANCH  27  31
ENDBRANCH  25  27
ENDBRANCH  10  25
ENDBRANCH  18  23
TORSDOF 10
ENDMDL
MODEL 3
REMARK VINA RESULT:      -6.1     25.129     27.956
REMARK  Name = 75536034
REMARK  14 active torsions:
REMARK  status: ('A' for Active; 'I' for Inactive)
REMARK    1  A    between atoms: O_4  and  C_28
REMARK    2  A    between atoms: O_4  and  C_40
REMARK    3  A    between atoms: O_6  and  C_39
REMARK    4  A    between atoms: O_6  and  C_43
REMARK    5  A    between atoms: N_8  and  C_12
REMARK    6  A    between atoms: N_10  and  C_25
REMARK    7  A    between atoms: N_11  and  C_34
REMARK    8  A    between atoms: N_11  and  C_41
REMARK    9  A    between atoms: N_11  and  C_42
REMARK   10  A    between atoms: C_18  and  C_23
REMARK   11  A    between atoms: C_24  and  C_26
REMARK   12  A    between atoms: C_25  and  C_27
REMARK   13  A    between atoms: C_25  and  C_28
REMARK   14  A    between atoms: C_27  and  C_31
REMARK                            x       y       z     vdW  Elec       q    Type
REMARK                         _______ _______ _______ _____ _____    ______ ____
ROOT
ATOM      1  O   UNL     1      16.859   8.569   0.691  0.00  0.00    -0.253 OA
ATOM      3  O   UNL     1      12.239   2.920   1.480  0.00  0.00    -0.270 OA
ATOM      7  N   UNL     1      15.359   6.954   1.430  0.00  0.00    -0.271 N 
ATOM      8  N   UNL     1      16.406   8.442   2.941  0.00  0.00    -0.296 N 
ATOM      9  N   UNL     1      13.465   4.811   0.858  0.00  0.00    -0.294 N 
ATOM     18  C   UNL     1      14.745   6.173   2.514  0.00  0.00    +0.181 C 
ATOM     19  C   UNL     1      14.294   4.782   2.066  0.00  0.00    +0.140 C 
ATOM     20  C   UNL     1      15.143   6.464   0.066  0.00  0.00    +0.129 C 
ATOM     21  C   UNL     1      13.757   5.863  -0.122  0.00  0.00    +0.127 C 
ATOM     22  C   UNL     1      16.254   8.028   1.622  0.00  0.00    +0.303 C 
ATOM     24  C   UNL     1      12.502   3.812   0.675  0.00  0.00    +0.247 C 
ATOM     44  H   UNL     1      15.806   8.061   3.661  0.00  0.00    +0.151 HD
ENDROOT
BRANCH   8  12
ATOM     12  C   UNL     1      17.283   9.533   3.306  0.00  0.00    +0.074 C 
ATOM     13  C   UNL     1      18.733   9.055   3.435  0.00  0.00    +0.022 C 
ATOM     14  C   UNL     1      16.806  10.215   4.593  0.00  0.00    +0.022 C 
ATOM     15  C   UNL     1      18.955   8.191   4.677  0.00  0.00    +0.002 C 
ATOM     16  C   UNL     1      17.032   9.350   5.832  0.00  0.00    +0.002 C 
ATOM     17  C   UNL     1      18.483   8.895   5.945  0.00  0.00    +0.000 C 
ENDBRANCH   8  12
BRANCH  24  26
ATOM     26  C   UNL     1      11.730   3.818  -0.578  0.00  0.00    +0.037 A 
ATOM     29  C   UNL     1      10.660   4.700  -0.734  0.00  0.00    +0.015 A 
ATOM     30  C   UNL     1      12.067   2.943  -1.610  0.00  0.00    +0.015 A 
ATOM     32  C   UNL     1       9.928   4.707  -1.921  0.00  0.00    +0.024 A 
ATOM     33  C   UNL     1      11.336   2.949  -2.797  0.00  0.00    +0.024 A 
ATOM     34  C   UNL     1      10.266   3.831  -2.953  0.00  0.00    +0.029 A 
BRANCH  34  11
ATOM     11  N   UNL     1       9.526   3.838  -4.153  0.00  0.00    -0.336 N 
ATOM     41  C   UNL     1       8.493   4.832  -4.372  0.00  0.00    +0.129 C 
ATOM     42  C   UNL     1       9.791   2.857  -5.186  0.00  0.00    +0.129 C 
ENDBRANCH  34  11
ENDBRANCH  24  26
BRANCH  18  23
ATOM      2  O   UNL     1      13.349   8.107   2.669  0.00  0.00    -0.274 OA
ATOM     10  N   UNL     1      12.811   6.226   3.931  0.00  0.00    -0.301 N 
ATOM     23  C   UNL     1      13.567   6.952   3.026  0.00  0.00    +0.236 C 
ATOM     45  H   UNL     1      13.075   5.267   4.141  0.00  0.00    +0.150 HD
BRANCH  10  25
ATOM     25  C   UNL     1      11.637   6.756   4.586  0.00  0.00    +0.186 C 
BRANCH  25  28
ATOM      5  O   UNL     1      12.577   6.966   6.803  0.00  0.00    -0.249 OA
ATOM     28  C   UNL     1      11.669   6.543   6.093  0.00  0.00    +0.328 C 
BRANCH  28   4
ATOM      4  O   UNL     1      10.595   5.829   6.535  0.00  0.00    -0.467 OA
ATOM     40  C   UNL     1      10.370   5.855   7.948  0.00  0.00    +0.280 C 
ENDBRANCH  28   4
ENDBRANCH  25  28
BRANCH  25  27
ATOM     27  C   UNL     1      10.349   6.205   3.954  0.00  0.00    +0.069 C 
BRANCH  27  31
ATOM     31  C   UNL     1       9.371   7.260   3.490  0.00  0.00    -0.045 A 
ATOM     35  C   UNL     1       8.444   7.793   4.385  0.00  0.00    +0.007 A 
ATOM     36  C   UNL     1       9.397   7.701   2.168  0.00  0.00    +0.007 A 
ATOM     37  C   UNL     1       7.541   8.766   3.958  0.00  0.00    +0.046 A 
ATOM     38  C   UNL     1       8.494   8.675   1.740  0.00  0.00    +0.046 A 
ATOM     39  C   UNL     1       7.566   9.207   2.635  0.00  0.00    +0.120 A 
BRANCH  39   6
ATOM      6  O   UNL     1       6.685  10.157   2.217  0.00  0.00    -0.495 OA
ATOM     43  C   UNL     1       5.440  10.238   2.909  0.00  0.00    +0.277 C 
ENDBRANCH  39   6
ENDBRANCH  27  31
ENDBRANCH  25  27
ENDBRANCH  10  25
ENDBRANCH  18  23
TORSDOF 10
ENDMDL
MODEL 4
REMARK VINA RESULT:      -6.1     21.846     24.681
REMARK  Name = 75536034
REMARK  14 active torsions:
REMARK  status: ('A' for Active; 'I' for Inactive)
REMARK    1  A    between atoms: O_4  and  C_28
REMARK    2  A    between atoms: O_4  and  C_40
REMARK    3  A    between atoms: O_6  and  C_39
REMARK    4  A    between atoms: O_6  and  C_43
REMARK    5  A    between atoms: N_8  and  C_12
REMARK    6  A    between atoms: N_10  and  C_25
REMARK    7  A    between atoms: N_11  and  C_34
REMARK    8  A    between atoms: N_11  and  C_41
REMARK    9  A    between atoms: N_11  and  C_42
REMARK   10  A    between atoms: C_18  and  C_23
REMARK   11  A    between atoms: C_24  and  C_26
REMARK   12  A    between atoms: C_25  and  C_27
REMARK   13  A    between atoms: C_25  and  C_28
REMARK   14  A    between atoms: C_27  and  C_31
REMARK                            x       y       z     vdW  Elec       q    Type
REMARK                         _______ _______ _______ _____ _____    ______ ____
ROOT
ATOM      1  O   UNL     1       0.892  14.644   2.691  0.00  0.00    -0.253 OA
ATOM      3  O   UNL     1      -1.462   8.303  -0.159  0.00  0.00    -0.270 OA
ATOM      7  N   UNL     1       0.152  12.479   2.284  0.00  0.00    -0.271 N 
ATOM      8  N   UNL     1       0.949  13.126   4.415  0.00  0.00    -0.296 N 
ATOM      9  N   UNL     1      -1.041  10.507   0.495  0.00  0.00    -0.294 N 
ATOM     18  C   UNL     1       0.039  11.065   2.676  0.00  0.00    +0.181 C 
ATOM     19  C   UNL     1      -0.028  10.117   1.479  0.00  0.00    +0.140 C 
ATOM     20  C   UNL     1      -0.160  12.798   0.888  0.00  0.00    +0.129 C 
ATOM     21  C   UNL     1      -1.294  11.945   0.337  0.00  0.00    +0.127 C 
ATOM     22  C   UNL     1       0.682  13.499   3.101  0.00  0.00    +0.303 C 
ATOM     24  C   UNL     1      -1.657   9.513  -0.273  0.00  0.00    +0.247 C 
ATOM     44  H   UNL     1       0.653  12.218   4.751  0.00  0.00    +0.151 HD
ENDROOT
BRANCH   8  12
ATOM     12  C   UNL     1       1.490  14.055   5.382  0.00  0.00    +0.074 C 
ATOM     13  C   UNL     1       3.005  13.878   5.528  0.00  0.00    +0.022 C 
ATOM     14  C   UNL     1       0.781  13.917   6.733  0.00  0.00    +0.022 C 
ATOM     15  C   UNL     1       3.374  12.587   6.258  0.00  0.00    +0.002 C 
ATOM     16  C   UNL     1       1.155  12.627   7.461  0.00  0.00    +0.002 C 
ATOM     17  C   UNL     1       2.666  12.478   7.605  0.00  0.00    +0.000 C 
ENDBRANCH   8  12
BRANCH  24  26
ATOM     26  C   UNL     1      -2.620   9.932  -1.303  0.00  0.00    +0.037 A 
ATOM     29  C   UNL     1      -2.163  10.454  -2.514  0.00  0.00    +0.015 A 
ATOM     30  C   UNL     1      -3.989   9.809  -1.070  0.00  0.00    +0.015 A 
ATOM     32  C   UNL     1      -3.075  10.851  -3.491  0.00  0.00    +0.024 A 
ATOM     33  C   UNL     1      -4.902  10.207  -2.047  0.00  0.00    +0.024 A 
ATOM     34  C   UNL     1      -4.445  10.728  -3.258  0.00  0.00    +0.029 A 
BRANCH  34  11
ATOM     11  N   UNL     1      -5.366  11.130  -4.246  0.00  0.00    -0.336 N 
ATOM     41  C   UNL     1      -4.913  11.837  -5.428  0.00  0.00    +0.129 C 
ATOM     42  C   UNL     1      -6.778  10.837  -4.098  0.00  0.00    +0.129 C 
ENDBRANCH  34  11
ENDBRANCH  24  26
BRANCH  18  23
ATOM      2  O   UNL     1      -2.161  11.678   3.382  0.00  0.00    -0.274 OA
ATOM     10  N   UNL     1      -1.104   9.882   4.420  0.00  0.00    -0.301 N 
ATOM     23  C   UNL     1      -1.201  10.922   3.512  0.00  0.00    +0.236 C 
ATOM     45  H   UNL     1      -0.266   9.307   4.428  0.00  0.00    +0.150 HD
BRANCH  10  25
ATOM     25  C   UNL     1      -2.153   9.549   5.356  0.00  0.00    +0.186 C 
BRANCH  25  28
ATOM      5  O   UNL     1      -0.704   9.578   7.290  0.00  0.00    -0.249 OA
ATOM     28  C   UNL     1      -1.780   9.892   6.792  0.00  0.00    +0.328 C 
BRANCH  28   4
ATOM      4  O   UNL     1      -2.778  10.560   7.436  0.00  0.00    -0.467 OA
ATOM     40  C   UNL     1      -3.557  11.446   6.625  0.00  0.00    +0.280 C 
ENDBRANCH  28   4
ENDBRANCH  25  28
BRANCH  25  27
ATOM     27  C   UNL     1      -2.586   8.082   5.209  0.00  0.00    +0.069 C 
BRANCH  27  31
ATOM     31  C   UNL     1      -4.031   7.886   4.809  0.00  0.00    -0.045 A 
ATOM     35  C   UNL     1      -4.675   6.682   5.087  0.00  0.00    +0.007 A 
ATOM     36  C   UNL     1      -4.720   8.912   4.161  0.00  0.00    +0.007 A 
ATOM     37  C   UNL     1      -6.008   6.501   4.719  0.00  0.00    +0.046 A 
ATOM     38  C   UNL     1      -6.053   8.732   3.793  0.00  0.00    +0.046 A 
ATOM     39  C   UNL     1      -6.697   7.526   4.071  0.00  0.00    +0.120 A 
BRANCH  39   6
ATOM      6  O   UNL     1      -7.998   7.350   3.710  0.00  0.00    -0.495 OA
ATOM     43  C   UNL     1      -8.971   7.382   4.753  0.00  0.00    +0.277 C 
ENDBRANCH  39   6
ENDBRANCH  27  31
ENDBRANCH  25  27
ENDBRANCH  10  25
ENDBRANCH  18  23
TORSDOF 10
ENDMDL
MODEL 5
REMARK VINA RESULT:      -6.1      1.793      4.085
REMARK  Name = 75536034
REMARK  14 active torsions:
REMARK  status: ('A' for Active; 'I' for Inactive)
REMARK    1  A    between atoms: O_4  and  C_28
REMARK    2  A    between atoms: O_4  and  C_40
REMARK    3  A    between atoms: O_6  and  C_39
REMARK    4  A    between atoms: O_6  and  C_43
REMARK    5  A    between atoms: N_8  and  C_12
REMARK    6  A    between atoms: N_10  and  C_25
REMARK    7  A    between atoms: N_11  and  C_34
REMARK    8  A    between atoms: N_11  and  C_41
REMARK    9  A    between atoms: N_11  and  C_42
REMARK   10  A    between atoms: C_18  and  C_23
REMARK   11  A    between atoms: C_24  and  C_26
REMARK   12  A    between atoms: C_25  and  C_27
REMARK   13  A    between atoms: C_25  and  C_28
REMARK   14  A    between atoms: C_27  and  C_31
REMARK                            x       y       z     vdW  Elec       q    Type
REMARK                         _______ _______ _______ _____ _____    ______ ____
ROOT
ATOM      1  O   UNL     1     -10.310 -10.726  12.697  0.00  0.00    -0.253 OA
ATOM      3  O   UNL     1      -4.049  -8.789   9.392  0.00  0.00    -0.270 OA
ATOM      7  N   UNL     1      -8.149 -10.077  12.138  0.00  0.00    -0.271 N 
ATOM      8  N   UNL     1      -8.906 -10.032  14.378  0.00  0.00    -0.296 N 
ATOM      9  N   UNL     1      -6.042  -9.750  10.148  0.00  0.00    -0.294 N 
ATOM     18  C   UNL     1      -6.875  -9.427  12.480  0.00  0.00    +0.181 C 
ATOM     19  C   UNL     1      -6.174  -8.813  11.267  0.00  0.00    +0.140 C 
ATOM     20  C   UNL     1      -8.385 -10.349  10.717  0.00  0.00    +0.129 C 
ATOM     21  C   UNL     1      -7.111 -10.741   9.982  0.00  0.00    +0.127 C 
ATOM     22  C   UNL     1      -9.203 -10.307  13.048  0.00  0.00    +0.303 C 
ATOM     24  C   UNL     1      -4.957  -9.611   9.274  0.00  0.00    +0.247 C 
ATOM     44  H   UNL     1      -7.956  -9.808  14.647  0.00  0.00    +0.151 HD
ENDROOT
BRANCH   8  12
ATOM     12  C   UNL     1      -9.874 -10.219  15.436  0.00  0.00    +0.074 C 
ATOM     13  C   UNL     1     -10.861  -9.047  15.493  0.00  0.00    +0.022 C 
ATOM     14  C   UNL     1      -9.182 -10.428  16.786  0.00  0.00    +0.022 C 
ATOM     15  C   UNL     1     -10.218  -7.768  16.029  0.00  0.00    +0.002 C 
ATOM     16  C   UNL     1      -8.543  -9.147  17.321  0.00  0.00    +0.002 C 
ATOM     17  C   UNL     1      -9.545  -7.999  17.379  0.00  0.00    +0.000 C 
ENDBRANCH   8  12
BRANCH  24  26
ATOM     26  C   UNL     1      -4.882 -10.516   8.117  0.00  0.00    +0.037 A 
ATOM     29  C   UNL     1      -4.296 -11.775   8.253  0.00  0.00    +0.015 A 
ATOM     30  C   UNL     1      -5.395 -10.116   6.884  0.00  0.00    +0.015 A 
ATOM     32  C   UNL     1      -4.225 -12.633   7.156  0.00  0.00    +0.024 A 
ATOM     33  C   UNL     1      -5.324 -10.973   5.786  0.00  0.00    +0.024 A 
ATOM     34  C   UNL     1      -4.740 -12.233   5.922  0.00  0.00    +0.029 A 
BRANCH  34  11
ATOM     11  N   UNL     1      -4.666 -13.101   4.814  0.00  0.00    -0.336 N 
ATOM     41  C   UNL     1      -5.085 -12.651   3.501  0.00  0.00    +0.129 C 
ATOM     42  C   UNL     1      -4.165 -14.452   4.971  0.00  0.00    +0.129 C 
ENDBRANCH  34  11
ENDBRANCH  24  26
BRANCH  18  23
ATOM      2  O   UNL     1      -6.172 -11.665  12.937  0.00  0.00    -0.274 OA
ATOM     10  N   UNL     1      -5.001  -9.898  13.899  0.00  0.00    -0.301 N 
ATOM     23  C   UNL     1      -5.990 -10.463  13.112  0.00  0.00    +0.236 C 
ATOM     45  H   UNL     1      -4.932  -8.886  13.958  0.00  0.00    +0.150 HD
BRANCH  10  25
ATOM     25  C   UNL     1      -4.033 -10.679  14.635  0.00  0.00    +0.186 C 
BRANCH  25  28
ATOM      5  O   UNL     1      -1.769 -10.053  14.068  0.00  0.00    -0.249 OA
ATOM     28  C   UNL     1      -2.712 -10.817  13.890  0.00  0.00    +0.328 C 
BRANCH  28   4
ATOM      4  O   UNL     1      -2.723 -11.862  13.015  0.00  0.00    -0.467 OA
ATOM     40  C   UNL     1      -2.728 -11.509  11.627  0.00  0.00    +0.280 C 
ENDBRANCH  28   4
ENDBRANCH  25  28
BRANCH  25  27
ATOM     27  C   UNL     1      -4.611 -12.044  15.041  0.00  0.00    +0.069 C 
BRANCH  27  31
ATOM     31  C   UNL     1      -5.308 -12.061  16.383  0.00  0.00    -0.045 A 
ATOM     35  C   UNL     1      -6.251 -13.048  16.665  0.00  0.00    +0.007 A 
ATOM     36  C   UNL     1      -5.007 -11.090  17.337  0.00  0.00    +0.007 A 
ATOM     37  C   UNL     1      -6.895 -13.065  17.903  0.00  0.00    +0.046 A 
ATOM     38  C   UNL     1      -5.650 -11.107  18.575  0.00  0.00    +0.046 A 
ATOM     39  C   UNL     1      -6.594 -12.094  18.857  0.00  0.00    +0.120 A 
BRANCH  39   6
ATOM      6  O   UNL     1      -7.222 -12.109  20.065  0.00  0.00    -0.495 OA
ATOM     43  C   UNL     1      -8.486 -12.767  20.132  0.00  0.00    +0.277 C 
ENDBRANCH  39   6
ENDBRANCH  27  31
ENDBRANCH  25  27
ENDBRANCH  10  25
ENDBRANCH  18  23
TORSDOF 10
ENDMDL
MODEL 6
REMARK VINA RESULT:      -6.0     24.782     27.349
REMARK  Name = 75536034
REMARK  14 active torsions:
REMARK  status: ('A' for Active; 'I' for Inactive)
REMARK    1  A    between atoms: O_4  and  C_28
REMARK    2  A    between atoms: O_4  and  C_40
REMARK    3  A    between atoms: O_6  and  C_39
REMARK    4  A    between atoms: O_6  and  C_43
REMARK    5  A    between atoms: N_8  and  C_12
REMARK    6  A    between atoms: N_10  and  C_25
REMARK    7  A    between atoms: N_11  and  C_34
REMARK    8  A    between atoms: N_11  and  C_41
REMARK    9  A    between atoms: N_11  and  C_42
REMARK   10  A    between atoms: C_18  and  C_23
REMARK   11  A    between atoms: C_24  and  C_26
REMARK   12  A    between atoms: C_25  and  C_27
REMARK   13  A    between atoms: C_25  and  C_28
REMARK   14  A    between atoms: C_27  and  C_31
REMARK                            x       y       z     vdW  Elec       q    Type
REMARK                         _______ _______ _______ _____ _____    ______ ____
ROOT
ATOM      1  O   UNL     1      15.559  10.243   2.492  0.00  0.00    -0.253 OA
ATOM      3  O   UNL     1      11.300   4.295   3.095  0.00  0.00    -0.270 OA
ATOM      7  N   UNL     1      13.948   8.653   3.024  0.00  0.00    -0.271 N 
ATOM      8  N   UNL     1      14.137  10.668   4.248  0.00  0.00    -0.296 N 
ATOM      9  N   UNL     1      12.603   6.127   2.457  0.00  0.00    -0.294 N 
ATOM     18  C   UNL     1      12.938   8.106   3.943  0.00  0.00    +0.181 C 
ATOM     19  C   UNL     1      12.793   6.588   3.835  0.00  0.00    +0.140 C 
ATOM     20  C   UNL     1      14.395   7.771   1.941  0.00  0.00    +0.129 C 
ATOM     21  C   UNL     1      13.269   6.900   1.401  0.00  0.00    +0.127 C 
ATOM     22  C   UNL     1      14.618   9.881   3.206  0.00  0.00    +0.303 C 
ATOM     24  C   UNL     1      11.866   4.959   2.229  0.00  0.00    +0.247 C 
ATOM     44  H   UNL     1      13.290  10.399   4.733  0.00  0.00    +0.151 HD
ENDROOT
BRANCH   8  12
ATOM     12  C   UNL     1      14.711  11.958   4.563  0.00  0.00    +0.074 C 
ATOM     13  C   UNL     1      15.844  11.822   5.586  0.00  0.00    +0.022 C 
ATOM     14  C   UNL     1      13.635  12.933   5.052  0.00  0.00    +0.022 C 
ATOM     15  C   UNL     1      15.331  11.480   6.985  0.00  0.00    +0.002 C 
ATOM     16  C   UNL     1      13.126  12.590   6.452  0.00  0.00    +0.002 C 
ATOM     17  C   UNL     1      14.270  12.471   7.454  0.00  0.00    +0.000 C 
ENDBRANCH   8  12
BRANCH  24  26
ATOM     26  C   UNL     1      11.749   4.476   0.844  0.00  0.00    +0.037 A 
ATOM     29  C   UNL     1      10.696   4.914   0.040  0.00  0.00    +0.015 A 
ATOM     30  C   UNL     1      12.688   3.579   0.336  0.00  0.00    +0.015 A 
ATOM     32  C   UNL     1      10.584   4.456  -1.273  0.00  0.00    +0.024 A 
ATOM     33  C   UNL     1      12.577   3.121  -0.977  0.00  0.00    +0.024 A 
ATOM     34  C   UNL     1      11.525   3.559  -1.782  0.00  0.00    +0.029 A 
BRANCH  34  11
ATOM     11  N   UNL     1      11.411   3.097  -3.109  0.00  0.00    -0.336 N 
ATOM     41  C   UNL     1      12.597   2.867  -3.910  0.00  0.00    +0.129 C 
ATOM     42  C   UNL     1      10.108   2.838  -3.687  0.00  0.00    +0.129 C 
ENDBRANCH  34  11
ENDBRANCH  24  26
BRANCH  18  23
ATOM      2  O   UNL     1      11.526   9.614   2.740  0.00  0.00    -0.274 OA
ATOM     10  N   UNL     1      10.605   8.328   4.448  0.00  0.00    -0.301 N 
ATOM     23  C   UNL     1      11.628   8.769   3.626  0.00  0.00    +0.236 C 
ATOM     45  H   UNL     1      10.799   7.609   5.139  0.00  0.00    +0.150 HD
BRANCH  10  25
ATOM     25  C   UNL     1       9.251   8.827   4.363  0.00  0.00    +0.186 C 
BRANCH  25  28
ATOM      5  O   UNL     1       9.754  10.457   6.074  0.00  0.00    -0.249 OA
ATOM     28  C   UNL     1       9.070  10.144   5.105  0.00  0.00    +0.328 C 
BRANCH  28   4
ATOM      4  O   UNL     1       8.066  10.899   4.575  0.00  0.00    -0.467 OA
ATOM     40  C   UNL     1       8.381  11.586   3.360  0.00  0.00    +0.280 C 
ENDBRANCH  28   4
ENDBRANCH  25  28
BRANCH  25  27
ATOM     27  C   UNL     1       8.237   7.766   4.817  0.00  0.00    +0.069 C 
BRANCH  27  31
ATOM     31  C   UNL     1       8.713   6.878   5.944  0.00  0.00    -0.045 A 
ATOM     35  C   UNL     1       8.607   7.311   7.265  0.00  0.00    +0.007 A 
ATOM     36  C   UNL     1       9.258   5.626   5.662  0.00  0.00    +0.007 A 
ATOM     37  C   UNL     1       9.046   6.492   8.306  0.00  0.00    +0.046 A 
ATOM     38  C   UNL     1       9.697   4.806   6.703  0.00  0.00    +0.046 A 
ATOM     39  C   UNL     1       9.591   5.240   8.024  0.00  0.00    +0.120 A 
BRANCH  39   6
ATOM      6  O   UNL     1      10.020   4.440   9.039  0.00  0.00    -0.495 OA
ATOM     43  C   UNL     1       9.308   4.517  10.273  0.00  0.00    +0.277 C 
ENDBRANCH  39   6
ENDBRANCH  27  31
ENDBRANCH  25  27
ENDBRANCH  10  25
ENDBRANCH  18  23
TORSDOF 10
ENDMDL
MODEL 7
REMARK VINA RESULT:      -6.0      2.668      4.256
REMARK  Name = 75536034
REMARK  14 active torsions:
REMARK  status: ('A' for Active; 'I' for Inactive)
REMARK    1  A    between atoms: O_4  and  C_28
REMARK    2  A    between atoms: O_4  and  C_40
REMARK    3  A    between atoms: O_6  and  C_39
REMARK    4  A    between atoms: O_6  and  C_43
REMARK    5  A    between atoms: N_8  and  C_12
REMARK    6  A    between atoms: N_10  and  C_25
REMARK    7  A    between atoms: N_11  and  C_34
REMARK    8  A    between atoms: N_11  and  C_41
REMARK    9  A    between atoms: N_11  and  C_42
REMARK   10  A    between atoms: C_18  and  C_23
REMARK   11  A    between atoms: C_24  and  C_26
REMARK   12  A    between atoms: C_25  and  C_27
REMARK   13  A    between atoms: C_25  and  C_28
REMARK   14  A    between atoms: C_27  and  C_31
REMARK                            x       y       z     vdW  Elec       q    Type
REMARK                         _______ _______ _______ _____ _____    ______ ____
ROOT
ATOM      1  O   UNL     1      -9.365 -12.061  16.162  0.00  0.00    -0.253 OA
ATOM      3  O   UNL     1      -7.019  -8.422  10.235  0.00  0.00    -0.270 OA
ATOM      7  N   UNL     1      -8.164 -10.923  14.530  0.00  0.00    -0.271 N 
ATOM      8  N   UNL     1      -7.215 -11.407  16.642  0.00  0.00    -0.296 N 
ATOM      9  N   UNL     1      -7.955  -9.862  11.821  0.00  0.00    -0.294 N 
ATOM     18  C   UNL     1      -7.010 -10.108  14.119  0.00  0.00    +0.181 C 
ATOM     19  C   UNL     1      -7.326  -9.174  12.951  0.00  0.00    +0.140 C 
ATOM     20  C   UNL     1      -9.287 -10.989  13.591  0.00  0.00    +0.129 C 
ATOM     21  C   UNL     1      -8.830 -10.997  12.139  0.00  0.00    +0.127 C 
ATOM     22  C   UNL     1      -8.323 -11.503  15.806  0.00  0.00    +0.303 C 
ATOM     24  C   UNL     1      -7.746  -9.370  10.527  0.00  0.00    +0.247 C 
ATOM     44  H   UNL     1      -6.339 -11.054  16.278  0.00  0.00    +0.151 HD
ENDROOT
BRANCH   8  12
ATOM     12  C   UNL     1      -7.214 -11.954  17.980  0.00  0.00    +0.074 C 
ATOM     13  C   UNL     1      -6.711 -10.923  18.996  0.00  0.00    +0.022 C 
ATOM     14  C   UNL     1      -6.392 -13.246  18.047  0.00  0.00    +0.022 C 
ATOM     15  C   UNL     1      -5.207 -10.672  18.878  0.00  0.00    +0.002 C 
ATOM     16  C   UNL     1      -4.890 -12.990  17.930  0.00  0.00    +0.002 C 
ATOM     17  C   UNL     1      -4.410 -11.970  18.958  0.00  0.00    +0.000 C 
ENDBRANCH   8  12
BRANCH  24  26
ATOM     26  C   UNL     1      -8.444 -10.033   9.415  0.00  0.00    +0.037 A 
ATOM     29  C   UNL     1      -9.430  -9.349   8.702  0.00  0.00    +0.015 A 
ATOM     30  C   UNL     1      -8.123 -11.346   9.072  0.00  0.00    +0.015 A 
ATOM     32  C   UNL     1     -10.092  -9.977   7.647  0.00  0.00    +0.024 A 
ATOM     33  C   UNL     1      -8.784 -11.975   8.018  0.00  0.00    +0.024 A 
ATOM     34  C   UNL     1      -9.768 -11.290   7.305  0.00  0.00    +0.029 A 
BRANCH  34  11
ATOM     11  N   UNL     1     -10.439 -11.924   6.239  0.00  0.00    -0.336 N 
ATOM     41  C   UNL     1     -11.872 -12.132   6.293  0.00  0.00    +0.129 C 
ATOM     42  C   UNL     1      -9.705 -12.371   5.071  0.00  0.00    +0.129 C 
ENDBRANCH  34  11
ENDBRANCH  24  26
BRANCH  18  23
ATOM      2  O   UNL     1      -6.027 -12.266  13.820  0.00  0.00    -0.274 OA
ATOM     10  N   UNL     1      -4.765 -10.375  13.320  0.00  0.00    -0.301 N 
ATOM     23  C   UNL     1      -5.901 -11.047  13.737  0.00  0.00    +0.236 C 
ATOM     45  H   UNL     1      -4.779  -9.360  13.273  0.00  0.00    +0.150 HD
BRANCH  10  25
ATOM     25  C   UNL     1      -3.550 -11.047  12.920  0.00  0.00    +0.186 C 
BRANCH  25  28
ATOM      5  O   UNL     1      -2.603 -12.364  14.711  0.00  0.00    -0.249 OA
ATOM     28  C   UNL     1      -2.616 -11.304  14.094  0.00  0.00    +0.328 C 
BRANCH  28   4
ATOM      4  O   UNL     1      -1.829 -10.225  14.370  0.00  0.00    -0.467 OA
ATOM     40  C   UNL     1      -1.082 -10.297  15.589  0.00  0.00    +0.280 C 
ENDBRANCH  28   4
ENDBRANCH  25  28
BRANCH  25  27
ATOM     27  C   UNL     1      -2.848 -10.296  11.778  0.00  0.00    +0.069 C 
BRANCH  27  31
ATOM     31  C   UNL     1      -3.546 -10.386  10.439  0.00  0.00    -0.045 A 
ATOM     35  C   UNL     1      -3.808  -9.226   9.711  0.00  0.00    +0.007 A 
ATOM     36  C   UNL     1      -3.926 -11.628   9.933  0.00  0.00    +0.007 A 
ATOM     37  C   UNL     1      -4.452  -9.308   8.476  0.00  0.00    +0.046 A 
ATOM     38  C   UNL     1      -4.570 -11.711   8.698  0.00  0.00    +0.046 A 
ATOM     39  C   UNL     1      -4.832 -10.550   7.970  0.00  0.00    +0.120 A 
BRANCH  39   6
ATOM      6  O   UNL     1      -5.461 -10.631   6.765  0.00  0.00    -0.495 OA
ATOM     43  C   UNL     1      -6.315  -9.547   6.404  0.00  0.00    +0.277 C 
ENDBRANCH  39   6
ENDBRANCH  27  31
ENDBRANCH  25  27
ENDBRANCH  10  25
ENDBRANCH  18  23
TORSDOF 10
ENDMDL
MODEL 8
REMARK VINA RESULT:      -5.9      4.096      8.629
REMARK  Name = 75536034
REMARK  14 active torsions:
REMARK  status: ('A' for Active; 'I' for Inactive)
REMARK    1  A    between atoms: O_4  and  C_28
REMARK    2  A    between atoms: O_4  and  C_40
REMARK    3  A    between atoms: O_6  and  C_39
REMARK    4  A    between atoms: O_6  and  C_43
REMARK    5  A    between atoms: N_8  and  C_12
REMARK    6  A    between atoms: N_10  and  C_25
REMARK    7  A    between atoms: N_11  and  C_34
REMARK    8  A    between atoms: N_11  and  C_41
REMARK    9  A    between atoms: N_11  and  C_42
REMARK   10  A    between atoms: C_18  and  C_23
REMARK   11  A    between atoms: C_24  and  C_26
REMARK   12  A    between atoms: C_25  and  C_27
REMARK   13  A    between atoms: C_25  and  C_28
REMARK   14  A    between atoms: C_27  and  C_31
REMARK                            x       y       z     vdW  Elec       q    Type
REMARK                         _______ _______ _______ _____ _____    ______ ____
ROOT
ATOM      1  O   UNL     1     -10.019 -10.827  19.971  0.00  0.00    -0.253 OA
ATOM      3  O   UNL     1     -11.662  -6.161  14.549  0.00  0.00    -0.270 OA
ATOM      7  N   UNL     1     -10.065  -9.475  18.082  0.00  0.00    -0.271 N 
ATOM      8  N   UNL     1      -8.078 -10.557  18.771  0.00  0.00    -0.296 N 
ATOM      9  N   UNL     1     -11.548  -7.824  16.188  0.00  0.00    -0.294 N 
ATOM     18  C   UNL     1      -9.373  -8.721  17.025  0.00  0.00    +0.181 C 
ATOM     19  C   UNL     1     -10.163  -7.504  16.545  0.00  0.00    +0.140 C 
ATOM     20  C   UNL     1     -11.490  -9.184  18.267  0.00  0.00    +0.129 C 
ATOM     21  C   UNL     1     -12.199  -8.895  16.951  0.00  0.00    +0.127 C 
ATOM     22  C   UNL     1      -9.428 -10.322  19.012  0.00  0.00    +0.303 C 
ATOM     24  C   UNL     1     -12.186  -7.063  15.202  0.00  0.00    +0.247 C 
ATOM     44  H   UNL     1      -7.655 -10.229  17.912  0.00  0.00    +0.151 HD
ENDROOT
BRANCH   8  12
ATOM     12  C   UNL     1      -7.281 -11.406  19.628  0.00  0.00    +0.074 C 
ATOM     13  C   UNL     1      -5.860 -10.854  19.784  0.00  0.00    +0.022 C 
ATOM     14  C   UNL     1      -7.264 -12.848  19.112  0.00  0.00    +0.022 C 
ATOM     15  C   UNL     1      -5.029 -11.014  18.511  0.00  0.00    +0.002 C 
ATOM     16  C   UNL     1      -6.430 -13.004  17.841  0.00  0.00    +0.002 C 
ATOM     17  C   UNL     1      -5.017 -12.459  18.023  0.00  0.00    +0.000 C 
ENDBRANCH   8  12
BRANCH  24  26
ATOM     26  C   UNL     1     -13.598  -7.355  14.910  0.00  0.00    +0.037 A 
ATOM     29  C   UNL     1     -13.928  -8.271  13.911  0.00  0.00    +0.015 A 
ATOM     30  C   UNL     1     -14.606  -6.715  15.630  0.00  0.00    +0.015 A 
ATOM     32  C   UNL     1     -15.267  -8.549  13.634  0.00  0.00    +0.024 A 
ATOM     33  C   UNL     1     -15.945  -6.992  15.353  0.00  0.00    +0.024 A 
ATOM     34  C   UNL     1     -16.275  -7.909  14.355  0.00  0.00    +0.029 A 
BRANCH  34  11
ATOM     11  N   UNL     1     -17.628  -8.190  14.074  0.00  0.00    -0.336 N 
ATOM     41  C   UNL     1     -18.429  -7.251  13.313  0.00  0.00    +0.129 C 
ATOM     42  C   UNL     1     -18.234  -9.423  14.534  0.00  0.00    +0.129 C 
ENDBRANCH  34  11
ENDBRANCH  24  26
BRANCH  18  23
ATOM      2  O   UNL     1      -9.613 -10.792  15.855  0.00  0.00    -0.274 OA
ATOM     10  N   UNL     1      -8.318  -9.106  14.906  0.00  0.00    -0.301 N 
ATOM     23  C   UNL     1      -9.134  -9.661  15.877  0.00  0.00    +0.236 C 
ATOM     45  H   UNL     1      -7.992  -8.150  15.019  0.00  0.00    +0.150 HD
BRANCH  10  25
ATOM     25  C   UNL     1      -7.918  -9.812  13.710  0.00  0.00    +0.186 C 
BRANCH  25  28
ATOM      5  O   UNL     1     -10.151  -9.478  12.846  0.00  0.00    -0.249 OA
ATOM     28  C   UNL     1      -8.975  -9.745  12.616  0.00  0.00    +0.328 C 
BRANCH  28   4
ATOM      4  O   UNL     1      -8.460 -10.029  11.386  0.00  0.00    -0.467 OA
ATOM     40  C   UNL     1      -7.346  -9.228  10.979  0.00  0.00    +0.280 C 
ENDBRANCH  28   4
ENDBRANCH  25  28
BRANCH  25  27
ATOM     27  C   UNL     1      -7.509 -11.259  14.028  0.00  0.00    +0.069 C 
BRANCH  27  31
ATOM     31  C   UNL     1      -6.032 -11.456  14.282  0.00  0.00    -0.045 A 
ATOM     35  C   UNL     1      -5.458 -12.715  14.113  0.00  0.00    +0.007 A 
ATOM     36  C   UNL     1      -5.244 -10.379  14.686  0.00  0.00    +0.007 A 
ATOM     37  C   UNL     1      -4.095 -12.899  14.347  0.00  0.00    +0.046 A 
ATOM     38  C   UNL     1      -3.881 -10.561  14.921  0.00  0.00    +0.046 A 
ATOM     39  C   UNL     1      -3.307 -11.821  14.751  0.00  0.00    +0.120 A 
BRANCH  39   6
ATOM      6  O   UNL     1      -1.977 -11.999  14.981  0.00  0.00    -0.495 OA
ATOM     43  C   UNL     1      -1.269 -10.913  15.578  0.00  0.00    +0.277 C 
ENDBRANCH  39   6
ENDBRANCH  27  31
ENDBRANCH  25  27
ENDBRANCH  10  25
ENDBRANCH  18  23
TORSDOF 10
ENDMDL
MODEL 9
REMARK VINA RESULT:      -5.9      2.628      7.871
REMARK  Name = 75536034
REMARK  14 active torsions:
REMARK  status: ('A' for Active; 'I' for Inactive)
REMARK    1  A    between atoms: O_4  and  C_28
REMARK    2  A    between atoms: O_4  and  C_40
REMARK    3  A    between atoms: O_6  and  C_39
REMARK    4  A    between atoms: O_6  and  C_43
REMARK    5  A    between atoms: N_8  and  C_12
REMARK    6  A    between atoms: N_10  and  C_25
REMARK    7  A    between atoms: N_11  and  C_34
REMARK    8  A    between atoms: N_11  and  C_41
REMARK    9  A    between atoms: N_11  and  C_42
REMARK   10  A    between atoms: C_18  and  C_23
REMARK   11  A    between atoms: C_24  and  C_26
REMARK   12  A    between atoms: C_25  and  C_27
REMARK   13  A    between atoms: C_25  and  C_28
REMARK   14  A    between atoms: C_27  and  C_31
REMARK                            x       y       z     vdW  Elec       q    Type
REMARK                         _______ _______ _______ _____ _____    ______ ____
ROOT
ATOM      1  O   UNL     1     -10.852  -8.460  11.221  0.00  0.00    -0.253 OA
ATOM      3  O   UNL     1      -6.448 -14.042  13.042  0.00  0.00    -0.270 OA
ATOM      7  N   UNL     1      -9.287 -10.176  11.309  0.00  0.00    -0.271 N 
ATOM      8  N   UNL     1      -9.837  -9.118   9.267  0.00  0.00    -0.296 N 
ATOM      9  N   UNL     1      -7.706 -12.081  12.852  0.00  0.00    -0.294 N 
ATOM     18  C   UNL     1      -8.449 -11.185  10.643  0.00  0.00    +0.181 C 
ATOM     19  C   UNL     1      -8.193 -12.417  11.512  0.00  0.00    +0.140 C 
ATOM     20  C   UNL     1      -9.455 -10.318  12.758  0.00  0.00    +0.129 C 
ATOM     21  C   UNL     1      -8.194 -10.828  13.441  0.00  0.00    +0.127 C 
ATOM     22  C   UNL     1     -10.052  -9.198  10.639  0.00  0.00    +0.303 C 
ATOM     24  C   UNL     1      -6.869 -12.987  13.514  0.00  0.00    +0.247 C 
ATOM     44  H   UNL     1      -9.089  -9.650   8.842  0.00  0.00    +0.151 HD
ENDROOT
BRANCH   8  12
ATOM     12  C   UNL     1     -10.538  -8.165   8.435  0.00  0.00    +0.074 C 
ATOM     13  C   UNL     1     -10.640  -8.665   6.990  0.00  0.00    +0.022 C 
ATOM     14  C   UNL     1      -9.875  -6.785   8.500  0.00  0.00    +0.022 C 
ATOM     15  C   UNL     1      -9.297  -8.622   6.261  0.00  0.00    +0.002 C 
ATOM     16  C   UNL     1      -8.534  -6.745   7.768  0.00  0.00    +0.002 C 
ATOM     17  C   UNL     1      -8.663  -7.237   6.329  0.00  0.00    +0.000 C 
ENDBRANCH   8  12
BRANCH  24  26
ATOM     26  C   UNL     1      -6.450 -12.663  14.887  0.00  0.00    +0.037 A 
ATOM     29  C   UNL     1      -5.328 -11.862  15.102  0.00  0.00    +0.015 A 
ATOM     30  C   UNL     1      -7.172 -13.158  15.972  0.00  0.00    +0.015 A 
ATOM     32  C   UNL     1      -4.930 -11.554  16.403  0.00  0.00    +0.024 A 
ATOM     33  C   UNL     1      -6.774 -12.851  17.273  0.00  0.00    +0.024 A 
ATOM     34  C   UNL     1      -5.654 -12.049  17.489  0.00  0.00    +0.029 A 
BRANCH  34  11
ATOM     11  N   UNL     1      -5.250 -11.738  18.804  0.00  0.00    -0.336 N 
ATOM     41  C   UNL     1      -6.166 -11.084  19.717  0.00  0.00    +0.129 C 
ATOM     42  C   UNL     1      -3.917 -12.075  19.262  0.00  0.00    +0.129 C 
ENDBRANCH  34  11
ENDBRANCH  24  26
BRANCH  18  23
ATOM      2  O   UNL     1      -6.990  -9.313  10.353  0.00  0.00    -0.274 OA
ATOM     10  N   UNL     1      -6.192 -11.447   9.876  0.00  0.00    -0.301 N 
ATOM     23  C   UNL     1      -7.144 -10.530  10.288  0.00  0.00    +0.236 C 
ATOM     45  H   UNL     1      -6.423 -12.436   9.878  0.00  0.00    +0.150 HD
BRANCH  10  25
ATOM     25  C   UNL     1      -4.860 -11.071   9.458  0.00  0.00    +0.186 C 
BRANCH  25  28
ATOM      5  O   UNL     1      -5.193  -9.592   7.577  0.00  0.00    -0.249 OA
ATOM     28  C   UNL     1      -4.803 -10.680   7.988  0.00  0.00    +0.328 C 
BRANCH  28   4
ATOM      4  O   UNL     1      -4.289 -11.675   7.211  0.00  0.00    -0.467 OA
ATOM     40  C   UNL     1      -4.707 -11.672   5.842  0.00  0.00    +0.280 C 
ENDBRANCH  28   4
ENDBRANCH  25  28
BRANCH  25  27
ATOM     27  C   UNL     1      -3.839 -12.166   9.803  0.00  0.00    +0.069 C 
BRANCH  27  31
ATOM     31  C   UNL     1      -3.196 -12.024  11.165  0.00  0.00    -0.045 A 
ATOM     35  C   UNL     1      -2.847 -10.762  11.643  0.00  0.00    +0.007 A 
ATOM     36  C   UNL     1      -2.951 -13.156  11.941  0.00  0.00    +0.007 A 
ATOM     37  C   UNL     1      -2.254 -10.630  12.898  0.00  0.00    +0.046 A 
ATOM     38  C   UNL     1      -2.358 -13.025  13.197  0.00  0.00    +0.046 A 
ATOM     39  C   UNL     1      -2.009 -11.762  13.675  0.00  0.00    +0.120 A 
BRANCH  39   6
ATOM      6  O   UNL     1      -1.430 -11.635  14.901  0.00  0.00    -0.495 OA
ATOM     43  C   UNL     1      -1.399 -10.329  15.472  0.00  0.00    +0.277 C 
ENDBRANCH  39   6
ENDBRANCH  27  31
ENDBRANCH  25  27
ENDBRANCH  10  25
ENDBRANCH  18  23
TORSDOF 10
ENDMDL
MODEL 10
REMARK VINA RESULT:      -5.8      2.467      9.071
REMARK  Name = 75536034
REMARK  14 active torsions:
REMARK  status: ('A' for Active; 'I' for Inactive)
REMARK    1  A    between atoms: O_4  and  C_28
REMARK    2  A    between atoms: O_4  and  C_40
REMARK    3  A    between atoms: O_6  and  C_39
REMARK    4  A    between atoms: O_6  and  C_43
REMARK    5  A    between atoms: N_8  and  C_12
REMARK    6  A    between atoms: N_10  and  C_25
REMARK    7  A    between atoms: N_11  and  C_34
REMARK    8  A    between atoms: N_11  and  C_41
REMARK    9  A    between atoms: N_11  and  C_42
REMARK   10  A    between atoms: C_18  and  C_23
REMARK   11  A    between atoms: C_24  and  C_26
REMARK   12  A    between atoms: C_25  and  C_27
REMARK   13  A    between atoms: C_25  and  C_28
REMARK   14  A    between atoms: C_27  and  C_31
REMARK                            x       y       z     vdW  Elec       q    Type
REMARK                         _______ _______ _______ _____ _____    ______ ____
ROOT
ATOM      1  O   UNL     1      -5.318 -14.890   9.563  0.00  0.00    -0.253 OA
ATOM      3  O   UNL     1      -2.180 -10.095  14.150  0.00  0.00    -0.270 OA
ATOM      7  N   UNL     1      -4.234 -13.102  10.579  0.00  0.00    -0.271 N 
ATOM      8  N   UNL     1      -4.278 -13.337   8.226  0.00  0.00    -0.296 N 
ATOM      9  N   UNL     1      -3.525 -11.611  12.984  0.00  0.00    -0.294 N 
ATOM     18  C   UNL     1      -3.311 -11.959  10.520  0.00  0.00    +0.181 C 
ATOM     19  C   UNL     1      -2.602 -11.695  11.849  0.00  0.00    +0.140 C 
ATOM     20  C   UNL     1      -4.599 -13.581  11.916  0.00  0.00    +0.129 C 
ATOM     21  C   UNL     1      -4.730 -12.446  12.923  0.00  0.00    +0.127 C 
ATOM     22  C   UNL     1      -4.656 -13.853   9.461  0.00  0.00    +0.303 C 
ATOM     24  C   UNL     1      -3.183 -10.803  14.075  0.00  0.00    +0.247 C 
ATOM     44  H   UNL     1      -3.843 -12.424   8.173  0.00  0.00    +0.151 HD
ENDROOT
BRANCH   8  12
ATOM     12  C   UNL     1      -4.634 -13.983   6.983  0.00  0.00    +0.074 C 
ATOM     13  C   UNL     1      -3.407 -14.622   6.323  0.00  0.00    +0.022 C 
ATOM     14  C   UNL     1      -5.328 -13.003   6.032  0.00  0.00    +0.022 C 
ATOM     15  C   UNL     1      -2.447 -13.583   5.744  0.00  0.00    +0.002 C 
ATOM     16  C   UNL     1      -4.365 -11.967   5.453  0.00  0.00    +0.002 C 
ATOM     17  C   UNL     1      -3.158 -12.626   4.792  0.00  0.00    +0.000 C 
ENDBRANCH   8  12
BRANCH  24  26
ATOM     26  C   UNL     1      -4.090 -10.788  15.233  0.00  0.00    +0.037 A 
ATOM     29  C   UNL     1      -5.280 -10.062  15.179  0.00  0.00    +0.015 A 
ATOM     30  C   UNL     1      -3.760 -11.500  16.387  0.00  0.00    +0.015 A 
ATOM     32  C   UNL     1      -6.140 -10.048  16.277  0.00  0.00    +0.024 A 
ATOM     33  C   UNL     1      -4.619 -11.486  17.485  0.00  0.00    +0.024 A 
ATOM     34  C   UNL     1      -5.809 -10.761  17.431  0.00  0.00    +0.029 A 
BRANCH  34  11
ATOM     11  N   UNL     1      -6.678 -10.745  18.541  0.00  0.00    -0.336 N 
ATOM     41  C   UNL     1      -8.108 -10.598  18.350  0.00  0.00    +0.129 C 
ATOM     42  C   UNL     1      -6.156 -10.884  19.885  0.00  0.00    +0.129 C 
ENDBRANCH  34  11
ENDBRANCH  24  26
BRANCH  18  23
ATOM      2  O   UNL     1      -3.566  -9.702   9.774  0.00  0.00    -0.274 OA
ATOM     10  N   UNL     1      -5.472 -10.969  10.204  0.00  0.00    -0.301 N 
ATOM     23  C   UNL     1      -4.107 -10.750  10.117  0.00  0.00    +0.236 C 
ATOM     45  H   UNL     1      -5.811 -11.885  10.483  0.00  0.00    +0.150 HD
BRANCH  10  25
ATOM     25  C   UNL     1      -6.456  -9.958   9.892  0.00  0.00    +0.186 C 
BRANCH  25  28
ATOM      5  O   UNL     1      -6.160  -8.462  11.768  0.00  0.00    -0.249 OA
ATOM     28  C   UNL     1      -6.911  -9.191  11.127  0.00  0.00    +0.328 C 
BRANCH  28   4
ATOM      4  O   UNL     1      -8.219  -9.428  11.426  0.00  0.00    -0.467 OA
ATOM     40  C   UNL     1      -8.485  -9.831  12.773  0.00  0.00    +0.280 C 
ENDBRANCH  28   4
ENDBRANCH  25  28
BRANCH  25  27
ATOM     27  C   UNL     1      -7.641 -10.553   9.116  0.00  0.00    +0.069 C 
BRANCH  27  31
ATOM     31  C   UNL     1      -7.607 -10.307   7.625  0.00  0.00    -0.045 A 
ATOM     35  C   UNL     1      -6.649  -9.452   7.080  0.00  0.00    +0.007 A 
ATOM     36  C   UNL     1      -8.535 -10.934   6.794  0.00  0.00    +0.007 A 
ATOM     37  C   UNL     1      -6.618  -9.224   5.705  0.00  0.00    +0.046 A 
ATOM     38  C   UNL     1      -8.504 -10.707   5.418  0.00  0.00    +0.046 A 
ATOM     39  C   UNL     1      -7.546  -9.851   4.874  0.00  0.00    +0.120 A 
BRANCH  39   6
ATOM      6  O   UNL     1      -7.517  -9.629   3.531  0.00  0.00    -0.495 OA
ATOM     43  C   UNL     1      -8.302  -8.547   3.034  0.00  0.00    +0.277 C 
ENDBRANCH  39   6
ENDBRANCH  27  31
ENDBRANCH  25  27
ENDBRANCH  10  25
ENDBRANCH  18  23
TORSDOF 10
ENDMDL
