MODEL 1
REMARK VINA RESULT:      -7.5      0.000      0.000
REMARK  Name = 51137550
REMARK  7 active torsions:
REMARK  status: ('A' for Active; 'I' for Inactive)
REMARK    1  A    between atoms: N_3  and  C_8
REMARK    2  A    between atoms: N_7  and  C_26
REMARK    3  A    between atoms: N_7  and  C_27
REMARK    4  A    between atoms: N_7  and  C_28
REMARK    5  A    between atoms: C_10  and  C_17
REMARK    6  A    between atoms: C_18  and  C_19
REMARK    7  A    between atoms: C_20  and  C_21
REMARK                            x       y       z     vdW  Elec       q    Type
REMARK                         _______ _______ _______ _____ _____    ______ ____
ROOT
ATOM      3  N   UNL     1      10.632   9.871  22.018  0.00  0.00    -0.299 NA
ATOM      9  C   UNL     1      11.397   9.755  20.774  0.00  0.00    +0.097 C 
ATOM     10  C   UNL     1      11.219   8.277  20.401  0.00  0.00    +0.092 C 
ATOM     11  C   UNL     1      10.975   8.674  22.785  0.00  0.00    +0.085 C 
ATOM     12  C   UNL     1      10.923   7.571  21.735  0.00  0.00    +0.029 C 
ENDROOT
BRANCH   3   8
ATOM      2  O   UNL     1      14.872  13.642  24.386  0.00  0.00    -0.276 OA
ATOM      4  N   UNL     1      12.745  12.710  24.328  0.00  0.00    -0.302 N 
ATOM      8  C   UNL     1      10.931  11.102  22.744  0.00  0.00    +0.060 C 
ATOM     13  C   UNL     1      11.198  10.791  24.221  0.00  0.00    +0.038 C 
ATOM     14  C   UNL     1      12.143  11.803  22.115  0.00  0.00    +0.038 C 
ATOM     15  C   UNL     1      11.607  12.053  24.982  0.00  0.00    +0.109 C 
ATOM     16  C   UNL     1      12.532  13.044  22.918  0.00  0.00    +0.109 C 
ATOM     18  C   UNL     1      13.944  13.056  24.950  0.00  0.00    +0.212 C 
ATOM     19  C   UNL     1      14.086  12.676  26.401  0.00  0.00    +0.109 C 
ENDBRANCH   3   8
BRANCH  10  17
ATOM      1  O   UNL     1      13.584   7.646  20.297  0.00  0.00    -0.420 OA
ATOM      5  N   UNL     1      12.457   7.280  18.399  0.00  0.00    -0.112 NA
ATOM      6  N   UNL     1      13.767   6.883  18.202  0.00  0.00    -0.107 NA
ATOM     17  C   UNL     1      12.397   7.718  19.635  0.00  0.00    +0.222 A 
ATOM     20  C   UNL     1      14.386   7.115  19.335  0.00  0.00    +0.248 A 
BRANCH  20  21
ATOM     21  C   UNL     1      15.754   6.897  19.710  0.00  0.00    +0.039 A 
ATOM     22  C   UNL     1      16.554   6.036  18.960  0.00  0.00    +0.015 A 
ATOM     23  C   UNL     1      16.284   7.548  20.824  0.00  0.00    +0.015 A 
ATOM     24  C   UNL     1      17.884   5.825  19.323  0.00  0.00    +0.024 A 
ATOM     25  C   UNL     1      17.614   7.337  21.188  0.00  0.00    +0.024 A 
ATOM     26  C   UNL     1      18.414   6.476  20.438  0.00  0.00    +0.029 A 
BRANCH  26   7
ATOM      7  N   UNL     1      19.758   6.262  20.806  0.00  0.00    -0.336 N 
ATOM     27  C   UNL     1      20.485   7.270  21.552  0.00  0.00    +0.129 C 
ATOM     28  C   UNL     1      20.434   5.034  20.436  0.00  0.00    +0.129 C 
ENDBRANCH  26   7
ENDBRANCH  20  21
ENDBRANCH  10  17
TORSDOF 4
ENDMDL
MODEL 2
REMARK VINA RESULT:      -7.2     26.697     29.172
REMARK  Name = 51137550
REMARK  7 active torsions:
REMARK  status: ('A' for Active; 'I' for Inactive)
REMARK    1  A    between atoms: N_3  and  C_8
REMARK    2  A    between atoms: N_7  and  C_26
REMARK    3  A    between atoms: N_7  and  C_27
REMARK    4  A    between atoms: N_7  and  C_28
REMARK    5  A    between atoms: C_10  and  C_17
REMARK    6  A    between atoms: C_18  and  C_19
REMARK    7  A    between atoms: C_20  and  C_21
REMARK                            x       y       z     vdW  Elec       q    Type
REMARK                         _______ _______ _______ _____ _____    ______ ____
ROOT
ATOM      3  N   UNL     1      -3.574 -11.116  16.152  0.00  0.00    -0.299 NA
ATOM      9  C   UNL     1      -4.026 -10.976  14.766  0.00  0.00    +0.097 C 
ATOM     10  C   UNL     1      -2.773 -11.346  13.960  0.00  0.00    +0.092 C 
ATOM     11  C   UNL     1      -2.243 -10.509  16.178  0.00  0.00    +0.085 C 
ATOM     12  C   UNL     1      -1.599 -11.050  14.908  0.00  0.00    +0.029 C 
ENDROOT
BRANCH   3   8
ATOM      2  O   UNL     1      -8.296 -11.737  20.041  0.00  0.00    -0.276 OA
ATOM      4  N   UNL     1      -6.985 -10.505  18.572  0.00  0.00    -0.302 N 
ATOM      8  C   UNL     1      -4.490 -10.491  17.102  0.00  0.00    +0.060 C 
ATOM     13  C   UNL     1      -5.826 -10.178  16.419  0.00  0.00    +0.038 C 
ATOM     14  C   UNL     1      -4.707 -11.413  18.309  0.00  0.00    +0.038 C 
ATOM     15  C   UNL     1      -6.834  -9.610  17.418  0.00  0.00    +0.109 C 
ATOM     16  C   UNL     1      -5.736 -10.820  19.271  0.00  0.00    +0.109 C 
ATOM     18  C   UNL     1      -8.192 -11.015  19.045  0.00  0.00    +0.212 C 
ATOM     19  C   UNL     1      -9.432 -10.647  18.270  0.00  0.00    +0.109 C 
ENDBRANCH   3   8
BRANCH  10  17
ATOM      1  O   UNL     1      -3.860 -10.557  11.911  0.00  0.00    -0.420 OA
ATOM      5  N   UNL     1      -1.677 -10.082  12.027  0.00  0.00    -0.112 NA
ATOM      6  N   UNL     1      -2.160  -9.584  10.831  0.00  0.00    -0.107 NA
ATOM     17  C   UNL     1      -2.704 -10.641  12.624  0.00  0.00    +0.222 A 
ATOM     20  C   UNL     1      -3.437  -9.885  10.807  0.00  0.00    +0.248 A 
BRANCH  20  21
ATOM     21  C   UNL     1      -4.438  -9.617   9.814  0.00  0.00    +0.039 A 
ATOM     22  C   UNL     1      -4.416 -10.301   8.599  0.00  0.00    +0.015 A 
ATOM     23  C   UNL     1      -5.435  -8.674  10.065  0.00  0.00    +0.015 A 
ATOM     24  C   UNL     1      -5.390 -10.042   7.635  0.00  0.00    +0.024 A 
ATOM     25  C   UNL     1      -6.408  -8.414   9.101  0.00  0.00    +0.024 A 
ATOM     26  C   UNL     1      -6.386  -9.098   7.885  0.00  0.00    +0.029 A 
BRANCH  26   7
ATOM      7  N   UNL     1      -7.369  -8.835   6.910  0.00  0.00    -0.336 N 
ATOM     27  C   UNL     1      -8.743  -8.587   7.300  0.00  0.00    +0.129 C 
ATOM     28  C   UNL     1      -7.021  -8.817   5.503  0.00  0.00    +0.129 C 
ENDBRANCH  26   7
ENDBRANCH  20  21
ENDBRANCH  10  17
TORSDOF 4
ENDMDL
MODEL 3
REMARK VINA RESULT:      -7.1      2.051      3.324
REMARK  Name = 51137550
REMARK  7 active torsions:
REMARK  status: ('A' for Active; 'I' for Inactive)
REMARK    1  A    between atoms: N_3  and  C_8
REMARK    2  A    between atoms: N_7  and  C_26
REMARK    3  A    between atoms: N_7  and  C_27
REMARK    4  A    between atoms: N_7  and  C_28
REMARK    5  A    between atoms: C_10  and  C_17
REMARK    6  A    between atoms: C_18  and  C_19
REMARK    7  A    between atoms: C_20  and  C_21
REMARK                            x       y       z     vdW  Elec       q    Type
REMARK                         _______ _______ _______ _____ _____    ______ ____
ROOT
ATOM      3  N   UNL     1      13.221   8.926  20.477  0.00  0.00    -0.299 NA
ATOM      9  C   UNL     1      14.469   8.732  19.736  0.00  0.00    +0.097 C 
ATOM     10  C   UNL     1      14.429   7.239  19.384  0.00  0.00    +0.092 C 
ATOM     11  C   UNL     1      13.125   7.766  21.364  0.00  0.00    +0.085 C 
ATOM     12  C   UNL     1      13.523   6.610  20.456  0.00  0.00    +0.029 C 
ENDROOT
BRANCH   3   8
ATOM      2  O   UNL     1      13.122  11.827  25.897  0.00  0.00    -0.276 OA
ATOM      4  N   UNL     1      12.653  11.686  23.626  0.00  0.00    -0.302 N 
ATOM      8  C   UNL     1      13.196  10.190  21.208  0.00  0.00    +0.060 C 
ATOM     13  C   UNL     1      11.763  10.520  21.643  0.00  0.00    +0.038 C 
ATOM     14  C   UNL     1      14.123  10.111  22.428  0.00  0.00    +0.038 C 
ATOM     15  C   UNL     1      11.727  11.790  22.492  0.00  0.00    +0.109 C 
ATOM     16  C   UNL     1      14.040  11.390  23.260  0.00  0.00    +0.109 C 
ATOM     18  C   UNL     1      12.316  11.884  24.964  0.00  0.00    +0.212 C 
ATOM     19  C   UNL     1      10.868  12.184  25.259  0.00  0.00    +0.109 C 
ENDBRANCH   3   8
BRANCH  10  17
ATOM      1  O   UNL     1      16.678   6.881  20.288  0.00  0.00    -0.420 OA
ATOM      5  N   UNL     1      16.306   5.859  18.332  0.00  0.00    -0.112 NA
ATOM      6  N   UNL     1      17.602   5.575  18.724  0.00  0.00    -0.107 NA
ATOM     17  C   UNL     1      15.805   6.623  19.275  0.00  0.00    +0.222 A 
ATOM     20  C   UNL     1      17.773   6.192  19.869  0.00  0.00    +0.248 A 
BRANCH  20  21
ATOM     21  C   UNL     1      18.917   6.249  20.733  0.00  0.00    +0.039 A 
ATOM     22  C   UNL     1      18.936   7.137  21.807  0.00  0.00    +0.015 A 
ATOM     23  C   UNL     1      20.010   5.414  20.499  0.00  0.00    +0.015 A 
ATOM     24  C   UNL     1      20.048   7.192  22.648  0.00  0.00    +0.024 A 
ATOM     25  C   UNL     1      21.122   5.469  21.339  0.00  0.00    +0.024 A 
ATOM     26  C   UNL     1      21.142   6.358  22.414  0.00  0.00    +0.029 A 
BRANCH  26   7
ATOM      7  N   UNL     1      22.266   6.415  23.263  0.00  0.00    -0.336 N 
ATOM     27  C   UNL     1      22.242   7.233  24.459  0.00  0.00    +0.129 C 
ATOM     28  C   UNL     1      23.463   5.662  22.946  0.00  0.00    +0.129 C 
ENDBRANCH  26   7
ENDBRANCH  20  21
ENDBRANCH  10  17
TORSDOF 4
ENDMDL
MODEL 4
REMARK VINA RESULT:      -7.0     27.222     30.322
REMARK  Name = 51137550
REMARK  7 active torsions:
REMARK  status: ('A' for Active; 'I' for Inactive)
REMARK    1  A    between atoms: N_3  and  C_8
REMARK    2  A    between atoms: N_7  and  C_26
REMARK    3  A    between atoms: N_7  and  C_27
REMARK    4  A    between atoms: N_7  and  C_28
REMARK    5  A    between atoms: C_10  and  C_17
REMARK    6  A    between atoms: C_18  and  C_19
REMARK    7  A    between atoms: C_20  and  C_21
REMARK                            x       y       z     vdW  Elec       q    Type
REMARK                         _______ _______ _______ _____ _____    ______ ____
ROOT
ATOM      3  N   UNL     1      -4.119 -11.332  17.176  0.00  0.00    -0.299 NA
ATOM      9  C   UNL     1      -5.360 -10.556  17.131  0.00  0.00    +0.097 C 
ATOM     10  C   UNL     1      -5.814 -10.552  18.597  0.00  0.00    +0.092 C 
ATOM     11  C   UNL     1      -4.413 -12.462  18.058  0.00  0.00    +0.085 C 
ATOM     12  C   UNL     1      -5.167 -11.807  19.208  0.00  0.00    +0.029 C 
ENDROOT
BRANCH   3   8
ATOM      2  O   UNL     1      -1.377  -9.900  11.862  0.00  0.00    -0.276 OA
ATOM      4  N   UNL     1      -2.877 -11.129  13.141  0.00  0.00    -0.302 N 
ATOM      8  C   UNL     1      -3.681 -11.761  15.850  0.00  0.00    +0.060 C 
ATOM     13  C   UNL     1      -4.700 -11.323  14.791  0.00  0.00    +0.038 C 
ATOM     14  C   UNL     1      -2.298 -11.175  15.538  0.00  0.00    +0.038 C 
ATOM     15  C   UNL     1      -4.217 -11.677  13.385  0.00  0.00    +0.109 C 
ATOM     16  C   UNL     1      -1.862 -11.533  14.117  0.00  0.00    +0.109 C 
ATOM     18  C   UNL     1      -2.520 -10.318  12.065  0.00  0.00    +0.212 C 
ATOM     19  C   UNL     1      -3.621  -9.945  11.106  0.00  0.00    +0.109 C 
ENDBRANCH   3   8
BRANCH  10  17
ATOM      1  O   UNL     1      -7.973  -9.607  17.929  0.00  0.00    -0.420 OA
ATOM      5  N   UNL     1      -8.108 -11.125  19.567  0.00  0.00    -0.112 NA
ATOM      6  N   UNL     1      -9.387 -10.678  19.291  0.00  0.00    -0.107 NA
ATOM     17  C   UNL     1      -7.316 -10.473  18.748  0.00  0.00    +0.222 A 
ATOM     20  C   UNL     1      -9.259  -9.794  18.330  0.00  0.00    +0.248 A 
BRANCH  20  21
ATOM     21  C   UNL     1     -10.249  -9.011  17.648  0.00  0.00    +0.039 A 
ATOM     22  C   UNL     1      -9.887  -7.815  17.029  0.00  0.00    +0.015 A 
ATOM     23  C   UNL     1     -11.573  -9.447  17.602  0.00  0.00    +0.015 A 
ATOM     24  C   UNL     1     -10.849  -7.054  16.365  0.00  0.00    +0.024 A 
ATOM     25  C   UNL     1     -12.535  -8.686  16.938  0.00  0.00    +0.024 A 
ATOM     26  C   UNL     1     -12.174  -7.489  16.319  0.00  0.00    +0.029 A 
BRANCH  26   7
ATOM      7  N   UNL     1     -13.146  -6.719  15.649  0.00  0.00    -0.336 N 
ATOM     27  C   UNL     1     -14.556  -6.922  15.918  0.00  0.00    +0.129 C 
ATOM     28  C   UNL     1     -12.749  -5.720  14.678  0.00  0.00    +0.129 C 
ENDBRANCH  26   7
ENDBRANCH  20  21
ENDBRANCH  10  17
TORSDOF 4
ENDMDL
MODEL 5
REMARK VINA RESULT:      -6.9     27.305     29.645
REMARK  Name = 51137550
REMARK  7 active torsions:
REMARK  status: ('A' for Active; 'I' for Inactive)
REMARK    1  A    between atoms: N_3  and  C_8
REMARK    2  A    between atoms: N_7  and  C_26
REMARK    3  A    between atoms: N_7  and  C_27
REMARK    4  A    between atoms: N_7  and  C_28
REMARK    5  A    between atoms: C_10  and  C_17
REMARK    6  A    between atoms: C_18  and  C_19
REMARK    7  A    between atoms: C_20  and  C_21
REMARK                            x       y       z     vdW  Elec       q    Type
REMARK                         _______ _______ _______ _____ _____    ______ ____
ROOT
ATOM      3  N   UNL     1      -2.812 -10.602  10.703  0.00  0.00    -0.299 NA
ATOM      9  C   UNL     1      -2.645  -9.964  12.011  0.00  0.00    +0.097 C 
ATOM     10  C   UNL     1      -2.110 -11.109  12.883  0.00  0.00    +0.092 C 
ATOM     11  C   UNL     1      -3.413 -11.904  10.993  0.00  0.00    +0.085 C 
ATOM     12  C   UNL     1      -2.608 -12.389  12.191  0.00  0.00    +0.029 C 
ENDROOT
BRANCH   3   8
ATOM      2  O   UNL     1      -8.304  -8.177   9.373  0.00  0.00    -0.276 OA
ATOM      4  N   UNL     1      -6.222  -9.017   8.774  0.00  0.00    -0.302 N 
ATOM      8  C   UNL     1      -3.629  -9.802   9.794  0.00  0.00    +0.060 C 
ATOM     13  C   UNL     1      -4.439 -10.718   8.869  0.00  0.00    +0.038 C 
ATOM     14  C   UNL     1      -4.563  -8.885  10.593  0.00  0.00    +0.038 C 
ATOM     15  C   UNL     1      -5.373  -9.906   7.972  0.00  0.00    +0.109 C 
ATOM     16  C   UNL     1      -5.493  -8.108   9.662  0.00  0.00    +0.109 C 
ATOM     18  C   UNL     1      -7.614  -8.960   8.714  0.00  0.00    +0.212 C 
ATOM     19  C   UNL     1      -8.290  -9.928   7.778  0.00  0.00    +0.109 C 
ENDBRANCH   3   8
BRANCH  10  17
ATOM      1  O   UNL     1      -3.837 -10.875  14.604  0.00  0.00    -0.420 OA
ATOM      5  N   UNL     1      -1.750 -10.942  15.408  0.00  0.00    -0.112 NA
ATOM      6  N   UNL     1      -2.616 -10.810  16.478  0.00  0.00    -0.107 NA
ATOM     17  C   UNL     1      -2.507 -10.976  14.336  0.00  0.00    +0.222 A 
ATOM     20  C   UNL     1      -3.822 -10.775  15.961  0.00  0.00    +0.248 A 
BRANCH  20  21
ATOM     21  C   UNL     1      -5.103 -10.651  16.595  0.00  0.00    +0.039 A 
ATOM     22  C   UNL     1      -5.970  -9.625  16.220  0.00  0.00    +0.015 A 
ATOM     23  C   UNL     1      -5.482 -11.558  17.585  0.00  0.00    +0.015 A 
ATOM     24  C   UNL     1      -7.216  -9.506  16.835  0.00  0.00    +0.024 A 
ATOM     25  C   UNL     1      -6.727 -11.438  18.201  0.00  0.00    +0.024 A 
ATOM     26  C   UNL     1      -7.595 -10.412  17.826  0.00  0.00    +0.029 A 
BRANCH  26   7
ATOM      7  N   UNL     1      -8.854 -10.290  18.449  0.00  0.00    -0.336 N 
ATOM     27  C   UNL     1      -9.171 -11.077  19.624  0.00  0.00    +0.129 C 
ATOM     28  C   UNL     1      -9.850  -9.381  17.918  0.00  0.00    +0.129 C 
ENDBRANCH  26   7
ENDBRANCH  20  21
ENDBRANCH  10  17
TORSDOF 4
ENDMDL
MODEL 6
REMARK VINA RESULT:      -6.8     27.213     30.762
REMARK  Name = 51137550
REMARK  7 active torsions:
REMARK  status: ('A' for Active; 'I' for Inactive)
REMARK    1  A    between atoms: N_3  and  C_8
REMARK    2  A    between atoms: N_7  and  C_26
REMARK    3  A    between atoms: N_7  and  C_27
REMARK    4  A    between atoms: N_7  and  C_28
REMARK    5  A    between atoms: C_10  and  C_17
REMARK    6  A    between atoms: C_18  and  C_19
REMARK    7  A    between atoms: C_20  and  C_21
REMARK                            x       y       z     vdW  Elec       q    Type
REMARK                         _______ _______ _______ _____ _____    ______ ____
ROOT
ATOM      3  N   UNL     1     -15.908   4.948  23.093  0.00  0.00    -0.299 NA
ATOM      9  C   UNL     1     -15.539   3.669  23.703  0.00  0.00    +0.097 C 
ATOM     10  C   UNL     1     -16.892   3.106  24.160  0.00  0.00    +0.092 C 
ATOM     11  C   UNL     1     -16.893   5.530  24.005  0.00  0.00    +0.085 C 
ATOM     12  C   UNL     1     -17.787   4.344  24.340  0.00  0.00    +0.029 C 
ENDROOT
BRANCH   3   8
ATOM      2  O   UNL     1     -13.016   9.035  19.524  0.00  0.00    -0.276 OA
ATOM      4  N   UNL     1     -13.043   7.355  21.127  0.00  0.00    -0.302 N 
ATOM      8  C   UNL     1     -14.755   5.821  22.888  0.00  0.00    +0.060 C 
ATOM     13  C   UNL     1     -13.736   5.141  21.967  0.00  0.00    +0.038 C 
ATOM     14  C   UNL     1     -15.208   7.161  22.293  0.00  0.00    +0.038 C 
ATOM     15  C   UNL     1     -12.564   6.074  21.661  0.00  0.00    +0.109 C 
ATOM     16  C   UNL     1     -14.006   8.053  21.982  0.00  0.00    +0.109 C 
ATOM     18  C   UNL     1     -12.624   7.938  19.933  0.00  0.00    +0.212 C 
ATOM     19  C   UNL     1     -11.633   7.157  19.109  0.00  0.00    +0.109 C 
ENDBRANCH   3   8
BRANCH  10  17
ATOM      1  O   UNL     1     -16.273   2.790  26.509  0.00  0.00    -0.420 OA
ATOM      5  N   UNL     1     -17.098   0.956  25.527  0.00  0.00    -0.112 NA
ATOM      6  N   UNL     1     -16.794   0.639  26.838  0.00  0.00    -0.107 NA
ATOM     17  C   UNL     1     -16.778   2.221  25.380  0.00  0.00    +0.222 A 
ATOM     20  C   UNL     1     -16.315   1.739  27.372  0.00  0.00    +0.248 A 
BRANCH  20  21
ATOM     21  C   UNL     1     -15.840   1.999  28.700  0.00  0.00    +0.039 A 
ATOM     22  C   UNL     1     -15.536   3.302  29.090  0.00  0.00    +0.015 A 
ATOM     23  C   UNL     1     -15.686   0.947  29.603  0.00  0.00    +0.015 A 
ATOM     24  C   UNL     1     -15.076   3.555  30.382  0.00  0.00    +0.024 A 
ATOM     25  C   UNL     1     -15.225   1.199  30.895  0.00  0.00    +0.024 A 
ATOM     26  C   UNL     1     -14.920   2.503  31.285  0.00  0.00    +0.029 A 
BRANCH  26   7
ATOM      7  N   UNL     1     -14.453   2.759  32.591  0.00  0.00    -0.336 N 
ATOM     27  C   UNL     1     -14.582   1.753  33.627  0.00  0.00    +0.129 C 
ATOM     28  C   UNL     1     -13.845   4.033  32.916  0.00  0.00    +0.129 C 
ENDBRANCH  26   7
ENDBRANCH  20  21
ENDBRANCH  10  17
TORSDOF 4
ENDMDL
MODEL 7
REMARK VINA RESULT:      -6.5     27.126     30.656
REMARK  Name = 51137550
REMARK  7 active torsions:
REMARK  status: ('A' for Active; 'I' for Inactive)
REMARK    1  A    between atoms: N_3  and  C_8
REMARK    2  A    between atoms: N_7  and  C_26
REMARK    3  A    between atoms: N_7  and  C_27
REMARK    4  A    between atoms: N_7  and  C_28
REMARK    5  A    between atoms: C_10  and  C_17
REMARK    6  A    between atoms: C_18  and  C_19
REMARK    7  A    between atoms: C_20  and  C_21
REMARK                            x       y       z     vdW  Elec       q    Type
REMARK                         _______ _______ _______ _____ _____    ______ ____
ROOT
ATOM      3  N   UNL     1     -13.866   8.944  32.507  0.00  0.00    -0.299 NA
ATOM      9  C   UNL     1     -14.494   7.769  31.898  0.00  0.00    +0.097 C 
ATOM     10  C   UNL     1     -14.555   6.772  33.064  0.00  0.00    +0.092 C 
ATOM     11  C   UNL     1     -12.778   8.407  33.326  0.00  0.00    +0.085 C 
ATOM     12  C   UNL     1     -13.428   7.213  34.012  0.00  0.00    +0.029 C 
ENDROOT
BRANCH   3   8
ATOM      2  O   UNL     1     -12.966  10.304  26.578  0.00  0.00    -0.276 OA
ATOM      4  N   UNL     1     -12.454  10.491  28.836  0.00  0.00    -0.302 N 
ATOM      8  C   UNL     1     -13.392   9.901  31.511  0.00  0.00    +0.060 C 
ATOM     13  C   UNL     1     -11.974   9.534  31.059  0.00  0.00    +0.038 C 
ATOM     14  C   UNL     1     -14.348   9.929  30.312  0.00  0.00    +0.038 C 
ATOM     15  C   UNL     1     -11.494  10.467  29.947  0.00  0.00    +0.109 C 
ATOM     16  C   UNL     1     -13.821  10.855  29.216  0.00  0.00    +0.109 C 
ATOM     18  C   UNL     1     -12.147  10.241  27.500  0.00  0.00    +0.212 C 
ATOM     19  C   UNL     1     -10.719   9.871  27.191  0.00  0.00    +0.109 C 
ENDBRANCH   3   8
BRANCH  10  17
ATOM      1  O   UNL     1     -15.180   4.999  31.493  0.00  0.00    -0.420 OA
ATOM      5  N   UNL     1     -13.823   4.324  33.140  0.00  0.00    -0.112 NA
ATOM      6  N   UNL     1     -14.093   3.233  32.334  0.00  0.00    -0.107 NA
ATOM     17  C   UNL     1     -14.477   5.332  32.611  0.00  0.00    +0.222 A 
ATOM     20  C   UNL     1     -14.887   3.674  31.387  0.00  0.00    +0.248 A 
BRANCH  20  21
ATOM     21  C   UNL     1     -15.483   2.988  30.277  0.00  0.00    +0.039 A 
ATOM     22  C   UNL     1     -15.760   3.677  29.098  0.00  0.00    +0.015 A 
ATOM     23  C   UNL     1     -15.784   1.629  30.378  0.00  0.00    +0.015 A 
ATOM     24  C   UNL     1     -16.338   3.009  28.018  0.00  0.00    +0.024 A 
ATOM     25  C   UNL     1     -16.362   0.961  29.299  0.00  0.00    +0.024 A 
ATOM     26  C   UNL     1     -16.640   1.651  28.119  0.00  0.00    +0.029 A 
BRANCH  26   7
ATOM      7  N   UNL     1     -17.225   0.976  27.028  0.00  0.00    -0.336 N 
ATOM     27  C   UNL     1     -16.549   0.926  25.747  0.00  0.00    +0.129 C 
ATOM     28  C   UNL     1     -18.515   0.331  27.171  0.00  0.00    +0.129 C 
ENDBRANCH  26   7
ENDBRANCH  20  21
ENDBRANCH  10  17
TORSDOF 4
ENDMDL
MODEL 8
REMARK VINA RESULT:      -6.5      4.078      6.331
REMARK  Name = 51137550
REMARK  7 active torsions:
REMARK  status: ('A' for Active; 'I' for Inactive)
REMARK    1  A    between atoms: N_3  and  C_8
REMARK    2  A    between atoms: N_7  and  C_26
REMARK    3  A    between atoms: N_7  and  C_27
REMARK    4  A    between atoms: N_7  and  C_28
REMARK    5  A    between atoms: C_10  and  C_17
REMARK    6  A    between atoms: C_18  and  C_19
REMARK    7  A    between atoms: C_20  and  C_21
REMARK                            x       y       z     vdW  Elec       q    Type
REMARK                         _______ _______ _______ _____ _____    ______ ____
ROOT
ATOM      3  N   UNL     1      13.596   9.538  18.375  0.00  0.00    -0.299 NA
ATOM      9  C   UNL     1      14.326   8.345  17.940  0.00  0.00    +0.097 C 
ATOM     10  C   UNL     1      14.632   7.631  19.263  0.00  0.00    +0.092 C 
ATOM     11  C   UNL     1      14.332  10.025  19.542  0.00  0.00    +0.085 C 
ATOM     12  C   UNL     1      14.617   8.748  20.321  0.00  0.00    +0.029 C 
ENDROOT
BRANCH   3   8
ATOM      2  O   UNL     1      15.218  11.386  12.739  0.00  0.00    -0.276 OA
ATOM      4  N   UNL     1      14.535  11.788  14.923  0.00  0.00    -0.302 N 
ATOM      8  C   UNL     1      13.494  10.545  17.321  0.00  0.00    +0.060 C 
ATOM     13  C   UNL     1      14.710  11.477  17.363  0.00  0.00    +0.038 C 
ATOM     14  C   UNL     1      13.387   9.863  15.951  0.00  0.00    +0.038 C 
ATOM     15  C   UNL     1      14.674  12.480  16.210  0.00  0.00    +0.109 C 
ATOM     16  C   UNL     1      13.376  10.898  14.826  0.00  0.00    +0.109 C 
ATOM     18  C   UNL     1      15.377  11.952  13.824  0.00  0.00    +0.212 C 
ATOM     19  C   UNL     1      16.549  12.883  14.003  0.00  0.00    +0.109 C 
ENDBRANCH   3   8
BRANCH  10  17
ATOM      1  O   UNL     1      16.817   7.044  20.201  0.00  0.00    -0.420 OA
ATOM      5  N   UNL     1      16.288   5.915  18.343  0.00  0.00    -0.112 NA
ATOM      6  N   UNL     1      17.535   5.488  18.762  0.00  0.00    -0.107 NA
ATOM     17  C   UNL     1      15.908   6.821  19.213  0.00  0.00    +0.222 A 
ATOM     20  C   UNL     1      17.802   6.174  19.849  0.00  0.00    +0.248 A 
BRANCH  20  21
ATOM     21  C   UNL     1      18.951   6.147  20.707  0.00  0.00    +0.039 A 
ATOM     22  C   UNL     1      19.003   6.973  21.830  0.00  0.00    +0.015 A 
ATOM     23  C   UNL     1      20.016   5.293  20.420  0.00  0.00    +0.015 A 
ATOM     24  C   UNL     1      20.120   6.945  22.665  0.00  0.00    +0.024 A 
ATOM     25  C   UNL     1      21.133   5.266  21.255  0.00  0.00    +0.024 A 
ATOM     26  C   UNL     1      21.185   6.092  22.378  0.00  0.00    +0.029 A 
BRANCH  26   7
ATOM      7  N   UNL     1      22.315   6.066  23.221  0.00  0.00    -0.336 N 
ATOM     27  C   UNL     1      23.600   5.625  22.715  0.00  0.00    +0.129 C 
ATOM     28  C   UNL     1      22.204   6.471  24.608  0.00  0.00    +0.129 C 
ENDBRANCH  26   7
ENDBRANCH  20  21
ENDBRANCH  10  17
TORSDOF 4
ENDMDL
MODEL 9
REMARK VINA RESULT:      -6.3     27.095     29.588
REMARK  Name = 51137550
REMARK  7 active torsions:
REMARK  status: ('A' for Active; 'I' for Inactive)
REMARK    1  A    between atoms: N_3  and  C_8
REMARK    2  A    between atoms: N_7  and  C_26
REMARK    3  A    between atoms: N_7  and  C_27
REMARK    4  A    between atoms: N_7  and  C_28
REMARK    5  A    between atoms: C_10  and  C_17
REMARK    6  A    between atoms: C_18  and  C_19
REMARK    7  A    between atoms: C_20  and  C_21
REMARK                            x       y       z     vdW  Elec       q    Type
REMARK                         _______ _______ _______ _____ _____    ______ ____
ROOT
ATOM      3  N   UNL     1      -5.008 -11.445  16.720  0.00  0.00    -0.299 NA
ATOM      9  C   UNL     1      -4.847 -11.574  15.270  0.00  0.00    +0.097 C 
ATOM     10  C   UNL     1      -3.322 -11.597  15.097  0.00  0.00    +0.092 C 
ATOM     11  C   UNL     1      -4.015 -10.449  17.122  0.00  0.00    +0.085 C 
ATOM     12  C   UNL     1      -2.779 -10.865  16.336  0.00  0.00    +0.029 C 
ENDROOT
BRANCH   3   8
ATOM      2  O   UNL     1     -10.872 -10.657  15.047  0.00  0.00    -0.276 OA
ATOM      4  N   UNL     1      -9.023 -10.173  16.367  0.00  0.00    -0.302 N 
ATOM      8  C   UNL     1      -6.366 -11.061  17.097  0.00  0.00    +0.060 C 
ATOM     13  C   UNL     1      -6.641  -9.613  16.677  0.00  0.00    +0.038 C 
ATOM     14  C   UNL     1      -7.381 -12.011  16.448  0.00  0.00    +0.038 C 
ATOM     15  C   UNL     1      -8.088  -9.219  16.976  0.00  0.00    +0.109 C 
ATOM     16  C   UNL     1      -8.812 -11.570  16.753  0.00  0.00    +0.109 C 
ATOM     18  C   UNL     1     -10.076  -9.839  15.517  0.00  0.00    +0.212 C 
ATOM     19  C   UNL     1     -10.225  -8.381  15.166  0.00  0.00    +0.109 C 
ENDBRANCH   3   8
BRANCH  10  17
ATOM      1  O   UNL     1      -3.710 -11.188  12.713  0.00  0.00    -0.420 OA
ATOM      5  N   UNL     1      -1.770 -10.375  13.475  0.00  0.00    -0.112 NA
ATOM      6  N   UNL     1      -1.859 -10.076  12.128  0.00  0.00    -0.107 NA
ATOM     17  C   UNL     1      -2.871 -11.023  13.772  0.00  0.00    +0.222 A 
ATOM     20  C   UNL     1      -3.007 -10.570  11.726  0.00  0.00    +0.248 A 
BRANCH  20  21
ATOM     21  C   UNL     1      -3.623 -10.557  10.431  0.00  0.00    +0.039 A 
ATOM     22  C   UNL     1      -3.874  -9.344   9.789  0.00  0.00    +0.015 A 
ATOM     23  C   UNL     1      -3.970 -11.758   9.812  0.00  0.00    +0.015 A 
ATOM     24  C   UNL     1      -4.471  -9.332   8.529  0.00  0.00    +0.024 A 
ATOM     25  C   UNL     1      -4.569 -11.746   8.552  0.00  0.00    +0.024 A 
ATOM     26  C   UNL     1      -4.820 -10.532   7.910  0.00  0.00    +0.029 A 
BRANCH  26   7
ATOM      7  N   UNL     1      -5.426 -10.520   6.637  0.00  0.00    -0.336 N 
ATOM     27  C   UNL     1      -4.960 -11.411   5.593  0.00  0.00    +0.129 C 
ATOM     28  C   UNL     1      -6.517  -9.609   6.353  0.00  0.00    +0.129 C 
ENDBRANCH  26   7
ENDBRANCH  20  21
ENDBRANCH  10  17
TORSDOF 4
ENDMDL
MODEL 10
REMARK VINA RESULT:      -6.3     26.762     29.777
REMARK  Name = 51137550
REMARK  7 active torsions:
REMARK  status: ('A' for Active; 'I' for Inactive)
REMARK    1  A    between atoms: N_3  and  C_8
REMARK    2  A    between atoms: N_7  and  C_26
REMARK    3  A    between atoms: N_7  and  C_27
REMARK    4  A    between atoms: N_7  and  C_28
REMARK    5  A    between atoms: C_10  and  C_17
REMARK    6  A    between atoms: C_18  and  C_19
REMARK    7  A    between atoms: C_20  and  C_21
REMARK                            x       y       z     vdW  Elec       q    Type
REMARK                         _______ _______ _______ _____ _____    ______ ____
ROOT
ATOM      3  N   UNL     1     -14.201   6.807  33.621  0.00  0.00    -0.299 NA
ATOM      9  C   UNL     1     -13.019   7.177  32.839  0.00  0.00    +0.097 C 
ATOM     10  C   UNL     1     -12.752   8.620  33.287  0.00  0.00    +0.092 C 
ATOM     11  C   UNL     1     -15.079   7.975  33.554  0.00  0.00    +0.085 C 
ATOM     12  C   UNL     1     -14.117   9.135  33.775  0.00  0.00    +0.029 C 
ENDROOT
BRANCH   3   8
ATOM      2  O   UNL     1     -13.874   1.810  30.053  0.00  0.00    -0.276 OA
ATOM      4  N   UNL     1     -15.050   3.494  31.137  0.00  0.00    -0.302 N 
ATOM      8  C   UNL     1     -14.846   5.596  33.117  0.00  0.00    +0.060 C 
ATOM     13  C   UNL     1     -15.444   5.856  31.730  0.00  0.00    +0.038 C 
ATOM     14  C   UNL     1     -13.832   4.446  33.058  0.00  0.00    +0.038 C 
ATOM     15  C   UNL     1     -16.041   4.578  31.141  0.00  0.00    +0.109 C 
ATOM     16  C   UNL     1     -14.462   3.196  32.445  0.00  0.00    +0.109 C 
ATOM     18  C   UNL     1     -14.684   2.741  30.023  0.00  0.00    +0.212 C 
ATOM     19  C   UNL     1     -15.332   3.111  28.713  0.00  0.00    +0.109 C 
ENDBRANCH   3   8
BRANCH  10  17
ATOM      1  O   UNL     1     -12.606   9.340  30.950  0.00  0.00    -0.420 OA
ATOM      5  N   UNL     1     -11.108  10.310  32.300  0.00  0.00    -0.112 NA
ATOM      6  N   UNL     1     -10.915  10.803  31.022  0.00  0.00    -0.107 NA
ATOM     17  C   UNL     1     -12.105   9.461  32.210  0.00  0.00    +0.222 A 
ATOM     20  C   UNL     1     -11.811  10.209  30.269  0.00  0.00    +0.248 A 
BRANCH  20  21
ATOM     21  C   UNL     1     -12.077  10.334  28.865  0.00  0.00    +0.039 A 
ATOM     22  C   UNL     1     -13.370  10.613  28.422  0.00  0.00    +0.015 A 
ATOM     23  C   UNL     1     -11.042  10.178  27.943  0.00  0.00    +0.015 A 
ATOM     24  C   UNL     1     -13.628  10.736  27.057  0.00  0.00    +0.024 A 
ATOM     25  C   UNL     1     -11.300  10.300  26.578  0.00  0.00    +0.024 A 
ATOM     26  C   UNL     1     -12.593  10.579  26.134  0.00  0.00    +0.029 A 
BRANCH  26   7
ATOM      7  N   UNL     1     -12.855  10.701  24.754  0.00  0.00    -0.336 N 
ATOM     27  C   UNL     1     -14.022  10.070  24.170  0.00  0.00    +0.129 C 
ATOM     28  C   UNL     1     -11.957  11.453  23.901  0.00  0.00    +0.129 C 
ENDBRANCH  26   7
ENDBRANCH  20  21
ENDBRANCH  10  17
TORSDOF 4
ENDMDL
