MODEL 1
REMARK VINA RESULT:      -6.7      0.000      0.000
REMARK  Name = 7135169
REMARK  9 active torsions:
REMARK  status: ('A' for Active; 'I' for Inactive)
REMARK    1  A    between atoms: O_2  and  C_15
REMARK    2  A    between atoms: O_3  and  C_20
REMARK    3  A    between atoms: C_10  and  C_18
REMARK    4  A    between atoms: C_12  and  C_20
REMARK    5  A    between atoms: C_12  and  C_21
REMARK    6  A    between atoms: C_13  and  C_23
REMARK    7  A    between atoms: C_23  and  C_24
REMARK    8  A    between atoms: C_30  and  C_31
REMARK    9  A    between atoms: C_32  and  C_33
REMARK                            x       y       z     vdW  Elec       q    Type
REMARK                         _______ _______ _______ _____ _____    ______ ____
ROOT
ATOM      1  S   UNL     1      17.973   6.242  20.093  0.00  0.00    -0.057 S 
ATOM      5  O   UNL     1      20.763   8.712  22.827  0.00  0.00    -0.266 OA
ATOM      7  N   UNL     1      18.171   8.383  21.531  0.00  0.00    -0.229 NA
ATOM      9  N   UNL     1      20.109   6.952  21.438  0.00  0.00    -0.258 N 
ATOM     10  C   UNL     1      14.695   9.424  20.227  0.00  0.00    -0.019 C 
ATOM     11  C   UNL     1      14.210   7.914  20.082  0.00  0.00    +0.011 C 
ATOM     12  C   UNL     1      12.792   7.677  19.433  0.00  0.00    +0.021 C 
ATOM     13  C   UNL     1      15.903   9.456  21.273  0.00  0.00    +0.054 C 
ATOM     14  C   UNL     1      13.536  10.286  20.792  0.00  0.00    +0.010 C 
ATOM     15  C   UNL     1      11.764   8.649  20.079  0.00  0.00    +0.123 C 
ATOM     16  C   UNL     1      15.330   7.012  19.488  0.00  0.00    +0.049 C 
ATOM     17  C   UNL     1      12.217  10.104  20.055  0.00  0.00    +0.032 C 
ATOM     18  C   UNL     1      15.161  10.037  18.883  0.00  0.00    +0.012 C 
ATOM     19  C   UNL     1      16.904   8.369  20.978  0.00  0.00    +0.058 A 
ATOM     21  C   UNL     1      12.324   6.229  19.754  0.00  0.00    +0.016 C 
ATOM     22  C   UNL     1      16.621   7.272  20.189  0.00  0.00    +0.015 A 
ATOM     25  C   UNL     1      18.825   7.315  21.128  0.00  0.00    +0.165 A 
ATOM     32  C   UNL     1      21.018   7.651  22.262  0.00  0.00    +0.285 C 
ATOM     39  H   UNL     1      20.424   6.085  21.011  0.00  0.00    +0.157 HD
ENDROOT
BRANCH  32  33
ATOM      6  O   UNL     1      22.449   5.690  22.243  0.00  0.00    -0.458 OA
ATOM     33  C   UNL     1      22.354   7.039  22.376  0.00  0.00    +0.189 A 
ATOM     34  C   UNL     1      23.595   7.590  22.601  0.00  0.00    +0.054 A 
ATOM     35  C   UNL     1      24.510   6.511  22.607  0.00  0.00    +0.042 A 
ATOM     36  C   UNL     1      23.764   5.376  22.385  0.00  0.00    +0.196 A 
ENDBRANCH  32  33
BRANCH  15   2
ATOM      2  O   UNL     1      10.499   8.550  19.425  0.00  0.00    -0.391 OA
ATOM     37  H   UNL     1      10.079   9.426  19.464  0.00  0.00    +0.210 HD
ENDBRANCH  15   2
BRANCH  12  20
ATOM     20  C   UNL     1      12.764   7.791  17.893  0.00  0.00    +0.165 C 
BRANCH  20   3
ATOM      3  O   UNL     1      11.731   6.958  17.417  0.00  0.00    -0.394 OA
ATOM     38  H   UNL     1      11.731   7.022  16.447  0.00  0.00    +0.209 HD
ENDBRANCH  20   3
ENDBRANCH  12  20
BRANCH  13  23
ATOM     23  C   UNL     1      16.585  10.823  21.419  0.00  0.00    +0.106 C 
BRANCH  23  24
ATOM      4  O   UNL     1      15.545  11.355  23.479  0.00  0.00    -0.276 OA
ATOM      8  N   UNL     1      15.294  12.901  21.763  0.00  0.00    -0.301 N 
ATOM     24  C   UNL     1      15.763  11.710  22.319  0.00  0.00    +0.216 C 
ATOM     26  C   UNL     1      15.537  13.350  20.388  0.00  0.00    +0.108 C 
ATOM     27  C   UNL     1      14.522  13.834  22.585  0.00  0.00    +0.108 C 
ATOM     28  C   UNL     1      14.219  13.672  19.683  0.00  0.00    +0.022 C 
ATOM     29  C   UNL     1      13.184  14.163  21.927  0.00  0.00    +0.022 C 
ATOM     30  C   UNL     1      13.383  14.674  20.491  0.00  0.00    -0.011 C 
ATOM     31  C   UNL     1      12.038  14.930  19.816  0.00  0.00    +0.007 C 
ENDBRANCH  23  24
ENDBRANCH  13  23
TORSDOF 6
ENDMDL
MODEL 2
REMARK VINA RESULT:      -6.6     16.719     21.021
REMARK  Name = 7135169
REMARK  9 active torsions:
REMARK  status: ('A' for Active; 'I' for Inactive)
REMARK    1  A    between atoms: O_2  and  C_15
REMARK    2  A    between atoms: O_3  and  C_20
REMARK    3  A    between atoms: C_10  and  C_18
REMARK    4  A    between atoms: C_12  and  C_20
REMARK    5  A    between atoms: C_12  and  C_21
REMARK    6  A    between atoms: C_13  and  C_23
REMARK    7  A    between atoms: C_23  and  C_24
REMARK    8  A    between atoms: C_30  and  C_31
REMARK    9  A    between atoms: C_32  and  C_33
REMARK                            x       y       z     vdW  Elec       q    Type
REMARK                         _______ _______ _______ _____ _____    ______ ____
ROOT
ATOM      1  S   UNL     1       9.419   7.915  -0.105  0.00  0.00    -0.057 S 
ATOM      5  O   UNL     1       7.983   8.716   4.215  0.00  0.00    -0.266 OA
ATOM      7  N   UNL     1       9.878   7.446   2.397  0.00  0.00    -0.229 NA
ATOM      9  N   UNL     1       7.982   8.842   1.883  0.00  0.00    -0.258 N 
ATOM     10  C   UNL     1      12.656   5.007   1.297  0.00  0.00    -0.019 C 
ATOM     11  C   UNL     1      12.977   5.844  -0.020  0.00  0.00    +0.011 C 
ATOM     12  C   UNL     1      14.034   5.231  -1.016  0.00  0.00    +0.021 C 
ATOM     13  C   UNL     1      11.932   5.983   2.336  0.00  0.00    +0.054 C 
ATOM     14  C   UNL     1      13.982   4.514   1.931  0.00  0.00    +0.010 C 
ATOM     15  C   UNL     1      15.275   4.746  -0.214  0.00  0.00    +0.123 C 
ATOM     16  C   UNL     1      11.674   6.336  -0.712  0.00  0.00    +0.049 C 
ATOM     17  C   UNL     1      14.917   3.826   0.947  0.00  0.00    +0.032 C 
ATOM     18  C   UNL     1      11.749   3.782   1.024  0.00  0.00    +0.012 C 
ATOM     19  C   UNL     1      10.842   6.779   1.665  0.00  0.00    +0.058 A 
ATOM     21  C   UNL     1      14.518   6.343  -1.989  0.00  0.00    +0.016 C 
ATOM     22  C   UNL     1      10.755   6.939   0.297  0.00  0.00    +0.015 A 
ATOM     25  C   UNL     1       9.071   8.073   1.569  0.00  0.00    +0.165 A 
ATOM     32  C   UNL     1       7.483   9.131   3.172  0.00  0.00    +0.285 C 
ATOM     39  H   UNL     1       7.488   9.231   1.084  0.00  0.00    +0.157 HD
ENDROOT
BRANCH  32  33
ATOM      6  O   UNL     1       5.454   9.929   2.105  0.00  0.00    -0.458 OA
ATOM     33  C   UNL     1       6.261   9.954   3.198  0.00  0.00    +0.189 A 
ATOM     34  C   UNL     1       5.741  10.788   4.162  0.00  0.00    +0.054 A 
ATOM     35  C   UNL     1       4.540  11.308   3.626  0.00  0.00    +0.042 A 
ATOM     36  C   UNL     1       4.409  10.756   2.373  0.00  0.00    +0.196 A 
ENDBRANCH  32  33
BRANCH  15   2
ATOM      2  O   UNL     1      16.195   4.069  -1.070  0.00  0.00    -0.391 OA
ATOM     37  H   UNL     1      17.078   4.143  -0.670  0.00  0.00    +0.210 HD
ENDBRANCH  15   2
BRANCH  12  20
ATOM     20  C   UNL     1      13.486   4.101  -1.917  0.00  0.00    +0.165 C 
BRANCH  20   3
ATOM      3  O   UNL     1      14.292   4.041  -3.072  0.00  0.00    -0.394 OA
ATOM     38  H   UNL     1      15.164   3.708  -2.800  0.00  0.00    +0.209 HD
ENDBRANCH  20   3
ENDBRANCH  12  20
BRANCH  13  23
ATOM     23  C   UNL     1      11.422   5.294   3.609  0.00  0.00    +0.106 C 
BRANCH  23  24
ATOM      4  O   UNL     1      12.593   6.953   4.828  0.00  0.00    -0.276 OA
ATOM      8  N   UNL     1      10.648   6.134   5.799  0.00  0.00    -0.301 N 
ATOM     24  C   UNL     1      11.614   6.204   4.795  0.00  0.00    +0.216 C 
ATOM     26  C   UNL     1       9.474   5.254   5.789  0.00  0.00    +0.108 C 
ATOM     27  C   UNL     1      10.744   7.014   6.965  0.00  0.00    +0.108 C 
ATOM     28  C   UNL     1       9.418   4.411   7.063  0.00  0.00    +0.022 C 
ATOM     29  C   UNL     1      10.717   6.208   8.261  0.00  0.00    +0.022 C 
ATOM     30  C   UNL     1       9.483   5.292   8.319  0.00  0.00    -0.011 C 
ATOM     31  C   UNL     1       9.502   4.436   9.583  0.00  0.00    +0.007 C 
ENDBRANCH  23  24
ENDBRANCH  13  23
TORSDOF 6
ENDMDL
MODEL 3
REMARK VINA RESULT:      -6.5     29.872     34.157
REMARK  Name = 7135169
REMARK  9 active torsions:
REMARK  status: ('A' for Active; 'I' for Inactive)
REMARK    1  A    between atoms: O_2  and  C_15
REMARK    2  A    between atoms: O_3  and  C_20
REMARK    3  A    between atoms: C_10  and  C_18
REMARK    4  A    between atoms: C_12  and  C_20
REMARK    5  A    between atoms: C_12  and  C_21
REMARK    6  A    between atoms: C_13  and  C_23
REMARK    7  A    between atoms: C_23  and  C_24
REMARK    8  A    between atoms: C_30  and  C_31
REMARK    9  A    between atoms: C_32  and  C_33
REMARK                            x       y       z     vdW  Elec       q    Type
REMARK                         _______ _______ _______ _____ _____    ______ ____
ROOT
ATOM      1  S   UNL     1     -12.758 -12.570  20.338  0.00  0.00    -0.057 S 
ATOM      5  O   UNL     1     -10.005 -14.799  23.308  0.00  0.00    -0.266 OA
ATOM      7  N   UNL     1     -10.302 -13.024  21.013  0.00  0.00    -0.229 NA
ATOM      9  N   UNL     1     -12.008 -14.100  22.332  0.00  0.00    -0.258 N 
ATOM     10  C   UNL     1      -9.214 -11.062  17.876  0.00  0.00    -0.019 C 
ATOM     11  C   UNL     1     -10.495 -10.116  17.928  0.00  0.00    +0.011 C 
ATOM     12  C   UNL     1     -10.681  -9.099  16.737  0.00  0.00    +0.021 C 
ATOM     13  C   UNL     1      -8.990 -11.668  19.338  0.00  0.00    +0.054 C 
ATOM     14  C   UNL     1      -7.967 -10.221  17.499  0.00  0.00    +0.010 C 
ATOM     15  C   UNL     1      -9.330  -8.379  16.462  0.00  0.00    +0.123 C 
ATOM     16  C   UNL     1     -11.782 -10.920  18.272  0.00  0.00    +0.049 C 
ATOM     17  C   UNL     1      -8.164  -9.342  16.272  0.00  0.00    +0.032 C 
ATOM     18  C   UNL     1      -9.362 -12.218  16.856  0.00  0.00    +0.012 C 
ATOM     19  C   UNL     1     -10.284 -12.183  19.916  0.00  0.00    +0.058 A 
ATOM     21  C   UNL     1     -11.708  -8.009  17.157  0.00  0.00    +0.016 C 
ATOM     22  C   UNL     1     -11.525 -11.820  19.434  0.00  0.00    +0.015 A 
ATOM     25  C   UNL     1     -11.551 -13.299  21.319  0.00  0.00    +0.165 A 
ATOM     32  C   UNL     1     -11.233 -14.810  23.275  0.00  0.00    +0.285 C 
ATOM     39  H   UNL     1     -13.020 -14.184  22.389  0.00  0.00    +0.157 HD
ENDROOT
BRANCH  32  33
ATOM      6  O   UNL     1     -13.078 -16.315  23.749  0.00  0.00    -0.458 OA
ATOM     33  C   UNL     1     -12.005 -15.631  24.225  0.00  0.00    +0.189 A 
ATOM     34  C   UNL     1     -11.847 -15.858  25.573  0.00  0.00    +0.054 A 
ATOM     35  C   UNL     1     -12.890 -16.737  25.949  0.00  0.00    +0.042 A 
ATOM     36  C   UNL     1     -13.611 -16.985  24.804  0.00  0.00    +0.196 A 
ENDBRANCH  32  33
BRANCH  15   2
ATOM      2  O   UNL     1      -9.431  -7.546  15.307  0.00  0.00    -0.391 OA
ATOM     37  H   UNL     1      -8.530  -7.275  15.060  0.00  0.00    +0.210 HD
ENDBRANCH  15   2
BRANCH  12  20
ATOM     20  C   UNL     1     -11.245  -9.724  15.442  0.00  0.00    +0.165 C 
BRANCH  20   3
ATOM      3  O   UNL     1     -12.053  -8.755  14.812  0.00  0.00    -0.394 OA
ATOM     38  H   UNL     1     -11.866  -8.797  13.859  0.00  0.00    +0.209 HD
ENDBRANCH  20   3
ENDBRANCH  12  20
BRANCH  13  23
ATOM     23  C   UNL     1      -7.877 -12.720  19.428  0.00  0.00    +0.106 C 
BRANCH  23  24
ATOM      4  O   UNL     1      -6.354 -11.278  20.530  0.00  0.00    -0.276 OA
ATOM      8  N   UNL     1      -5.584 -12.320  18.602  0.00  0.00    -0.301 N 
ATOM     24  C   UNL     1      -6.541 -12.038  19.577  0.00  0.00    +0.216 C 
ATOM     26  C   UNL     1      -5.775 -13.219  17.458  0.00  0.00    +0.108 C 
ATOM     27  C   UNL     1      -4.248 -11.728  18.699  0.00  0.00    +0.108 C 
ATOM     28  C   UNL     1      -5.445 -12.505  16.148  0.00  0.00    +0.022 C 
ATOM     29  C   UNL     1      -3.889 -10.982  17.416  0.00  0.00    +0.022 C 
ATOM     30  C   UNL     1      -4.038 -11.891  16.185  0.00  0.00    -0.011 C 
ATOM     31  C   UNL     1      -3.748 -11.117  14.901  0.00  0.00    +0.007 C 
ENDBRANCH  23  24
ENDBRANCH  13  23
TORSDOF 6
ENDMDL
MODEL 4
REMARK VINA RESULT:      -6.5      2.272      3.193
REMARK  Name = 7135169
REMARK  9 active torsions:
REMARK  status: ('A' for Active; 'I' for Inactive)
REMARK    1  A    between atoms: O_2  and  C_15
REMARK    2  A    between atoms: O_3  and  C_20
REMARK    3  A    between atoms: C_10  and  C_18
REMARK    4  A    between atoms: C_12  and  C_20
REMARK    5  A    between atoms: C_12  and  C_21
REMARK    6  A    between atoms: C_13  and  C_23
REMARK    7  A    between atoms: C_23  and  C_24
REMARK    8  A    between atoms: C_30  and  C_31
REMARK    9  A    between atoms: C_32  and  C_33
REMARK                            x       y       z     vdW  Elec       q    Type
REMARK                         _______ _______ _______ _____ _____    ______ ____
ROOT
ATOM      1  S   UNL     1      17.591   5.970  19.636  0.00  0.00    -0.057 S 
ATOM      5  O   UNL     1      21.211   8.209  21.437  0.00  0.00    -0.266 OA
ATOM      7  N   UNL     1      18.356   8.124  20.846  0.00  0.00    -0.229 NA
ATOM      9  N   UNL     1      20.057   6.486  20.363  0.00  0.00    -0.258 N 
ATOM     10  C   UNL     1      14.783   9.499  20.384  0.00  0.00    -0.019 C 
ATOM     11  C   UNL     1      14.131   8.047  20.455  0.00  0.00    +0.011 C 
ATOM     12  C   UNL     1      12.579   7.946  20.194  0.00  0.00    +0.021 C 
ATOM     13  C   UNL     1      16.213   9.432  21.094  0.00  0.00    +0.054 C 
ATOM     14  C   UNL     1      13.895  10.502  21.165  0.00  0.00    +0.010 C 
ATOM     15  C   UNL     1      11.848   9.047  21.014  0.00  0.00    +0.123 C 
ATOM     16  C   UNL     1      14.970   7.007  19.658  0.00  0.00    +0.049 C 
ATOM     17  C   UNL     1      12.421  10.442  20.790  0.00  0.00    +0.032 C 
ATOM     18  C   UNL     1      14.952  10.010  18.932  0.00  0.00    +0.012 C 
ATOM     19  C   UNL     1      16.995   8.232  20.626  0.00  0.00    +0.058 A 
ATOM     21  C   UNL     1      12.067   6.571  20.708  0.00  0.00    +0.016 C 
ATOM     22  C   UNL     1      16.415   7.147  20.001  0.00  0.00    +0.015 A 
ATOM     25  C   UNL     1      18.778   6.978  20.360  0.00  0.00    +0.165 A 
ATOM     32  C   UNL     1      21.209   7.107  20.892  0.00  0.00    +0.285 C 
ATOM     39  H   UNL     1      20.166   5.575  19.925  0.00  0.00    +0.157 HD
ENDROOT
BRANCH  32  33
ATOM      6  O   UNL     1      22.375   5.029  20.430  0.00  0.00    -0.458 OA
ATOM     33  C   UNL     1      22.463   6.355  20.708  0.00  0.00    +0.189 A 
ATOM     34  C   UNL     1      23.781   6.750  20.763  0.00  0.00    +0.054 A 
ATOM     35  C   UNL     1      24.550   5.591  20.503  0.00  0.00    +0.042 A 
ATOM     36  C   UNL     1      23.648   4.571  20.306  0.00  0.00    +0.196 A 
ENDBRANCH  32  33
BRANCH  15   2
ATOM      2  O   UNL     1      10.456   9.067  20.701  0.00  0.00    -0.391 OA
ATOM     37  H   UNL     1      10.334   9.657  19.938  0.00  0.00    +0.210 HD
ENDBRANCH  15   2
BRANCH  12  20
ATOM     20  C   UNL     1      12.174   8.010  18.705  0.00  0.00    +0.165 C 
BRANCH  20   3
ATOM      3  O   UNL     1      12.033   6.687  18.239  0.00  0.00    -0.394 OA
ATOM     38  H   UNL     1      11.346   6.261  18.779  0.00  0.00    +0.209 HD
ENDBRANCH  20   3
ENDBRANCH  12  20
BRANCH  13  23
ATOM     23  C   UNL     1      17.041  10.719  20.983  0.00  0.00    +0.106 C 
BRANCH  23  24
ATOM      4  O   UNL     1      16.387  11.429  23.146  0.00  0.00    -0.276 OA
ATOM      8  N   UNL     1      18.654  11.559  22.655  0.00  0.00    -0.301 N 
ATOM     24  C   UNL     1      17.322  11.266  22.359  0.00  0.00    +0.216 C 
ATOM     26  C   UNL     1      19.787  11.376  21.741  0.00  0.00    +0.108 C 
ATOM     27  C   UNL     1      19.013  12.057  23.984  0.00  0.00    +0.108 C 
ATOM     28  C   UNL     1      20.580  12.674  21.595  0.00  0.00    +0.022 C 
ATOM     29  C   UNL     1      19.787  13.369  23.884  0.00  0.00    +0.022 C 
ATOM     30  C   UNL     1      21.009  13.224  22.963  0.00  0.00    -0.011 C 
ATOM     31  C   UNL     1      21.735  14.558  22.810  0.00  0.00    +0.007 C 
ENDBRANCH  23  24
ENDBRANCH  13  23
TORSDOF 6
ENDMDL
MODEL 5
REMARK VINA RESULT:      -6.5     27.609     31.827
REMARK  Name = 7135169
REMARK  9 active torsions:
REMARK  status: ('A' for Active; 'I' for Inactive)
REMARK    1  A    between atoms: O_2  and  C_15
REMARK    2  A    between atoms: O_3  and  C_20
REMARK    3  A    between atoms: C_10  and  C_18
REMARK    4  A    between atoms: C_12  and  C_20
REMARK    5  A    between atoms: C_12  and  C_21
REMARK    6  A    between atoms: C_13  and  C_23
REMARK    7  A    between atoms: C_23  and  C_24
REMARK    8  A    between atoms: C_30  and  C_31
REMARK    9  A    between atoms: C_32  and  C_33
REMARK                            x       y       z     vdW  Elec       q    Type
REMARK                         _______ _______ _______ _____ _____    ______ ____
ROOT
ATOM      1  S   UNL     1      -4.013  -9.567   9.865  0.00  0.00    -0.057 S 
ATOM      5  O   UNL     1      -8.506  -8.906   9.004  0.00  0.00    -0.266 OA
ATOM      7  N   UNL     1      -6.395  -9.668  10.867  0.00  0.00    -0.229 NA
ATOM      9  N   UNL     1      -6.212  -8.974   8.566  0.00  0.00    -0.258 N 
ATOM     10  C   UNL     1      -4.851 -11.206  14.049  0.00  0.00    -0.019 C 
ATOM     11  C   UNL     1      -3.479 -10.420  13.857  0.00  0.00    +0.011 C 
ATOM     12  C   UNL     1      -2.317 -10.754  14.869  0.00  0.00    +0.021 C 
ATOM     13  C   UNL     1      -5.985 -10.422  13.239  0.00  0.00    +0.054 C 
ATOM     14  C   UNL     1      -5.238 -11.212  15.550  0.00  0.00    +0.010 C 
ATOM     15  C   UNL     1      -2.884 -10.764  16.318  0.00  0.00    +0.123 C 
ATOM     16  C   UNL     1      -3.031 -10.413  12.368  0.00  0.00    +0.049 C 
ATOM     17  C   UNL     1      -4.112 -11.653  16.475  0.00  0.00    +0.032 C 
ATOM     18  C   UNL     1      -4.780 -12.670  13.548  0.00  0.00    +0.012 C 
ATOM     19  C   UNL     1      -5.511 -10.060  11.855  0.00  0.00    +0.058 A 
ATOM     21  C   UNL     1      -1.246  -9.628  14.801  0.00  0.00    +0.016 C 
ATOM     22  C   UNL     1      -4.180 -10.045  11.490  0.00  0.00    +0.015 A 
ATOM     25  C   UNL     1      -5.719  -9.391   9.774  0.00  0.00    +0.165 A 
ATOM     32  C   UNL     1      -7.565  -8.751   8.228  0.00  0.00    +0.285 C 
ATOM     39  H   UNL     1      -5.511  -8.822   7.846  0.00  0.00    +0.157 HD
ENDROOT
BRANCH  32  33
ATOM      6  O   UNL     1      -6.948  -8.816   5.881  0.00  0.00    -0.458 OA
ATOM     33  C   UNL     1      -7.800  -8.348   6.830  0.00  0.00    +0.189 A 
ATOM     34  C   UNL     1      -8.765  -7.550   6.259  0.00  0.00    +0.054 A 
ATOM     35  C   UNL     1      -8.487  -7.526   4.872  0.00  0.00    +0.042 A 
ATOM     36  C   UNL     1      -7.372  -8.312   4.693  0.00  0.00    +0.196 A 
ENDBRANCH  32  33
BRANCH  15   2
ATOM      2  O   UNL     1      -1.887 -11.189  17.246  0.00  0.00    -0.391 OA
ATOM     37  H   UNL     1      -1.748 -12.142  17.112  0.00  0.00    +0.210 HD
ENDBRANCH  15   2
BRANCH  12  20
ATOM     20  C   UNL     1      -1.560 -12.066  14.567  0.00  0.00    +0.165 C 
BRANCH  20   3
ATOM      3  O   UNL     1      -0.302 -11.995  15.201  0.00  0.00    -0.394 OA
ATOM     38  H   UNL     1       0.241 -11.365  14.698  0.00  0.00    +0.209 HD
ENDBRANCH  20   3
ENDBRANCH  12  20
BRANCH  13  23
ATOM     23  C   UNL     1      -7.345 -11.131  13.199  0.00  0.00    +0.106 C 
BRANCH  23  24
ATOM      4  O   UNL     1      -8.623  -9.160  13.502  0.00  0.00    -0.276 OA
ATOM      8  N   UNL     1      -8.999 -10.880  15.017  0.00  0.00    -0.301 N 
ATOM     24  C   UNL     1      -8.378 -10.296  13.913  0.00  0.00    +0.216 C 
ATOM     26  C   UNL     1      -8.730 -12.229  15.529  0.00  0.00    +0.108 C 
ATOM     27  C   UNL     1     -10.041 -10.148  15.739  0.00  0.00    +0.108 C 
ATOM     28  C   UNL     1      -8.375 -12.183  17.015  0.00  0.00    +0.022 C 
ATOM     29  C   UNL     1      -9.712 -10.057  17.227  0.00  0.00    +0.022 C 
ATOM     30  C   UNL     1      -9.454 -11.450  17.824  0.00  0.00    -0.011 C 
ATOM     31  C   UNL     1      -9.054 -11.344  19.294  0.00  0.00    +0.007 C 
ENDBRANCH  23  24
ENDBRANCH  13  23
TORSDOF 6
ENDMDL
MODEL 6
REMARK VINA RESULT:      -6.5      1.692      2.100
REMARK  Name = 7135169
REMARK  9 active torsions:
REMARK  status: ('A' for Active; 'I' for Inactive)
REMARK    1  A    between atoms: O_2  and  C_15
REMARK    2  A    between atoms: O_3  and  C_20
REMARK    3  A    between atoms: C_10  and  C_18
REMARK    4  A    between atoms: C_12  and  C_20
REMARK    5  A    between atoms: C_12  and  C_21
REMARK    6  A    between atoms: C_13  and  C_23
REMARK    7  A    between atoms: C_23  and  C_24
REMARK    8  A    between atoms: C_30  and  C_31
REMARK    9  A    between atoms: C_32  and  C_33
REMARK                            x       y       z     vdW  Elec       q    Type
REMARK                         _______ _______ _______ _____ _____    ______ ____
ROOT
ATOM      1  S   UNL     1      17.612   5.939  19.630  0.00  0.00    -0.057 S 
ATOM      5  O   UNL     1      21.266   8.183  21.356  0.00  0.00    -0.266 OA
ATOM      7  N   UNL     1      18.405   8.108  20.797  0.00  0.00    -0.229 NA
ATOM      9  N   UNL     1      20.089   6.451  20.323  0.00  0.00    -0.258 N 
ATOM     10  C   UNL     1      14.835   9.498  20.351  0.00  0.00    -0.019 C 
ATOM     11  C   UNL     1      14.175   8.052  20.453  0.00  0.00    +0.011 C 
ATOM     12  C   UNL     1      12.620   7.957  20.210  0.00  0.00    +0.021 C 
ATOM     13  C   UNL     1      16.273   9.433  21.046  0.00  0.00    +0.054 C 
ATOM     14  C   UNL     1      13.962  10.519  21.125  0.00  0.00    +0.010 C 
ATOM     15  C   UNL     1      11.905   9.076  21.020  0.00  0.00    +0.123 C 
ATOM     16  C   UNL     1      14.999   6.993  19.664  0.00  0.00    +0.049 C 
ATOM     17  C   UNL     1      12.484  10.463  20.767  0.00  0.00    +0.032 C 
ATOM     18  C   UNL     1      14.992   9.984  18.889  0.00  0.00    +0.012 C 
ATOM     19  C   UNL     1      17.042   8.220  20.590  0.00  0.00    +0.058 A 
ATOM     21  C   UNL     1      12.104   6.593  20.752  0.00  0.00    +0.016 C 
ATOM     22  C   UNL     1      16.449   7.129  19.989  0.00  0.00    +0.015 A 
ATOM     25  C   UNL     1      18.814   6.951  20.325  0.00  0.00    +0.165 A 
ATOM     32  C   UNL     1      21.252   7.073  20.829  0.00  0.00    +0.285 C 
ATOM     39  H   UNL     1      20.189   5.532  19.899  0.00  0.00    +0.157 HD
ENDROOT
BRANCH  32  33
ATOM      6  O   UNL     1      22.403   4.966  20.470  0.00  0.00    -0.458 OA
ATOM     33  C   UNL     1      22.499   6.310  20.644  0.00  0.00    +0.189 A 
ATOM     34  C   UNL     1      23.816   6.708  20.608  0.00  0.00    +0.054 A 
ATOM     35  C   UNL     1      24.576   5.534  20.400  0.00  0.00    +0.042 A 
ATOM     36  C   UNL     1      23.671   4.501  20.322  0.00  0.00    +0.196 A 
ENDBRANCH  32  33
BRANCH  15   2
ATOM      2  O   UNL     1      10.509   9.099  20.722  0.00  0.00    -0.391 OA
ATOM     37  H   UNL     1      10.412   9.375  19.794  0.00  0.00    +0.210 HD
ENDBRANCH  15   2
BRANCH  12  20
ATOM     20  C   UNL     1      12.199   7.999  18.724  0.00  0.00    +0.165 C 
BRANCH  20   3
ATOM      3  O   UNL     1      12.039   6.669  18.283  0.00  0.00    -0.394 OA
ATOM     38  H   UNL     1      12.907   6.237  18.345  0.00  0.00    +0.209 HD
ENDBRANCH  20   3
ENDBRANCH  12  20
BRANCH  13  23
ATOM     23  C   UNL     1      17.107  10.713  20.905  0.00  0.00    +0.106 C 
BRANCH  23  24
ATOM      4  O   UNL     1      18.424  10.455  22.857  0.00  0.00    -0.276 OA
ATOM      8  N   UNL     1      17.081  12.348  22.757  0.00  0.00    -0.301 N 
ATOM     24  C   UNL     1      17.602  11.153  22.260  0.00  0.00    +0.216 C 
ATOM     26  C   UNL     1      16.103  13.199  22.071  0.00  0.00    +0.108 C 
ATOM     27  C   UNL     1      17.541  12.861  24.049  0.00  0.00    +0.108 C 
ATOM     28  C   UNL     1      14.893  13.465  22.967  0.00  0.00    +0.022 C 
ATOM     29  C   UNL     1      16.362  13.117  24.985  0.00  0.00    +0.022 C 
ATOM     30  C   UNL     1      15.320  14.036  24.327  0.00  0.00    -0.011 C 
ATOM     31  C   UNL     1      14.112  14.227  25.240  0.00  0.00    +0.007 C 
ENDBRANCH  23  24
ENDBRANCH  13  23
TORSDOF 6
ENDMDL
MODEL 7
REMARK VINA RESULT:      -6.5     30.505     34.205
REMARK  Name = 7135169
REMARK  9 active torsions:
REMARK  status: ('A' for Active; 'I' for Inactive)
REMARK    1  A    between atoms: O_2  and  C_15
REMARK    2  A    between atoms: O_3  and  C_20
REMARK    3  A    between atoms: C_10  and  C_18
REMARK    4  A    between atoms: C_12  and  C_20
REMARK    5  A    between atoms: C_12  and  C_21
REMARK    6  A    between atoms: C_13  and  C_23
REMARK    7  A    between atoms: C_23  and  C_24
REMARK    8  A    between atoms: C_30  and  C_31
REMARK    9  A    between atoms: C_32  and  C_33
REMARK                            x       y       z     vdW  Elec       q    Type
REMARK                         _______ _______ _______ _____ _____    ______ ____
ROOT
ATOM      1  S   UNL     1     -11.892 -10.402  19.103  0.00  0.00    -0.057 S 
ATOM      5  O   UNL     1      -8.067  -8.876  17.003  0.00  0.00    -0.266 OA
ATOM      7  N   UNL     1     -10.974  -8.853  17.246  0.00  0.00    -0.229 NA
ATOM      9  N   UNL     1      -9.353 -10.101  18.521  0.00  0.00    -0.258 N 
ATOM     10  C   UNL     1     -14.621  -8.170  16.194  0.00  0.00    -0.019 C 
ATOM     11  C   UNL     1     -15.165  -8.350  17.680  0.00  0.00    +0.011 C 
ATOM     12  C   UNL     1     -16.729  -8.296  17.880  0.00  0.00    +0.021 C 
ATOM     13  C   UNL     1     -13.063  -7.821  16.280  0.00  0.00    +0.054 C 
ATOM     14  C   UNL     1     -15.351  -6.981  15.518  0.00  0.00    +0.010 C 
ATOM     15  C   UNL     1     -17.303  -7.078  17.102  0.00  0.00    +0.123 C 
ATOM     16  C   UNL     1     -14.484  -9.553  18.393  0.00  0.00    +0.049 C 
ATOM     17  C   UNL     1     -16.867  -7.039  15.641  0.00  0.00    +0.032 C 
ATOM     18  C   UNL     1     -14.818  -9.435  15.324  0.00  0.00    +0.012 C 
ATOM     19  C   UNL     1     -12.352  -8.744  17.236  0.00  0.00    +0.058 A 
ATOM     21  C   UNL     1     -17.040  -8.069  19.387  0.00  0.00    +0.016 C 
ATOM     22  C   UNL     1     -13.007  -9.499  18.188  0.00  0.00    +0.015 A 
ATOM     25  C   UNL     1     -10.620  -9.704  18.185  0.00  0.00    +0.165 A 
ATOM     32  C   UNL     1      -8.141  -9.681  17.929  0.00  0.00    +0.285 C 
ATOM     39  H   UNL     1      -9.303 -10.778  19.278  0.00  0.00    +0.157 HD
ENDROOT
BRANCH  32  33
ATOM      6  O   UNL     1      -6.957 -10.745  19.762  0.00  0.00    -0.458 OA
ATOM     33  C   UNL     1      -6.928 -10.318  18.472  0.00  0.00    +0.189 A 
ATOM     34  C   UNL     1      -5.704 -10.585  17.903  0.00  0.00    +0.054 A 
ATOM     35  C   UNL     1      -4.931 -11.214  18.907  0.00  0.00    +0.042 A 
ATOM     36  C   UNL     1      -5.738 -11.289  20.019  0.00  0.00    +0.196 A 
ENDBRANCH  32  33
BRANCH  15   2
ATOM      2  O   UNL     1     -18.729  -7.073  17.156  0.00  0.00    -0.391 OA
ATOM     37  H   UNL     1     -19.058  -7.307  16.271  0.00  0.00    +0.210 HD
ENDBRANCH  15   2
BRANCH  12  20
ATOM     20  C   UNL     1     -17.471  -9.594  17.494  0.00  0.00    +0.165 C 
BRANCH  20   3
ATOM      3  O   UNL     1     -18.566  -9.742  18.368  0.00  0.00    -0.394 OA
ATOM     38  H   UNL     1     -18.544 -10.652  18.710  0.00  0.00    +0.209 HD
ENDBRANCH  20   3
ENDBRANCH  12  20
BRANCH  13  23
ATOM     23  C   UNL     1     -12.348  -7.758  14.924  0.00  0.00    +0.106 C 
BRANCH  23  24
ATOM      4  O   UNL     1     -11.390  -5.649  15.418  0.00  0.00    -0.276 OA
ATOM      8  N   UNL     1     -12.416  -5.859  13.345  0.00  0.00    -0.301 N 
ATOM     24  C   UNL     1     -12.004  -6.328  14.593  0.00  0.00    +0.216 C 
ATOM     26  C   UNL     1     -13.148  -6.642  12.342  0.00  0.00    +0.108 C 
ATOM     27  C   UNL     1     -12.086  -4.493  12.935  0.00  0.00    +0.108 C 
ATOM     28  C   UNL     1     -14.427  -5.920  11.920  0.00  0.00    +0.022 C 
ATOM     29  C   UNL     1     -13.343  -3.728  12.527  0.00  0.00    +0.022 C 
ATOM     30  C   UNL     1     -14.132  -4.488  11.450  0.00  0.00    -0.011 C 
ATOM     31  C   UNL     1     -15.423  -3.752  11.101  0.00  0.00    +0.007 C 
ENDBRANCH  23  24
ENDBRANCH  13  23
TORSDOF 6
ENDMDL
MODEL 8
REMARK VINA RESULT:      -6.4     16.868     20.553
REMARK  Name = 7135169
REMARK  9 active torsions:
REMARK  status: ('A' for Active; 'I' for Inactive)
REMARK    1  A    between atoms: O_2  and  C_15
REMARK    2  A    between atoms: O_3  and  C_20
REMARK    3  A    between atoms: C_10  and  C_18
REMARK    4  A    between atoms: C_12  and  C_20
REMARK    5  A    between atoms: C_12  and  C_21
REMARK    6  A    between atoms: C_13  and  C_23
REMARK    7  A    between atoms: C_23  and  C_24
REMARK    8  A    between atoms: C_30  and  C_31
REMARK    9  A    between atoms: C_32  and  C_33
REMARK                            x       y       z     vdW  Elec       q    Type
REMARK                         _______ _______ _______ _____ _____    ______ ____
ROOT
ATOM      1  S   UNL     1      11.162   4.463   2.045  0.00  0.00    -0.057 S 
ATOM      5  O   UNL     1       9.367   6.105  -1.885  0.00  0.00    -0.266 OA
ATOM      7  N   UNL     1       9.829   6.406   0.979  0.00  0.00    -0.229 NA
ATOM      9  N   UNL     1      10.511   4.621  -0.490  0.00  0.00    -0.258 N 
ATOM     10  C   UNL     1       9.335   7.840   4.525  0.00  0.00    -0.019 C 
ATOM     11  C   UNL     1      10.723   7.254   5.040  0.00  0.00    +0.011 C 
ATOM     12  C   UNL     1      11.051   7.433   6.572  0.00  0.00    +0.021 C 
ATOM     13  C   UNL     1       9.406   7.947   2.931  0.00  0.00    +0.054 C 
ATOM     14  C   UNL     1       9.131   9.265   5.101  0.00  0.00    +0.010 C 
ATOM     15  C   UNL     1      10.747   8.900   6.993  0.00  0.00    +0.123 C 
ATOM     16  C   UNL     1      10.962   5.810   4.513  0.00  0.00    +0.049 C 
ATOM     17  C   UNL     1       9.346   9.358   6.605  0.00  0.00    +0.032 C 
ATOM     18  C   UNL     1       8.125   6.962   4.928  0.00  0.00    +0.012 C 
ATOM     19  C   UNL     1       9.960   6.682   2.327  0.00  0.00    +0.058 A 
ATOM     21  C   UNL     1      12.570   7.193   6.798  0.00  0.00    +0.016 C 
ATOM     22  C   UNL     1      10.671   5.746   3.051  0.00  0.00    +0.015 A 
ATOM     25  C   UNL     1      10.417   5.260   0.719  0.00  0.00    +0.165 A 
ATOM     32  C   UNL     1       9.991   5.058  -1.728  0.00  0.00    +0.285 C 
ATOM     39  H   UNL     1      11.007   3.734  -0.469  0.00  0.00    +0.157 HD
ENDROOT
BRANCH  32  33
ATOM      6  O   UNL     1       9.181   3.322  -3.220  0.00  0.00    -0.458 OA
ATOM     33  C   UNL     1      10.208   4.134  -2.856  0.00  0.00    +0.189 A 
ATOM     34  C   UNL     1      11.303   3.917  -3.661  0.00  0.00    +0.054 A 
ATOM     35  C   UNL     1      10.924   2.907  -4.577  0.00  0.00    +0.042 A 
ATOM     36  C   UNL     1       9.624   2.579  -4.267  0.00  0.00    +0.196 A 
ENDBRANCH  32  33
BRANCH  15   2
ATOM      2  O   UNL     1      10.910   9.062   8.402  0.00  0.00    -0.391 OA
ATOM     37  H   UNL     1      10.337   9.796   8.682  0.00  0.00    +0.210 HD
ENDBRANCH  15   2
BRANCH  12  20
ATOM     20  C   UNL     1      10.330   6.434   7.503  0.00  0.00    +0.165 C 
BRANCH  20   3
ATOM      3  O   UNL     1      11.301   5.559   8.032  0.00  0.00    -0.394 OA
ATOM     38  H   UNL     1      12.172   5.895   7.761  0.00  0.00    +0.209 HD
ENDBRANCH  20   3
ENDBRANCH  12  20
BRANCH  13  23
ATOM     23  C   UNL     1       8.089   8.359   2.260  0.00  0.00    +0.106 C 
BRANCH  23  24
ATOM      4  O   UNL     1       9.064  10.298   1.311  0.00  0.00    -0.276 OA
ATOM      8  N   UNL     1       7.039  10.590   2.410  0.00  0.00    -0.301 N 
ATOM     24  C   UNL     1       8.116   9.834   1.947  0.00  0.00    +0.216 C 
ATOM     26  C   UNL     1       5.897  10.067   3.169  0.00  0.00    +0.108 C 
ATOM     27  C   UNL     1       6.972  12.022   2.112  0.00  0.00    +0.108 C 
ATOM     28  C   UNL     1       5.710  10.845   4.471  0.00  0.00    +0.022 C 
ATOM     29  C   UNL     1       6.811  12.838   3.392  0.00  0.00    +0.022 C 
ATOM     30  C   UNL     1       5.603  12.354   4.211  0.00  0.00    -0.011 C 
ATOM     31  C   UNL     1       5.492  13.126   5.523  0.00  0.00    +0.007 C 
ENDBRANCH  23  24
ENDBRANCH  13  23
TORSDOF 6
ENDMDL
MODEL 9
REMARK VINA RESULT:      -6.4     27.455     31.565
REMARK  Name = 7135169
REMARK  9 active torsions:
REMARK  status: ('A' for Active; 'I' for Inactive)
REMARK    1  A    between atoms: O_2  and  C_15
REMARK    2  A    between atoms: O_3  and  C_20
REMARK    3  A    between atoms: C_10  and  C_18
REMARK    4  A    between atoms: C_12  and  C_20
REMARK    5  A    between atoms: C_12  and  C_21
REMARK    6  A    between atoms: C_13  and  C_23
REMARK    7  A    between atoms: C_23  and  C_24
REMARK    8  A    between atoms: C_30  and  C_31
REMARK    9  A    between atoms: C_32  and  C_33
REMARK                            x       y       z     vdW  Elec       q    Type
REMARK                         _______ _______ _______ _____ _____    ______ ____
ROOT
ATOM      1  S   UNL     1     -12.862   5.038  22.366  0.00  0.00    -0.057 S 
ATOM      5  O   UNL     1     -16.858   5.192  24.684  0.00  0.00    -0.266 OA
ATOM      7  N   UNL     1     -14.987   6.439  22.826  0.00  0.00    -0.229 NA
ATOM      9  N   UNL     1     -14.814   4.322  23.964  0.00  0.00    -0.258 N 
ATOM     10  C   UNL     1     -13.413   9.273  20.738  0.00  0.00    -0.019 C 
ATOM     11  C   UNL     1     -12.622   8.253  19.805  0.00  0.00    +0.011 C 
ATOM     12  C   UNL     1     -11.633   8.873  18.744  0.00  0.00    +0.021 C 
ATOM     13  C   UNL     1     -14.640   8.489  21.397  0.00  0.00    +0.054 C 
ATOM     14  C   UNL     1     -13.980  10.430  19.874  0.00  0.00    +0.010 C 
ATOM     15  C   UNL     1     -12.342  10.043  18.004  0.00  0.00    +0.123 C 
ATOM     16  C   UNL     1     -12.006   7.087  20.631  0.00  0.00    +0.049 C 
ATOM     17  C   UNL     1     -12.953  11.070  18.950  0.00  0.00    +0.032 C 
ATOM     18  C   UNL     1     -12.527   9.876  21.855  0.00  0.00    +0.012 C 
ATOM     19  C   UNL     1     -14.199   7.155  21.943  0.00  0.00    +0.058 A 
ATOM     21  C   UNL     1     -11.290   7.793  17.679  0.00  0.00    +0.016 C 
ATOM     22  C   UNL     1     -13.023   6.536  21.573  0.00  0.00    +0.015 A 
ATOM     25  C   UNL     1     -14.379   5.311  23.122  0.00  0.00    +0.165 A 
ATOM     32  C   UNL     1     -16.017   4.297  24.704  0.00  0.00    +0.285 C 
ATOM     39  H   UNL     1     -14.181   3.531  24.058  0.00  0.00    +0.157 HD
ENDROOT
BRANCH  32  33
ATOM      6  O   UNL     1     -16.329   1.904  24.966  0.00  0.00    -0.458 OA
ATOM     33  C   UNL     1     -16.194   3.115  25.566  0.00  0.00    +0.189 A 
ATOM     34  C   UNL     1     -16.252   2.984  26.935  0.00  0.00    +0.054 A 
ATOM     35  C   UNL     1     -16.435   1.604  27.191  0.00  0.00    +0.042 A 
ATOM     36  C   UNL     1     -16.475   0.990  25.961  0.00  0.00    +0.196 A 
ENDBRANCH  32  33
BRANCH  15   2
ATOM      2  O   UNL     1     -11.432  10.708  17.128  0.00  0.00    -0.391 OA
ATOM     37  H   UNL     1     -10.531  10.475  17.409  0.00  0.00    +0.210 HD
ENDBRANCH  15   2
BRANCH  12  20
ATOM     20  C   UNL     1     -10.276   9.331  19.324  0.00  0.00    +0.165 C 
BRANCH  20   3
ATOM      3  O   UNL     1      -9.344   9.363  18.267  0.00  0.00    -0.394 OA
ATOM     38  H   UNL     1      -9.009   8.458  18.148  0.00  0.00    +0.209 HD
ENDBRANCH  20   3
ENDBRANCH  12  20
BRANCH  13  23
ATOM     23  C   UNL     1     -15.422   9.293  22.443  0.00  0.00    +0.106 C 
BRANCH  23  24
ATOM      4  O   UNL     1     -17.535   8.635  21.597  0.00  0.00    -0.276 OA
ATOM      8  N   UNL     1     -17.197  10.916  21.877  0.00  0.00    -0.301 N 
ATOM     24  C   UNL     1     -16.813   9.576  21.934  0.00  0.00    +0.216 C 
ATOM     26  C   UNL     1     -16.361  12.057  22.270  0.00  0.00    +0.108 C 
ATOM     27  C   UNL     1     -18.545  11.270  21.430  0.00  0.00    +0.108 C 
ATOM     28  C   UNL     1     -16.265  13.075  21.134  0.00  0.00    +0.022 C 
ATOM     29  C   UNL     1     -18.493  12.269  20.277  0.00  0.00    +0.022 C 
ATOM     30  C   UNL     1     -17.657  13.504  20.649  0.00  0.00    -0.011 C 
ATOM     31  C   UNL     1     -17.550  14.463  19.466  0.00  0.00    +0.007 C 
ENDBRANCH  23  24
ENDBRANCH  13  23
TORSDOF 6
ENDMDL
MODEL 10
REMARK VINA RESULT:      -6.3     29.847     32.487
REMARK  Name = 7135169
REMARK  9 active torsions:
REMARK  status: ('A' for Active; 'I' for Inactive)
REMARK    1  A    between atoms: O_2  and  C_15
REMARK    2  A    between atoms: O_3  and  C_20
REMARK    3  A    between atoms: C_10  and  C_18
REMARK    4  A    between atoms: C_12  and  C_20
REMARK    5  A    between atoms: C_12  and  C_21
REMARK    6  A    between atoms: C_13  and  C_23
REMARK    7  A    between atoms: C_23  and  C_24
REMARK    8  A    between atoms: C_30  and  C_31
REMARK    9  A    between atoms: C_32  and  C_33
REMARK                            x       y       z     vdW  Elec       q    Type
REMARK                         _______ _______ _______ _____ _____    ______ ____
ROOT
ATOM      1  S   UNL     1      -5.547 -11.017  12.595  0.00  0.00    -0.057 S 
ATOM      5  O   UNL     1      -8.650  -8.436  10.344  0.00  0.00    -0.266 OA
ATOM      7  N   UNL     1      -7.686  -9.585  12.845  0.00  0.00    -0.229 NA
ATOM      9  N   UNL     1      -6.770  -9.793  10.626  0.00  0.00    -0.258 N 
ATOM     10  C   UNL     1      -7.836 -10.687  16.538  0.00  0.00    -0.019 C 
ATOM     11  C   UNL     1      -6.252 -10.810  16.647  0.00  0.00    +0.011 C 
ATOM     12  C   UNL     1      -5.670 -11.378  17.998  0.00  0.00    +0.021 C 
ATOM     13  C   UNL     1      -8.171  -9.710  15.318  0.00  0.00    +0.054 C 
ATOM     14  C   UNL     1      -8.395 -10.053  17.839  0.00  0.00    +0.010 C 
ATOM     15  C   UNL     1      -6.368 -10.671  19.195  0.00  0.00    +0.123 C 
ATOM     16  C   UNL     1      -5.644 -11.470  15.376  0.00  0.00    +0.049 C 
ATOM     17  C   UNL     1      -7.890 -10.715  19.113  0.00  0.00    +0.032 C 
ATOM     18  C   UNL     1      -8.530 -12.052  16.311  0.00  0.00    +0.012 C 
ATOM     19  C   UNL     1      -7.358 -10.066  14.099  0.00  0.00    +0.058 A 
ATOM     21  C   UNL     1      -4.155 -11.037  18.081  0.00  0.00    +0.016 C 
ATOM     22  C   UNL     1      -6.218 -10.841  14.150  0.00  0.00    +0.015 A 
ATOM     25  C   UNL     1      -6.806 -10.028  11.975  0.00  0.00    +0.165 A 
ATOM     32  C   UNL     1      -7.678  -9.019   9.870  0.00  0.00    +0.285 C 
ATOM     39  H   UNL     1      -6.001 -10.240  10.133  0.00  0.00    +0.157 HD
ENDROOT
BRANCH  32  33
ATOM      6  O   UNL     1      -8.158  -8.145   7.656  0.00  0.00    -0.458 OA
ATOM     33  C   UNL     1      -7.411  -8.983   8.421  0.00  0.00    +0.189 A 
ATOM     34  C   UNL     1      -6.504  -9.666   7.642  0.00  0.00    +0.054 A 
ATOM     35  C   UNL     1      -6.708  -9.218   6.316  0.00  0.00    +0.042 A 
ATOM     36  C   UNL     1      -7.724  -8.294   6.377  0.00  0.00    +0.196 A 
ENDBRANCH  32  33
BRANCH  15   2
ATOM      2  O   UNL     1      -5.957 -11.253  20.431  0.00  0.00    -0.391 OA
ATOM     37  H   UNL     1      -6.151 -10.612  21.136  0.00  0.00    +0.210 HD
ENDBRANCH  15   2
BRANCH  12  20
ATOM     20  C   UNL     1      -5.758 -12.914  18.139  0.00  0.00    +0.165 C 
BRANCH  20   3
ATOM      3  O   UNL     1      -4.505 -13.379  18.589  0.00  0.00    -0.394 OA
ATOM     38  H   UNL     1      -4.663 -14.195  19.093  0.00  0.00    +0.209 HD
ENDBRANCH  20   3
ENDBRANCH  12  20
BRANCH  13  23
ATOM     23  C   UNL     1      -9.664  -9.598  14.983  0.00  0.00    +0.106 C 
BRANCH  23  24
ATOM      4  O   UNL     1      -9.451  -7.453  15.963  0.00  0.00    -0.276 OA
ATOM      8  N   UNL     1     -11.394  -7.849  14.753  0.00  0.00    -0.301 N 
ATOM     24  C   UNL     1     -10.152  -8.203  15.281  0.00  0.00    +0.216 C 
ATOM     26  C   UNL     1     -12.250  -8.719  13.939  0.00  0.00    +0.108 C 
ATOM     27  C   UNL     1     -11.918  -6.499  14.966  0.00  0.00    +0.108 C 
ATOM     28  C   UNL     1     -13.653  -8.812  14.539  0.00  0.00    +0.022 C 
ATOM     29  C   UNL     1     -13.311  -6.547  15.589  0.00  0.00    +0.022 C 
ATOM     30  C   UNL     1     -14.262  -7.419  14.754  0.00  0.00    -0.011 C 
ATOM     31  C   UNL     1     -15.632  -7.521  15.421  0.00  0.00    +0.007 C 
ENDBRANCH  23  24
ENDBRANCH  13  23
TORSDOF 6
ENDMDL
