MODEL 1
REMARK VINA RESULT:      -7.0      0.000      0.000
REMARK  Name = 11941843
REMARK  4 active torsions:
REMARK  status: ('A' for Active; 'I' for Inactive)
REMARK    1  A    between atoms: N_5  and  C_12
REMARK    2  A    between atoms: N_6  and  C_13
REMARK    3  A    between atoms: N_7  and  C_16
REMARK    4  A    between atoms: C_24  and  C_27
REMARK                            x       y       z     vdW  Elec       q    Type
REMARK                         _______ _______ _______ _____ _____    ______ ____
ROOT
ATOM      2  O   UNL     1      14.160  12.110  23.795  0.00  0.00    -0.370 OA
ATOM      3  O   UNL     1      11.228  13.173  23.900  0.00  0.00    -0.370 OA
ATOM     10  C   UNL     1      12.028  12.401  24.810  0.00  0.00    +0.171 C 
ATOM     11  C   UNL     1      12.886  11.469  23.978  0.00  0.00    +0.171 C 
ATOM     12  C   UNL     1      13.027  13.289  25.515  0.00  0.00    +0.131 C 
ATOM     13  C   UNL     1      12.155  11.372  22.660  0.00  0.00    +0.130 C 
ATOM     14  C   UNL     1      14.169  13.351  24.517  0.00  0.00    +0.185 C 
ATOM     15  C   UNL     1      11.471  12.723  22.559  0.00  0.00    +0.185 C 
ENDROOT
BRANCH  13   6
ATOM      6  N   UNL     1      11.170  10.314  22.716  0.00  0.00    -0.306 N 
ATOM      8  N   UNL     1      12.608   8.769  21.692  0.00  0.00    -0.214 NA
ATOM      9  N   UNL     1      10.380   8.134  22.358  0.00  0.00    -0.223 NA
ATOM     23  C   UNL     1      11.393   9.034  22.241  0.00  0.00    +0.216 A 
ATOM     24  C   UNL     1      12.791   7.511  21.240  0.00  0.00    +0.083 A 
ATOM     25  C   UNL     1      10.633   6.896  21.886  0.00  0.00    +0.116 A 
ATOM     26  C   UNL     1      11.831   6.523  21.312  0.00  0.00    +0.049 A 
ATOM     32  H   UNL     1      10.280  10.487  23.170  0.00  0.00    +0.149 HD
BRANCH  24  27
ATOM      1  S   UNL     1      15.487   7.524  21.618  0.00  0.00    -0.095 S 
ATOM     27  C   UNL     1      14.086   7.260  20.665  0.00  0.00    +0.038 A 
ATOM     28  C   UNL     1      14.407   6.817  19.396  0.00  0.00    +0.017 A 
ATOM     29  C   UNL     1      15.813   6.694  19.209  0.00  0.00    +0.008 A 
ATOM     30  C   UNL     1      16.519   7.046  20.339  0.00  0.00    +0.046 A 
ENDBRANCH  24  27
ENDBRANCH  13   6
BRANCH  12   5
ATOM      4  O   UNL     1      14.043  14.690  27.812  0.00  0.00    -0.253 OA
ATOM      5  N   UNL     1      13.455  12.706  26.764  0.00  0.00    -0.292 N 
ATOM      7  N   UNL     1      14.279  12.658  28.911  0.00  0.00    -0.297 N 
ATOM     19  C   UNL     1      13.936  13.464  27.829  0.00  0.00    +0.300 C 
ATOM     31  H   UNL     1      13.468  11.693  26.850  0.00  0.00    +0.151 HD
ATOM     33  H   UNL     1      14.220  11.652  28.791  0.00  0.00    +0.151 HD
BRANCH   7  16
ATOM     16  C   UNL     1      14.807  13.182  30.152  0.00  0.00    +0.074 C 
ATOM     17  C   UNL     1      13.757  13.117  31.266  0.00  0.00    +0.022 C 
ATOM     18  C   UNL     1      16.091  12.452  30.556  0.00  0.00    +0.022 C 
ATOM     20  C   UNL     1      13.497  11.689  31.744  0.00  0.00    +0.002 C 
ATOM     21  C   UNL     1      15.828  11.024  31.034  0.00  0.00    +0.002 C 
ATOM     22  C   UNL     1      14.789  10.987  32.150  0.00  0.00    +0.000 C 
ENDBRANCH   7  16
ENDBRANCH  12   5
TORSDOF 4
ENDMDL
MODEL 2
REMARK VINA RESULT:      -7.0     27.613     29.726
REMARK  Name = 11941843
REMARK  4 active torsions:
REMARK  status: ('A' for Active; 'I' for Inactive)
REMARK    1  A    between atoms: N_5  and  C_12
REMARK    2  A    between atoms: N_6  and  C_13
REMARK    3  A    between atoms: N_7  and  C_16
REMARK    4  A    between atoms: C_24  and  C_27
REMARK                            x       y       z     vdW  Elec       q    Type
REMARK                         _______ _______ _______ _____ _____    ______ ____
ROOT
ATOM      2  O   UNL     1     -17.181   4.903  25.485  0.00  0.00    -0.370 OA
ATOM      3  O   UNL     1     -16.297   2.127  24.367  0.00  0.00    -0.370 OA
ATOM     10  C   UNL     1     -15.734   3.019  25.342  0.00  0.00    +0.171 C 
ATOM     11  C   UNL     1     -15.977   4.434  24.853  0.00  0.00    +0.171 C 
ATOM     12  C   UNL     1     -16.510   2.939  26.637  0.00  0.00    +0.131 C 
ATOM     13  C   UNL     1     -16.193   4.279  23.366  0.00  0.00    +0.130 C 
ATOM     14  C   UNL     1     -17.663   3.894  26.385  0.00  0.00    +0.185 C 
ATOM     15  C   UNL     1     -16.799   2.892  23.261  0.00  0.00    +0.185 C 
ENDROOT
BRANCH  13   6
ATOM      6  N   UNL     1     -14.923   4.324  22.674  0.00  0.00    -0.306 N 
ATOM      8  N   UNL     1     -14.972   6.664  22.507  0.00  0.00    -0.214 NA
ATOM      9  N   UNL     1     -13.126   5.398  21.615  0.00  0.00    -0.223 NA
ATOM     23  C   UNL     1     -14.323   5.497  22.253  0.00  0.00    +0.216 A 
ATOM     24  C   UNL     1     -14.358   7.788  22.083  0.00  0.00    +0.083 A 
ATOM     25  C   UNL     1     -12.568   6.561  21.218  0.00  0.00    +0.116 A 
ATOM     26  C   UNL     1     -13.144   7.797  21.427  0.00  0.00    +0.049 A 
ATOM     32  H   UNL     1     -14.406   3.465  22.527  0.00  0.00    +0.149 HD
BRANCH  24  27
ATOM      1  S   UNL     1     -16.108   9.662  21.169  0.00  0.00    -0.095 S 
ATOM     27  C   UNL     1     -15.069   9.007  22.365  0.00  0.00    +0.038 A 
ATOM     28  C   UNL     1     -15.052   9.782  23.509  0.00  0.00    +0.017 A 
ATOM     29  C   UNL     1     -15.899  10.922  23.398  0.00  0.00    +0.008 A 
ATOM     30  C   UNL     1     -16.534  10.979  22.177  0.00  0.00    +0.046 A 
ENDBRANCH  24  27
ENDBRANCH  13   6
BRANCH  12   5
ATOM      4  O   UNL     1     -15.597   1.322  28.832  0.00  0.00    -0.253 OA
ATOM      5  N   UNL     1     -15.707   3.373  27.755  0.00  0.00    -0.292 N 
ATOM      7  N   UNL     1     -14.544   3.186  29.730  0.00  0.00    -0.297 N 
ATOM     19  C   UNL     1     -15.308   2.516  28.778  0.00  0.00    +0.300 C 
ATOM     31  H   UNL     1     -15.475   4.359  27.834  0.00  0.00    +0.151 HD
ATOM     33  H   UNL     1     -14.427   4.189  29.626  0.00  0.00    +0.151 HD
BRANCH   7  16
ATOM     16  C   UNL     1     -13.997   2.540  30.903  0.00  0.00    +0.074 C 
ATOM     17  C   UNL     1     -12.965   3.436  31.595  0.00  0.00    +0.022 C 
ATOM     18  C   UNL     1     -15.109   2.124  31.871  0.00  0.00    +0.022 C 
ATOM     20  C   UNL     1     -13.606   4.631  32.301  0.00  0.00    +0.002 C 
ATOM     21  C   UNL     1     -15.748   3.320  32.577  0.00  0.00    +0.002 C 
ATOM     22  C   UNL     1     -14.702   4.191  33.267  0.00  0.00    +0.000 C 
ENDBRANCH   7  16
ENDBRANCH  12   5
TORSDOF 4
ENDMDL
MODEL 3
REMARK VINA RESULT:      -6.8     28.426     33.089
REMARK  Name = 11941843
REMARK  4 active torsions:
REMARK  status: ('A' for Active; 'I' for Inactive)
REMARK    1  A    between atoms: N_5  and  C_12
REMARK    2  A    between atoms: N_6  and  C_13
REMARK    3  A    between atoms: N_7  and  C_16
REMARK    4  A    between atoms: C_24  and  C_27
REMARK                            x       y       z     vdW  Elec       q    Type
REMARK                         _______ _______ _______ _____ _____    ______ ____
ROOT
ATOM      2  O   UNL     1      -5.817 -11.834  10.144  0.00  0.00    -0.370 OA
ATOM      3  O   UNL     1      -4.500  -9.006  10.127  0.00  0.00    -0.370 OA
ATOM     10  C   UNL     1      -4.173 -10.247   9.482  0.00  0.00    +0.171 C 
ATOM     11  C   UNL     1      -4.496 -11.362  10.458  0.00  0.00    +0.171 C 
ATOM     12  C   UNL     1      -5.105 -10.496   8.318  0.00  0.00    +0.131 C 
ATOM     13  C   UNL     1      -4.489 -10.684  11.808  0.00  0.00    +0.130 C 
ATOM     14  C   UNL     1      -6.308 -11.130   8.994  0.00  0.00    +0.185 C 
ATOM     15  C   UNL     1      -4.925  -9.270  11.472  0.00  0.00    +0.185 C 
ENDROOT
BRANCH  13   6
ATOM      6  N   UNL     1      -3.149 -10.679  12.352  0.00  0.00    -0.306 N 
ATOM      8  N   UNL     1      -3.930 -10.610  14.564  0.00  0.00    -0.214 NA
ATOM      9  N   UNL     1      -1.568 -10.644  14.085  0.00  0.00    -0.223 NA
ATOM     23  C   UNL     1      -2.874 -10.643  13.708  0.00  0.00    +0.216 A 
ATOM     24  C   UNL     1      -3.625 -10.577  15.878  0.00  0.00    +0.083 A 
ATOM     25  C   UNL     1      -1.336 -10.610  15.414  0.00  0.00    +0.116 A 
ATOM     26  C   UNL     1      -2.335 -10.575  16.366  0.00  0.00    +0.049 A 
ATOM     32  H   UNL     1      -2.356 -10.756  11.725  0.00  0.00    +0.149 HD
BRANCH  24  27
ATOM      1  S   UNL     1      -6.209  -9.794  16.224  0.00  0.00    -0.095 S 
ATOM     27  C   UNL     1      -4.762 -10.542  16.759  0.00  0.00    +0.038 A 
ATOM     28  C   UNL     1      -4.888 -11.041  18.041  0.00  0.00    +0.017 A 
ATOM     29  C   UNL     1      -6.183 -10.806  18.585  0.00  0.00    +0.008 A 
ATOM     30  C   UNL     1      -7.002 -10.137  17.702  0.00  0.00    +0.046 A 
ENDBRANCH  24  27
ENDBRANCH  13   6
BRANCH  12   5
ATOM      4  O   UNL     1      -5.647 -10.600   5.496  0.00  0.00    -0.253 OA
ATOM      5  N   UNL     1      -4.512 -11.395   7.357  0.00  0.00    -0.292 N 
ATOM      7  N   UNL     1      -4.123 -12.341   5.297  0.00  0.00    -0.297 N 
ATOM     19  C   UNL     1      -4.835 -11.374   6.002  0.00  0.00    +0.300 C 
ATOM     31  H   UNL     1      -3.880 -12.117   7.690  0.00  0.00    +0.151 HD
ATOM     33  H   UNL     1      -3.533 -12.976   5.825  0.00  0.00    +0.151 HD
BRANCH   7  16
ATOM     16  C   UNL     1      -4.263 -12.544   3.871  0.00  0.00    +0.074 C 
ATOM     17  C   UNL     1      -2.905 -12.451   3.168  0.00  0.00    +0.022 C 
ATOM     18  C   UNL     1      -4.955 -13.876   3.569  0.00  0.00    +0.022 C 
ATOM     20  C   UNL     1      -2.011 -13.658   3.457  0.00  0.00    +0.002 C 
ATOM     21  C   UNL     1      -4.060 -15.080   3.859  0.00  0.00    +0.002 C 
ATOM     22  C   UNL     1      -2.719 -14.971   3.139  0.00  0.00    +0.000 C 
ENDBRANCH   7  16
ENDBRANCH  12   5
TORSDOF 4
ENDMDL
MODEL 4
REMARK VINA RESULT:      -6.6     15.647     21.268
REMARK  Name = 11941843
REMARK  4 active torsions:
REMARK  status: ('A' for Active; 'I' for Inactive)
REMARK    1  A    between atoms: N_5  and  C_12
REMARK    2  A    between atoms: N_6  and  C_13
REMARK    3  A    between atoms: N_7  and  C_16
REMARK    4  A    between atoms: C_24  and  C_27
REMARK                            x       y       z     vdW  Elec       q    Type
REMARK                         _______ _______ _______ _____ _____    ______ ____
ROOT
ATOM      2  O   UNL     1      11.621   7.258   7.281  0.00  0.00    -0.370 OA
ATOM      3  O   UNL     1       8.653   7.050   6.345  0.00  0.00    -0.370 OA
ATOM     10  C   UNL     1       9.895   7.220   5.645  0.00  0.00    +0.171 C 
ATOM     11  C   UNL     1      10.775   8.115   6.497  0.00  0.00    +0.171 C 
ATOM     12  C   UNL     1      10.650   5.912   5.585  0.00  0.00    +0.131 C 
ATOM     13  C   UNL     1       9.801   8.848   7.390  0.00  0.00    +0.130 C 
ATOM     14  C   UNL     1      11.370   5.891   6.922  0.00  0.00    +0.185 C 
ATOM     15  C   UNL     1       8.668   7.848   7.537  0.00  0.00    +0.185 C 
ENDROOT
BRANCH  13   6
ATOM      6  N   UNL     1       9.328  10.045   6.730  0.00  0.00    -0.306 N 
ATOM      8  N   UNL     1       9.307  11.271   8.730  0.00  0.00    -0.214 NA
ATOM      9  N   UNL     1       8.646  12.288   6.647  0.00  0.00    -0.223 NA
ATOM     23  C   UNL     1       9.087  11.237   7.389  0.00  0.00    +0.216 A 
ATOM     24  C   UNL     1       9.061  12.449   9.340  0.00  0.00    +0.083 A 
ATOM     25  C   UNL     1       8.421  13.435   7.322  0.00  0.00    +0.116 A 
ATOM     26  C   UNL     1       8.613  13.575   8.681  0.00  0.00    +0.049 A 
ATOM     32  H   UNL     1       9.211  10.045   5.723  0.00  0.00    +0.149 HD
BRANCH  24  27
ATOM      1  S   UNL     1      10.899  12.204  11.333  0.00  0.00    -0.095 S 
ATOM     27  C   UNL     1       9.303  12.455  10.759  0.00  0.00    +0.038 A 
ATOM     28  C   UNL     1       8.409  12.639  11.796  0.00  0.00    +0.017 A 
ATOM     29  C   UNL     1       9.043  12.574  13.069  0.00  0.00    +0.008 A 
ATOM     30  C   UNL     1      10.397  12.342  12.964  0.00  0.00    +0.046 A 
ENDBRANCH  24  27
ENDBRANCH  13   6
BRANCH  12   5
ATOM      4  O   UNL     1      10.502   4.284   3.219  0.00  0.00    -0.253 OA
ATOM      5  N   UNL     1      11.586   5.898   4.486  0.00  0.00    -0.292 N 
ATOM      7  N   UNL     1      12.472   5.254   2.464  0.00  0.00    -0.297 N 
ATOM     19  C   UNL     1      11.434   5.073   3.374  0.00  0.00    +0.300 C 
ATOM     31  H   UNL     1      12.425   6.466   4.554  0.00  0.00    +0.151 HD
ATOM     33  H   UNL     1      13.229   5.878   2.725  0.00  0.00    +0.151 HD
BRANCH   7  16
ATOM     16  C   UNL     1      12.568   4.525   1.218  0.00  0.00    +0.074 C 
ATOM     17  C   UNL     1      13.110   5.420   0.098  0.00  0.00    +0.022 C 
ATOM     18  C   UNL     1      13.420   3.264   1.383  0.00  0.00    +0.022 C 
ATOM     20  C   UNL     1      14.597   5.732   0.266  0.00  0.00    +0.002 C 
ATOM     21  C   UNL     1      14.907   3.578   1.549  0.00  0.00    +0.002 C 
ATOM     22  C   UNL     1      15.426   4.460   0.417  0.00  0.00    +0.000 C 
ENDBRANCH   7  16
ENDBRANCH  12   5
TORSDOF 4
ENDMDL
MODEL 5
REMARK VINA RESULT:      -6.5     29.498     31.195
REMARK  Name = 11941843
REMARK  4 active torsions:
REMARK  status: ('A' for Active; 'I' for Inactive)
REMARK    1  A    between atoms: N_5  and  C_12
REMARK    2  A    between atoms: N_6  and  C_13
REMARK    3  A    between atoms: N_7  and  C_16
REMARK    4  A    between atoms: C_24  and  C_27
REMARK                            x       y       z     vdW  Elec       q    Type
REMARK                         _______ _______ _______ _____ _____    ______ ____
ROOT
ATOM      2  O   UNL     1      -3.308 -13.150  13.137  0.00  0.00    -0.370 OA
ATOM      3  O   UNL     1      -2.128 -10.263  13.221  0.00  0.00    -0.370 OA
ATOM     10  C   UNL     1      -3.220 -10.900  13.904  0.00  0.00    +0.171 C 
ATOM     11  C   UNL     1      -3.877 -11.848  12.919  0.00  0.00    +0.171 C 
ATOM     12  C   UNL     1      -2.701 -11.806  14.996  0.00  0.00    +0.131 C 
ATOM     13  C   UNL     1      -3.467 -11.317  11.565  0.00  0.00    +0.130 C 
ATOM     14  C   UNL     1      -2.389 -13.084  14.238  0.00  0.00    +0.185 C 
ATOM     15  C   UNL     1      -2.115 -10.689  11.851  0.00  0.00    +0.185 C 
ENDROOT
BRANCH  13   6
ATOM      6  N   UNL     1      -4.405 -10.308  11.124  0.00  0.00    -0.306 N 
ATOM      8  N   UNL     1      -4.426 -11.132   8.927  0.00  0.00    -0.214 NA
ATOM      9  N   UNL     1      -5.758  -9.220   9.546  0.00  0.00    -0.223 NA
ATOM     23  C   UNL     1      -4.877 -10.218   9.827  0.00  0.00    +0.216 A 
ATOM     24  C   UNL     1      -4.908 -11.014   7.673  0.00  0.00    +0.083 A 
ATOM     25  C   UNL     1      -6.199  -9.162   8.272  0.00  0.00    +0.116 A 
ATOM     26  C   UNL     1      -5.805 -10.040   7.284  0.00  0.00    +0.049 A 
ATOM     32  H   UNL     1      -4.787  -9.655  11.799  0.00  0.00    +0.149 HD
BRANCH  24  27
ATOM      1  S   UNL     1      -3.967 -13.545   7.325  0.00  0.00    -0.095 S 
ATOM     27  C   UNL     1      -4.413 -11.995   6.743  0.00  0.00    +0.038 A 
ATOM     28  C   UNL     1      -4.226 -11.888   5.378  0.00  0.00    +0.017 A 
ATOM     29  C   UNL     1      -3.713 -13.089   4.810  0.00  0.00    +0.008 A 
ATOM     30  C   UNL     1      -3.526 -14.071   5.757  0.00  0.00    +0.046 A 
ENDBRANCH  24  27
ENDBRANCH  13   6
BRANCH  12   5
ATOM      4  O   UNL     1      -3.826  -9.842  16.769  0.00  0.00    -0.253 OA
ATOM      5  N   UNL     1      -3.703 -12.030  16.010  0.00  0.00    -0.292 N 
ATOM      7  N   UNL     1      -5.149 -11.498  17.717  0.00  0.00    -0.297 N 
ATOM     19  C   UNL     1      -4.193 -11.015  16.827  0.00  0.00    +0.300 C 
ATOM     31  H   UNL     1      -4.019 -12.981  16.180  0.00  0.00    +0.151 HD
ATOM     33  H   UNL     1      -5.324 -12.498  17.730  0.00  0.00    +0.151 HD
BRANCH   7  16
ATOM     16  C   UNL     1      -5.825 -10.660  18.684  0.00  0.00    +0.074 C 
ATOM     17  C   UNL     1      -7.054  -9.988  18.065  0.00  0.00    +0.022 C 
ATOM     18  C   UNL     1      -6.199 -11.458  19.937  0.00  0.00    +0.022 C 
ATOM     20  C   UNL     1      -8.197 -10.973  17.816  0.00  0.00    +0.002 C 
ATOM     21  C   UNL     1      -7.342 -12.441  19.686  0.00  0.00    +0.002 C 
ATOM     22  C   UNL     1      -8.559 -11.747  19.081  0.00  0.00    +0.000 C 
ENDBRANCH   7  16
ENDBRANCH  12   5
TORSDOF 4
ENDMDL
MODEL 6
REMARK VINA RESULT:      -6.3     29.713     32.077
REMARK  Name = 11941843
REMARK  4 active torsions:
REMARK  status: ('A' for Active; 'I' for Inactive)
REMARK    1  A    between atoms: N_5  and  C_12
REMARK    2  A    between atoms: N_6  and  C_13
REMARK    3  A    between atoms: N_7  and  C_16
REMARK    4  A    between atoms: C_24  and  C_27
REMARK                            x       y       z     vdW  Elec       q    Type
REMARK                         _______ _______ _______ _____ _____    ______ ____
ROOT
ATOM      2  O   UNL     1      -3.293 -11.856  10.832  0.00  0.00    -0.370 OA
ATOM      3  O   UNL     1      -4.078  -8.840  10.690  0.00  0.00    -0.370 OA
ATOM     10  C   UNL     1      -4.579  -9.952  11.449  0.00  0.00    +0.171 C 
ATOM     11  C   UNL     1      -4.526 -11.173  10.550  0.00  0.00    +0.171 C 
ATOM     12  C   UNL     1      -3.632 -10.286  12.579  0.00  0.00    +0.131 C 
ATOM     13  C   UNL     1      -4.500 -10.602   9.152  0.00  0.00    +0.130 C 
ATOM     14  C   UNL     1      -2.609 -11.175  11.894  0.00  0.00    +0.185 C 
ATOM     15  C   UNL     1      -3.796  -9.271   9.350  0.00  0.00    +0.185 C 
ENDROOT
BRANCH  13   6
ATOM      6  N   UNL     1      -5.850 -10.388   8.679  0.00  0.00    -0.306 N 
ATOM      8  N   UNL     1      -5.347 -11.205   6.538  0.00  0.00    -0.214 NA
ATOM      9  N   UNL     1      -7.566 -10.438   7.080  0.00  0.00    -0.223 NA
ATOM     23  C   UNL     1      -6.266 -10.686   7.394  0.00  0.00    +0.216 A 
ATOM     24  C   UNL     1      -5.787 -11.484   5.294  0.00  0.00    +0.083 A 
ATOM     25  C   UNL     1      -7.938 -10.741   5.819  0.00  0.00    +0.116 A 
ATOM     26  C   UNL     1      -7.084 -11.272   4.874  0.00  0.00    +0.049 A 
ATOM     32  H   UNL     1      -6.556 -10.051   9.324  0.00  0.00    +0.149 HD
BRANCH  24  27
ATOM      1  S   UNL     1      -5.283 -12.684   2.903  0.00  0.00    -0.095 S 
ATOM     27  C   UNL     1      -4.792 -12.032   4.411  0.00  0.00    +0.038 A 
ATOM     28  C   UNL     1      -3.425 -12.127   4.588  0.00  0.00    +0.017 A 
ATOM     29  C   UNL     1      -2.780 -12.739   3.476  0.00  0.00    +0.008 A 
ATOM     30  C   UNL     1      -3.673 -13.091   2.488  0.00  0.00    +0.046 A 
ENDBRANCH  24  27
ENDBRANCH  13   6
BRANCH  12   5
ATOM      4  O   UNL     1      -2.798 -10.488  15.324  0.00  0.00    -0.253 OA
ATOM      5  N   UNL     1      -4.312 -10.992  13.639  0.00  0.00    -0.292 N 
ATOM      7  N   UNL     1      -4.676 -11.780  15.769  0.00  0.00    -0.297 N 
ATOM     19  C   UNL     1      -3.834 -11.036  14.946  0.00  0.00    +0.300 C 
ATOM     31  H   UNL     1      -5.141 -11.533  13.411  0.00  0.00    +0.151 HD
ATOM     33  H   UNL     1      -5.465 -12.251  15.338  0.00  0.00    +0.151 HD
BRANCH   7  16
ATOM     16  C   UNL     1      -4.421 -11.993  17.177  0.00  0.00    +0.074 C 
ATOM     17  C   UNL     1      -4.874 -10.787  18.005  0.00  0.00    +0.022 C 
ATOM     18  C   UNL     1      -5.084 -13.284  17.667  0.00  0.00    +0.022 C 
ATOM     20  C   UNL     1      -6.396 -10.672  18.089  0.00  0.00    +0.002 C 
ATOM     21  C   UNL     1      -6.605 -13.166  17.751  0.00  0.00    +0.002 C 
ATOM     22  C   UNL     1      -7.031 -11.966  18.590  0.00  0.00    +0.000 C 
ENDBRANCH   7  16
ENDBRANCH  12   5
TORSDOF 4
ENDMDL
MODEL 7
REMARK VINA RESULT:      -6.3     29.569     32.458
REMARK  Name = 11941843
REMARK  4 active torsions:
REMARK  status: ('A' for Active; 'I' for Inactive)
REMARK    1  A    between atoms: N_5  and  C_12
REMARK    2  A    between atoms: N_6  and  C_13
REMARK    3  A    between atoms: N_7  and  C_16
REMARK    4  A    between atoms: C_24  and  C_27
REMARK                            x       y       z     vdW  Elec       q    Type
REMARK                         _______ _______ _______ _____ _____    ______ ____
ROOT
ATOM      2  O   UNL     1      -6.828 -10.018  17.119  0.00  0.00    -0.370 OA
ATOM      3  O   UNL     1      -4.735 -11.513  18.884  0.00  0.00    -0.370 OA
ATOM     10  C   UNL     1      -5.220 -11.717  17.548  0.00  0.00    +0.171 C 
ATOM     11  C   UNL     1      -6.699 -11.383  17.548  0.00  0.00    +0.171 C 
ATOM     12  C   UNL     1      -4.614 -10.701  16.607  0.00  0.00    +0.131 C 
ATOM     13  C   UNL     1      -7.108 -11.518  18.996  0.00  0.00    +0.130 C 
ATOM     14  C   UNL     1      -5.530  -9.503  16.789  0.00  0.00    +0.185 C 
ATOM     15  C   UNL     1      -5.833 -11.155  19.736  0.00  0.00    +0.185 C 
ENDROOT
BRANCH  13   6
ATOM      6  N   UNL     1      -7.480 -12.887  19.280  0.00  0.00    -0.306 N 
ATOM      8  N   UNL     1      -9.670 -12.286  19.869  0.00  0.00    -0.214 NA
ATOM      9  N   UNL     1      -8.957 -14.587  19.938  0.00  0.00    -0.223 NA
ATOM     23  C   UNL     1      -8.740 -13.264  19.708  0.00  0.00    +0.216 A 
ATOM     24  C   UNL     1     -10.888 -12.689  20.287  0.00  0.00    +0.083 A 
ATOM     25  C   UNL     1     -10.197 -14.920  20.354  0.00  0.00    +0.116 A 
ATOM     26  C   UNL     1     -11.212 -14.005  20.547  0.00  0.00    +0.049 A 
ATOM     32  H   UNL     1      -6.810 -13.629  19.114  0.00  0.00    +0.149 HD
BRANCH  24  27
ATOM      1  S   UNL     1     -13.505 -12.036  20.651  0.00  0.00    -0.095 S 
ATOM     27  C   UNL     1     -11.851 -11.632  20.447  0.00  0.00    +0.038 A 
ATOM     28  C   UNL     1     -11.652 -10.265  20.464  0.00  0.00    +0.017 A 
ATOM     29  C   UNL     1     -12.868  -9.547  20.646  0.00  0.00    +0.008 A 
ATOM     30  C   UNL     1     -13.953 -10.387  20.762  0.00  0.00    +0.046 A 
ENDBRANCH  24  27
ENDBRANCH  13   6
BRANCH  12   5
ATOM      4  O   UNL     1      -2.427 -10.668  14.740  0.00  0.00    -0.253 OA
ATOM      5  N   UNL     1      -4.635 -11.173  15.244  0.00  0.00    -0.292 N 
ATOM      7  N   UNL     1      -3.810 -11.637  13.147  0.00  0.00    -0.297 N 
ATOM     19  C   UNL     1      -3.522 -11.118  14.407  0.00  0.00    +0.300 C 
ATOM     31  H   UNL     1      -5.515 -11.500  14.854  0.00  0.00    +0.151 HD
ATOM     33  H   UNL     1      -4.768 -11.914  12.955  0.00  0.00    +0.151 HD
BRANCH   7  16
ATOM     16  C   UNL     1      -2.838 -11.704  12.078  0.00  0.00    +0.074 C 
ATOM     17  C   UNL     1      -3.333 -12.605  10.942  0.00  0.00    +0.022 C 
ATOM     18  C   UNL     1      -2.487 -10.304  11.564  0.00  0.00    +0.022 C 
ATOM     20  C   UNL     1      -4.470 -11.970  10.142  0.00  0.00    +0.002 C 
ATOM     21  C   UNL     1      -3.626  -9.672  10.764  0.00  0.00    +0.002 C 
ATOM     22  C   UNL     1      -4.092 -10.582   9.632  0.00  0.00    +0.000 C 
ENDBRANCH   7  16
ENDBRANCH  12   5
TORSDOF 4
ENDMDL
MODEL 8
REMARK VINA RESULT:      -6.3     17.795     21.912
REMARK  Name = 11941843
REMARK  4 active torsions:
REMARK  status: ('A' for Active; 'I' for Inactive)
REMARK    1  A    between atoms: N_5  and  C_12
REMARK    2  A    between atoms: N_6  and  C_13
REMARK    3  A    between atoms: N_7  and  C_16
REMARK    4  A    between atoms: C_24  and  C_27
REMARK                            x       y       z     vdW  Elec       q    Type
REMARK                         _______ _______ _______ _____ _____    ______ ____
ROOT
ATOM      2  O   UNL     1       9.315   7.179   3.500  0.00  0.00    -0.370 OA
ATOM      3  O   UNL     1      10.492   4.895   5.270  0.00  0.00    -0.370 OA
ATOM     10  C   UNL     1      10.687   6.318   5.243  0.00  0.00    +0.171 C 
ATOM     11  C   UNL     1      10.656   6.750   3.789  0.00  0.00    +0.171 C 
ATOM     12  C   UNL     1       9.501   7.023   5.861  0.00  0.00    +0.131 C 
ATOM     13  C   UNL     1      10.980   5.490   3.022  0.00  0.00    +0.130 C 
ATOM     14  C   UNL     1       8.528   7.103   4.698  0.00  0.00    +0.185 C 
ATOM     15  C   UNL     1      10.427   4.401   3.924  0.00  0.00    +0.185 C 
ENDROOT
BRANCH  13   6
ATOM      6  N   UNL     1      12.413   5.347   2.886  0.00  0.00    -0.306 N 
ATOM      8  N   UNL     1      12.229   4.464   0.720  0.00  0.00    -0.214 NA
ATOM      9  N   UNL     1      14.384   4.764   1.755  0.00  0.00    -0.223 NA
ATOM     23  C   UNL     1      13.026   4.843   1.753  0.00  0.00    +0.216 A 
ATOM     24  C   UNL     1      12.861   3.978  -0.369  0.00  0.00    +0.083 A 
ATOM     25  C   UNL     1      14.950   4.270   0.634  0.00  0.00    +0.116 A 
ATOM     26  C   UNL     1      14.231   3.857  -0.469  0.00  0.00    +0.049 A 
ATOM     32  H   UNL     1      13.019   5.675   3.629  0.00  0.00    +0.149 HD
BRANCH  24  27
ATOM      1  S   UNL     1      10.740   4.649  -1.937  0.00  0.00    -0.095 S 
ATOM     27  C   UNL     1      11.991   3.584  -1.445  0.00  0.00    +0.038 A 
ATOM     28  C   UNL     1      11.996   2.422  -2.192  0.00  0.00    +0.017 A 
ATOM     29  C   UNL     1      10.965   2.409  -3.174  0.00  0.00    +0.008 A 
ATOM     30  C   UNL     1      10.207   3.559  -3.145  0.00  0.00    +0.046 A 
ENDBRANCH  24  27
ENDBRANCH  13   6
BRANCH  12   5
ATOM      4  O   UNL     1       8.659   8.265   8.314  0.00  0.00    -0.253 OA
ATOM      5  N   UNL     1       9.863   8.338   6.332  0.00  0.00    -0.292 N 
ATOM      7  N   UNL     1       9.903  10.144   7.756  0.00  0.00    -0.297 N 
ATOM     19  C   UNL     1       9.406   8.861   7.540  0.00  0.00    +0.300 C 
ATOM     31  H   UNL     1      10.423   8.935   5.730  0.00  0.00    +0.151 HD
ATOM     33  H   UNL     1      10.453  10.571   7.017  0.00  0.00    +0.151 HD
BRANCH   7  16
ATOM     16  C   UNL     1       9.590  10.926   8.932  0.00  0.00    +0.074 C 
ATOM     17  C   UNL     1      10.853  11.228   9.744  0.00  0.00    +0.022 C 
ATOM     18  C   UNL     1       8.850  12.214   8.556  0.00  0.00    +0.022 C 
ATOM     20  C   UNL     1      11.761  12.249   9.057  0.00  0.00    +0.002 C 
ATOM     21  C   UNL     1       9.760  13.233   7.871  0.00  0.00    +0.002 C 
ATOM     22  C   UNL     1      11.004  13.526   8.703  0.00  0.00    +0.000 C 
ENDBRANCH   7  16
ENDBRANCH  12   5
TORSDOF 4
ENDMDL
MODEL 9
REMARK VINA RESULT:      -6.2     29.732     31.930
REMARK  Name = 11941843
REMARK  4 active torsions:
REMARK  status: ('A' for Active; 'I' for Inactive)
REMARK    1  A    between atoms: N_5  and  C_12
REMARK    2  A    between atoms: N_6  and  C_13
REMARK    3  A    between atoms: N_7  and  C_16
REMARK    4  A    between atoms: C_24  and  C_27
REMARK                            x       y       z     vdW  Elec       q    Type
REMARK                         _______ _______ _______ _____ _____    ______ ____
ROOT
ATOM      2  O   UNL     1      -5.223 -11.637  10.715  0.00  0.00    -0.370 OA
ATOM      3  O   UNL     1      -3.637  -8.950  10.714  0.00  0.00    -0.370 OA
ATOM     10  C   UNL     1      -4.561  -9.546  11.638  0.00  0.00    +0.171 C 
ATOM     11  C   UNL     1      -5.620 -10.259  10.820  0.00  0.00    +0.171 C 
ATOM     12  C   UNL     1      -3.888 -10.654  12.414  0.00  0.00    +0.131 C 
ATOM     13  C   UNL     1      -5.554  -9.591   9.466  0.00  0.00    +0.130 C 
ATOM     14  C   UNL     1      -4.020 -11.838  11.472  0.00  0.00    +0.185 C 
ATOM     15  C   UNL     1      -4.098  -9.173   9.373  0.00  0.00    +0.185 C 
ENDROOT
BRANCH  13   6
ATOM      6  N   UNL     1      -6.411  -8.426   9.447  0.00  0.00    -0.306 N 
ATOM      8  N   UNL     1      -7.072  -8.814   7.229  0.00  0.00    -0.214 NA
ATOM      9  N   UNL     1      -7.925  -6.927   8.463  0.00  0.00    -0.223 NA
ATOM     23  C   UNL     1      -7.158  -8.045   8.346  0.00  0.00    +0.216 A 
ATOM     24  C   UNL     1      -7.814  -8.413   6.176  0.00  0.00    +0.083 A 
ATOM     25  C   UNL     1      -8.641  -6.585   7.372  0.00  0.00    +0.116 A 
ATOM     26  C   UNL     1      -8.624  -7.297   6.189  0.00  0.00    +0.049 A 
ATOM     32  H   UNL     1      -6.523  -7.876  10.290  0.00  0.00    +0.149 HD
BRANCH  24  27
ATOM      1  S   UNL     1      -6.749 -10.670   5.088  0.00  0.00    -0.095 S 
ATOM     27  C   UNL     1      -7.702  -9.246   5.008  0.00  0.00    +0.038 A 
ATOM     28  C   UNL     1      -8.268  -9.079   3.759  0.00  0.00    +0.017 A 
ATOM     29  C   UNL     1      -7.915 -10.129   2.864  0.00  0.00    +0.008 A 
ATOM     30  C   UNL     1      -7.093 -11.062   3.457  0.00  0.00    +0.046 A 
ENDBRANCH  24  27
ENDBRANCH  13   6
BRANCH  12   5
ATOM      4  O   UNL     1      -2.744 -11.787  14.797  0.00  0.00    -0.253 OA
ATOM      5  N   UNL     1      -4.566 -10.903  13.664  0.00  0.00    -0.292 N 
ATOM      7  N   UNL     1      -4.807 -11.591  15.845  0.00  0.00    -0.297 N 
ATOM     19  C   UNL     1      -3.930 -11.458  14.772  0.00  0.00    +0.300 C 
ATOM     31  H   UNL     1      -5.565 -10.727  13.720  0.00  0.00    +0.151 HD
ATOM     33  H   UNL     1      -5.783 -11.356  15.693  0.00  0.00    +0.151 HD
BRANCH   7  16
ATOM     16  C   UNL     1      -4.414 -12.140  17.125  0.00  0.00    +0.074 C 
ATOM     17  C   UNL     1      -4.455 -11.068  18.219  0.00  0.00    +0.022 C 
ATOM     18  C   UNL     1      -5.281 -13.346  17.496  0.00  0.00    +0.022 C 
ATOM     20  C   UNL     1      -5.882 -10.672  18.597  0.00  0.00    +0.002 C 
ATOM     21  C   UNL     1      -6.707 -12.948  17.875  0.00  0.00    +0.002 C 
ATOM     22  C   UNL     1      -6.723 -11.889  18.974  0.00  0.00    +0.000 C 
ENDBRANCH   7  16
ENDBRANCH  12   5
TORSDOF 4
ENDMDL
MODEL 10
REMARK VINA RESULT:      -6.2     18.550     21.222
REMARK  Name = 11941843
REMARK  4 active torsions:
REMARK  status: ('A' for Active; 'I' for Inactive)
REMARK    1  A    between atoms: N_5  and  C_12
REMARK    2  A    between atoms: N_6  and  C_13
REMARK    3  A    between atoms: N_7  and  C_16
REMARK    4  A    between atoms: C_24  and  C_27
REMARK                            x       y       z     vdW  Elec       q    Type
REMARK                         _______ _______ _______ _____ _____    ______ ____
ROOT
ATOM      2  O   UNL     1      14.748   9.262   3.927  0.00  0.00    -0.370 OA
ATOM      3  O   UNL     1      15.664   7.101   1.873  0.00  0.00    -0.370 OA
ATOM     10  C   UNL     1      15.134   7.028   3.206  0.00  0.00    +0.171 C 
ATOM     11  C   UNL     1      15.710   8.196   3.984  0.00  0.00    +0.171 C 
ATOM     12  C   UNL     1      13.646   7.291   3.195  0.00  0.00    +0.131 C 
ATOM     13  C   UNL     1      16.955   8.573   3.218  0.00  0.00    +0.130 C 
ATOM     14  C   UNL     1      13.584   8.808   3.220  0.00  0.00    +0.185 C 
ATOM     15  C   UNL     1      16.598   8.187   1.793  0.00  0.00    +0.185 C 
ENDROOT
BRANCH  13   6
ATOM      6  N   UNL     1      18.079   7.789   3.682  0.00  0.00    -0.306 N 
ATOM      8  N   UNL     1      18.639   9.365   5.327  0.00  0.00    -0.214 NA
ATOM      9  N   UNL     1      19.928   7.346   5.057  0.00  0.00    -0.223 NA
ATOM     23  C   UNL     1      18.906   8.179   4.720  0.00  0.00    +0.216 A 
ATOM     24  C   UNL     1      19.466   9.714   6.335  0.00  0.00    +0.083 A 
ATOM     25  C   UNL     1      20.714   7.756   6.074  0.00  0.00    +0.116 A 
ATOM     26  C   UNL     1      20.529   8.942   6.756  0.00  0.00    +0.049 A 
ATOM     32  H   UNL     1      18.255   6.880   3.271  0.00  0.00    +0.149 HD
BRANCH  24  27
ATOM      1  S   UNL     1      18.239  12.131   6.089  0.00  0.00    -0.095 S 
ATOM     27  C   UNL     1      19.158  10.973   6.958  0.00  0.00    +0.038 A 
ATOM     28  C   UNL     1      19.503  11.433   8.215  0.00  0.00    +0.017 A 
ATOM     29  C   UNL     1      19.006  12.744   8.463  0.00  0.00    +0.008 A 
ATOM     30  C   UNL     1      18.300  13.242   7.390  0.00  0.00    +0.046 A 
ENDBRANCH  24  27
ENDBRANCH  13   6
BRANCH  12   5
ATOM      4  O   UNL     1      10.945   6.321   3.372  0.00  0.00    -0.253 OA
ATOM      5  N   UNL     1      13.006   6.722   4.357  0.00  0.00    -0.292 N 
ATOM      7  N   UNL     1      11.318   5.773   5.597  0.00  0.00    -0.297 N 
ATOM     19  C   UNL     1      11.687   6.276   4.352  0.00  0.00    +0.300 C 
ATOM     31  H   UNL     1      13.518   6.705   5.236  0.00  0.00    +0.151 HD
ATOM     33  H   UNL     1      11.986   5.851   6.358  0.00  0.00    +0.151 HD
BRANCH   7  16
ATOM     16  C   UNL     1      10.002   5.242   5.878  0.00  0.00    +0.074 C 
ATOM     17  C   UNL     1       9.987   4.486   7.211  0.00  0.00    +0.022 C 
ATOM     18  C   UNL     1       8.944   6.350   5.856  0.00  0.00    +0.022 C 
ATOM     20  C   UNL     1      10.089   5.422   8.416  0.00  0.00    +0.002 C 
ATOM     21  C   UNL     1       9.048   7.283   7.062  0.00  0.00    +0.002 C 
ATOM     22  C   UNL     1       9.019   6.509   8.376  0.00  0.00    +0.000 C 
ENDBRANCH   7  16
ENDBRANCH  12   5
TORSDOF 4
ENDMDL
