REMARK  Name = 25388930
REMARK  9 active torsions:
REMARK  status: ('A' for Active; 'I' for Inactive)
REMARK    1  A    between atoms: S_1  and  N_7
REMARK    2  A    between atoms: S_1  and  C_22
REMARK    3  A    between atoms: O_4  and  C_23
REMARK    4  A    between atoms: O_4  and  C_28
REMARK    5  A    between atoms: N_6  and  C_20
REMARK    6  A    between atoms: N_7  and  C_16
REMARK    7  A    between atoms: C_10  and  C_17
REMARK    8  A    between atoms: C_11  and  C_16
REMARK    9  A    between atoms: C_19  and  C_21
REMARK                            x       y       z     vdW  Elec       q    Type
REMARK                         _______ _______ _______ _____ _____    ______ ____
ROOT
ATOM      5  N   UNL     1      -3.539  -1.414   0.669  0.00  0.00    -0.297 NA
ATOM      9  C   UNL     1      -2.046  -1.946  -1.398  0.00  0.00    +0.002 C 
ATOM     10  C   UNL     1      -1.304  -2.311  -0.082  0.00  0.00    +0.055 C 
ATOM     11  C   UNL     1      -3.490  -0.237  -0.239  0.00  0.00    +0.072 C 
ATOM     12  C   UNL     1      -2.450  -0.457  -1.359  0.00  0.00    +0.024 C 
ATOM     13  C   UNL     1      -3.352  -2.770  -1.416  0.00  0.00    +0.019 C 
ATOM     14  C   UNL     1      -2.167  -1.782   1.099  0.00  0.00    +0.094 C 
ATOM     15  C   UNL     1      -4.106  -2.552  -0.093  0.00  0.00    +0.085 C 
ENDROOT
BRANCH  10  17
ATOM      6  N   UNL     1       1.060  -2.633   0.784  0.00  0.00    -0.270 N 
ATOM      8  N   UNL     1       2.301  -2.118   0.774  0.00  0.00    -0.171 NA
ATOM     17  C   UNL     1       0.160  -1.917   0.050  0.00  0.00    +0.044 A 
ATOM     18  C   UNL     1       0.862  -0.859  -0.475  0.00  0.00    +0.053 A 
ATOM     19  C   UNL     1       2.174  -1.035   0.004  0.00  0.00    +0.096 A 
ATOM     20  C   UNL     1       0.802  -3.840   1.535  0.00  0.00    +0.172 C 
BRANCH  19  21
ATOM     21  C   UNL     1       3.307  -0.187  -0.260  0.00  0.00    +0.044 A 
ATOM     23  C   UNL     1       3.296   1.158   0.111  0.00  0.00    +0.129 A 
ATOM     24  C   UNL     1       4.426  -0.727  -0.894  0.00  0.00    +0.014 A 
ATOM     25  C   UNL     1       4.404   1.963  -0.153  0.00  0.00    +0.046 A 
ATOM     26  C   UNL     1       5.534   0.078  -1.158  0.00  0.00    +0.001 A 
ATOM     27  C   UNL     1       5.523   1.423  -0.788  0.00  0.00    +0.004 A 
BRANCH  23   4
ATOM      4  O   UNL     1       2.216   1.712   0.733  0.00  0.00    -0.494 OA
ATOM     28  C   UNL     1       2.197   1.667   2.157  0.00  0.00    +0.277 C 
ENDBRANCH  23   4
ENDBRANCH  19  21
ENDBRANCH  10  17
BRANCH  11  16
ATOM     16  C   UNL     1      -3.247   1.071   0.516  0.00  0.00    +0.124 C 
BRANCH  16   7
ATOM      7  N   UNL     1      -3.335   2.198  -0.428  0.00  0.00    -0.193 NA
ATOM     29  H   UNL     1      -4.280   2.342  -0.808  0.00  0.00    +0.148 HD
BRANCH   7   1
ATOM      1  S   UNL     1      -2.416   3.607  -0.134  0.00  0.00    +0.027 S 
ATOM      2  O   UNL     1      -2.873   4.680  -0.995  0.00  0.00    -0.158 OA
ATOM      3  O   UNL     1      -1.013   3.241  -0.086  0.00  0.00    -0.158 OA
ATOM     22  C   UNL     1      -2.923   3.986   1.528  0.00  0.00    +0.214 C 
ENDBRANCH   7   1
ENDBRANCH  16   7
ENDBRANCH  11  16
TORSDOF 6
