REMARK  Name = 44716821
REMARK  12 active torsions:
REMARK  status: ('A' for Active; 'I' for Inactive)
REMARK    1  A    between atoms: S_1  and  N_9
REMARK    2  A    between atoms: S_1  and  C_25
REMARK    3  A    between atoms: N_9  and  C_16
REMARK    4  A    between atoms: N_10  and  C_24
REMARK    5  A    between atoms: N_11  and  C_32
REMARK    6  A    between atoms: N_14  and  C_36
REMARK    7  A    between atoms: C_18  and  C_21
REMARK    8  A    between atoms: C_22  and  C_23
REMARK    9  A    between atoms: C_24  and  C_26
REMARK   10  A    between atoms: C_24  and  C_28
REMARK   11  A    between atoms: C_26  and  C_31
REMARK   12  A    between atoms: C_30  and  C_34
REMARK                            x       y       z     vdW  Elec       q    Type
REMARK                         _______ _______ _______ _____ _____    ______ ____
ROOT
ATOM      4  O   UNL     1      -1.375   4.171   2.087  0.00  0.00    -0.268 OA
ATOM      8  N   UNL     1      -0.003   2.563   1.071  0.00  0.00    -0.285 N 
ATOM     16  C   UNL     1       2.641   1.390   0.746  0.00  0.00    +0.080 C 
ATOM     17  C   UNL     1       1.659   1.436  -0.426  0.00  0.00    +0.052 C 
ATOM     18  C   UNL     1       0.200   1.551   0.019  0.00  0.00    +0.164 C 
ATOM     19  C   UNL     1       2.393   2.553   1.702  0.00  0.00    +0.039 C 
ATOM     20  C   UNL     1       0.950   2.553   2.187  0.00  0.00    +0.110 C 
ATOM     22  C   UNL     1      -1.114   3.415   1.152  0.00  0.00    +0.265 C 
ENDROOT
BRANCH  22  23
ATOM     11  N   UNL     1      -1.986   4.243  -1.059  0.00  0.00    -0.262 N 
ATOM     13  N   UNL     1      -2.978   4.056  -1.946  0.00  0.00    -0.176 NA
ATOM     23  C   UNL     1      -2.061   3.426   0.032  0.00  0.00    +0.123 A 
ATOM     27  C   UNL     1      -3.180   2.652  -0.155  0.00  0.00    +0.057 A 
ATOM     30  C   UNL     1      -3.704   3.083  -1.388  0.00  0.00    +0.061 A 
ATOM     32  C   UNL     1      -0.978   5.242  -1.327  0.00  0.00    +0.173 C 
ATOM     34  C   UNL     1      -4.909   2.585  -2.073  0.00  0.00    +0.067 C 
ENDBRANCH  22  23
BRANCH  18  21
ATOM      3  O   UNL     1      -0.285  -0.024   1.748  0.00  0.00    -0.274 OA
ATOM     10  N   UNL     1      -0.839  -0.557  -0.449  0.00  0.00    -0.302 N 
ATOM     21  C   UNL     1      -0.333   0.253   0.553  0.00  0.00    +0.234 C 
ATOM     40  H   UNL     1      -0.838  -0.217  -1.407  0.00  0.00    +0.150 HD
BRANCH  10  24
ATOM     24  C   UNL     1      -1.390  -1.870  -0.201  0.00  0.00    +0.163 C 
BRANCH  24  28
ATOM      7  O   UNL     1      -1.032  -2.301  -2.566  0.00  0.00    -0.274 OA
ATOM     15  N   UNL     1      -0.760  -4.032  -1.080  0.00  0.00    -0.328 N 
ATOM     28  C   UNL     1      -1.065  -2.729  -1.415  0.00  0.00    +0.231 C 
ATOM     41  H   UNL     1      -0.509  -4.706  -1.795  0.00  0.00    +0.145 HD
ATOM     42  H   UNL     1      -0.780  -4.370  -0.124  0.00  0.00    +0.145 HD
ENDBRANCH  24  28
BRANCH  24  26
ATOM     26  C   UNL     1      -2.905  -1.827   0.032  0.00  0.00    +0.074 C 
BRANCH  26  31
ATOM      2  S   UNL     1      -4.648  -3.998   0.048  0.00  0.00    -0.102 S 
ATOM     31  C   UNL     1      -3.417  -3.045   0.761  0.00  0.00    -0.008 A 
ATOM     35  C   UNL     1      -3.026  -3.539   1.986  0.00  0.00    +0.011 A 
ATOM     37  C   UNL     1      -3.746  -4.715   2.344  0.00  0.00    +0.008 A 
ATOM     38  C   UNL     1      -4.660  -5.076   1.379  0.00  0.00    +0.045 A 
ENDBRANCH  26  31
ENDBRANCH  24  26
ENDBRANCH  10  24
ENDBRANCH  18  21
BRANCH  16   9
ATOM      9  N   UNL     1       4.029   1.468   0.230  0.00  0.00    -0.185 NA
ATOM     39  H   UNL     1       4.162   2.041  -0.612  0.00  0.00    +0.148 HD
BRANCH   9   1
ATOM      1  S   UNL     1       5.116   0.199   0.533  0.00  0.00    +0.077 S 
ATOM      5  O   UNL     1       5.176  -0.056   1.960  0.00  0.00    -0.152 OA
ATOM      6  O   UNL     1       6.335   0.439  -0.216  0.00  0.00    -0.152 OA
BRANCH   1  25
ATOM     12  N   UNL     1       3.748  -2.192   0.499  0.00  0.00    -0.216 NA
ATOM     14  N   UNL     1       3.449  -2.556  -1.672  0.00  0.00    -0.338 N 
ATOM     25  C   UNL     1       4.301  -1.170  -0.232  0.00  0.00    +0.211 A 
ATOM     29  C   UNL     1       4.128  -1.374  -1.580  0.00  0.00    +0.135 A 
ATOM     33  C   UNL     1       3.243  -3.010  -0.399  0.00  0.00    +0.201 A 
ATOM     36  C   UNL     1       3.026  -3.206  -2.888  0.00  0.00    +0.150 C 
ENDBRANCH   1  25
ENDBRANCH   9   1
ENDBRANCH  16   9
TORSDOF 9
