REMARK  Name = 11886097
REMARK  8 active torsions:
REMARK  status: ('A' for Active; 'I' for Inactive)
REMARK    1  A    between atoms: O_3  and  C_14
REMARK    2  A    between atoms: O_3  and  C_19
REMARK    3  A    between atoms: N_5  and  C_13
REMARK    4  A    between atoms: N_9  and  C_22
REMARK    5  A    between atoms: C_17  and  C_18
REMARK    6  A    between atoms: C_18  and  C_20
REMARK    7  A    between atoms: C_18  and  C_21
REMARK    8  A    between atoms: C_25  and  C_28
REMARK                            x       y       z     vdW  Elec       q    Type
REMARK                         _______ _______ _______ _____ _____    ______ ____
ROOT
ATOM      1  O   UNL     1      -0.866  -0.245  -1.049  0.00  0.00    -0.368 OA
ATOM      2  O   UNL     1      -2.468  -2.477   0.367  0.00  0.00    -0.368 OA
ATOM     11  C   UNL     1      -2.514  -1.036   0.469  0.00  0.00    +0.177 C 
ATOM     12  C   UNL     1      -1.087  -0.542   0.338  0.00  0.00    +0.192 C 
ATOM     13  C   UNL     1      -3.226  -0.465  -0.743  0.00  0.00    +0.168 C 
ATOM     14  C   UNL     1      -0.280  -1.737   0.788  0.00  0.00    +0.235 C 
ATOM     15  C   UNL     1      -2.103  -0.349  -1.768  0.00  0.00    +0.190 C 
ATOM     16  C   UNL     1      -1.099  -2.891   0.260  0.00  0.00    +0.207 C 
ENDROOT
BRANCH  13   5
ATOM      5  N   UNL     1      -3.933   0.782  -0.442  0.00  0.00    -0.221 N 
ATOM      6  N   UNL     1      -3.309   1.961  -0.533  0.00  0.00    -0.043 NA
ATOM      7  N   UNL     1      -5.426   2.246   0.104  0.00  0.00    -0.113 NA
ATOM      8  N   UNL     1      -4.230   2.857  -0.198  0.00  0.00    -0.023 NA
ATOM     17  C   UNL     1      -5.218   0.960  -0.055  0.00  0.00    +0.154 A 
BRANCH  17  18
ATOM     18  C   UNL     1      -6.176  -0.141   0.139  0.00  0.00    +0.052 C 
ATOM     20  C   UNL     1      -6.925  -0.537  -1.159  0.00  0.00    +0.015 C 
ATOM     21  C   UNL     1      -7.212   0.136   1.256  0.00  0.00    +0.015 C 
ENDBRANCH  17  18
ENDBRANCH  13   5
BRANCH  14   3
ATOM      3  O   UNL     1       1.038  -1.748   0.287  0.00  0.00    -0.442 OA
BRANCH   3  19
ATOM      4  O   UNL     1       1.489   0.187   1.420  0.00  0.00    -0.226 OA
ATOM      9  N   UNL     1       3.108  -0.872   0.102  0.00  0.00    -0.251 N 
ATOM     19  C   UNL     1       1.862  -0.711   0.676  0.00  0.00    +0.405 C 
ATOM     29  H   UNL     1       3.227  -1.689  -0.492  0.00  0.00    +0.158 HD
BRANCH   9  22
ATOM     22  C   UNL     1       4.242  -0.039   0.238  0.00  0.00    +0.038 A 
ATOM     23  C   UNL     1       5.413  -0.372  -0.424  0.00  0.00    +0.042 A 
ATOM     24  C   UNL     1       4.161   1.095   1.030  0.00  0.00    +0.023 A 
ATOM     25  C   UNL     1       6.532   0.450  -0.290  0.00  0.00    +0.054 A 
ATOM     26  C   UNL     1       5.279   1.918   1.164  0.00  0.00    +0.003 A 
ATOM     27  C   UNL     1       6.465   1.595   0.504  0.00  0.00    +0.019 A 
BRANCH  25  28
ATOM     10  N   UNL     1       8.735  -0.148  -1.515  0.00  0.00    -0.191 NA
ATOM     28  C   UNL     1       7.747   0.120  -0.966  0.00  0.00    +0.099 C 
ENDBRANCH  25  28
ENDBRANCH   9  22
ENDBRANCH   3  19
ENDBRANCH  14   3
TORSDOF 6
