REMARK  Name = 45784181
REMARK  3 active torsions:
REMARK  status: ('A' for Active; 'I' for Inactive)
REMARK    1  A    between atoms: N_4  and  C_7
REMARK    2  A    between atoms: C_8  and  C_16
REMARK    3  A    between atoms: C_17  and  C_20
REMARK                            x       y       z     vdW  Elec       q    Type
REMARK                         _______ _______ _______ _____ _____    ______ ____
ROOT
ATOM      4  N   UNL     1       1.463   0.994  -0.158  0.00  0.00    -0.299 NA
ATOM      8  C   UNL     1      -0.805   1.219  -0.711  0.00  0.00    +0.090 C 
ATOM      9  C   UNL     1       0.310   0.177  -0.543  0.00  0.00    +0.097 C 
ATOM     10  C   UNL     1       0.938   1.953   0.814  0.00  0.00    +0.085 C 
ATOM     11  C   UNL     1      -0.372   2.399   0.176  0.00  0.00    +0.029 C 
ENDROOT
BRANCH   8  16
ATOM      1 CL   UNL     1      -7.439  -1.713   1.535  0.00  0.00    -0.083 Cl
ATOM      2  O   UNL     1      -3.077   0.708  -1.430  0.00  0.00    -0.439 OA
ATOM      6  N   UNL     1      -2.620   0.148   0.718  0.00  0.00    -0.213 NA
ATOM     16  C   UNL     1      -2.178   0.666  -0.406  0.00  0.00    +0.201 A 
ATOM     18  C   UNL     1      -3.921  -0.183   0.424  0.00  0.00    +0.111 A 
ATOM     19  C   UNL     1      -4.204   0.158  -0.890  0.00  0.00    +0.155 A 
ATOM     21  C   UNL     1      -4.927  -0.773   1.203  0.00  0.00    +0.051 A 
ATOM     22  C   UNL     1      -5.429  -0.041  -1.513  0.00  0.00    +0.050 A 
ATOM     23  C   UNL     1      -6.178  -0.989   0.608  0.00  0.00    +0.043 A 
ATOM     24  C   UNL     1      -6.422  -0.630  -0.723  0.00  0.00    +0.024 A 
ENDBRANCH   8  16
BRANCH   4   7
ATOM      3  O   UNL     1       7.518   0.008   0.254  0.00  0.00    -0.276 OA
ATOM      5  N   UNL     1       5.307  -0.705   0.289  0.00  0.00    -0.302 N 
ATOM      7  C   UNL     1       2.556   0.192   0.387  0.00  0.00    +0.060 C 
ATOM     12  C   UNL     1       3.032  -0.827  -0.656  0.00  0.00    +0.038 C 
ATOM     13  C   UNL     1       3.714   1.102   0.815  0.00  0.00    +0.038 C 
ATOM     14  C   UNL     1       4.239  -1.614  -0.143  0.00  0.00    +0.109 C 
ATOM     15  C   UNL     1       4.906   0.278   1.299  0.00  0.00    +0.109 C 
ATOM     17  C   UNL     1       6.629  -0.745  -0.153  0.00  0.00    +0.212 C 
ATOM     20  C   UNL     1       6.962  -1.783  -1.195  0.00  0.00    +0.109 C 
ENDBRANCH   4   7
TORSDOF 2
