REMARK  Name = 51136664
REMARK  9 active torsions:
REMARK  status: ('A' for Active; 'I' for Inactive)
REMARK    1  A    between atoms: O_3  and  C_18
REMARK    2  A    between atoms: O_5  and  C_27
REMARK    3  A    between atoms: O_5  and  C_31
REMARK    4  A    between atoms: C_8  and  C_13
REMARK    5  A    between atoms: C_9  and  C_14
REMARK    6  A    between atoms: C_13  and  C_15
REMARK    7  A    between atoms: C_14  and  C_18
REMARK    8  A    between atoms: C_16  and  C_19
REMARK    9  A    between atoms: C_19  and  C_25
REMARK                            x       y       z     vdW  Elec       q    Type
REMARK                         _______ _______ _______ _____ _____    ______ ____
ROOT
ATOM      2  O   UNL     1      -0.157  -3.586   0.663  0.00  0.00    -0.275 OA
ATOM      6  N   UNL     1      -1.510  -2.043  -0.426  0.00  0.00    -0.301 N 
ATOM      8  C   UNL     1      -2.389   0.262  -0.728  0.00  0.00    +0.016 C 
ATOM      9  C   UNL     1      -3.700  -0.186  -0.033  0.00  0.00    +0.006 C 
ATOM     10  C   UNL     1      -3.457  -1.365   0.926  0.00  0.00    +0.023 C 
ATOM     11  C   UNL     1      -1.706  -0.950  -1.387  0.00  0.00    +0.112 C 
ATOM     12  C   UNL     1      -2.734  -2.511   0.224  0.00  0.00    +0.108 C 
ATOM     16  C   UNL     1      -0.291  -2.651  -0.131  0.00  0.00    +0.220 C 
ENDROOT
BRANCH   8  13
ATOM     13  C   UNL     1      -1.407   0.986   0.202  0.00  0.00    +0.061 C 
BRANCH  13  15
ATOM      7  N   UNL     1      -0.851   2.270  -1.750  0.00  0.00    -0.287 NA
ATOM     15  C   UNL     1      -0.440   1.809  -0.615  0.00  0.00    +0.044 C 
ATOM     17  C   UNL     1       0.927   2.043  -0.083  0.00  0.00    -0.001 A 
ATOM     20  C   UNL     1       1.899   2.459  -1.002  0.00  0.00    -0.033 A 
ATOM     21  C   UNL     1       1.506   2.625  -2.440  0.00  0.00    +0.059 C 
ATOM     22  C   UNL     1       0.068   3.120  -2.515  0.00  0.00    +0.146 C 
ATOM     23  C   UNL     1       1.258   1.850   1.260  0.00  0.00    +0.013 A 
ATOM     24  C   UNL     1       3.214   2.657  -0.573  0.00  0.00    +0.050 A 
ATOM     26  C   UNL     1       2.571   2.066   1.682  0.00  0.00    +0.046 A 
ATOM     27  C   UNL     1       3.547   2.465   0.768  0.00  0.00    +0.120 A 
BRANCH  27   5
ATOM      5  O   UNL     1       4.827   2.666   1.186  0.00  0.00    -0.495 OA
ATOM     31  C   UNL     1       5.099   2.449   2.570  0.00  0.00    +0.277 C 
ENDBRANCH  27   5
ENDBRANCH  13  15
ENDBRANCH   8  13
BRANCH   9  14
ATOM     14  C   UNL     1      -4.419   0.955   0.686  0.00  0.00    +0.124 C 
BRANCH  14  18
ATOM      4  O   UNL     1      -6.471  -0.349   0.513  0.00  0.00    -0.251 OA
ATOM     18  C   UNL     1      -5.882   0.660   0.870  0.00  0.00    +0.305 C 
BRANCH  18   3
ATOM      3  O   UNL     1      -6.482   1.699   1.506  0.00  0.00    -0.481 OA
ATOM     32  H   UNL     1      -7.440   1.540   1.643  0.00  0.00    +0.295 HD
ENDBRANCH  18   3
ENDBRANCH  14  18
ENDBRANCH   9  14
BRANCH  16  19
ATOM     19  C   UNL     1       0.924  -2.108  -0.840  0.00  0.00    +0.138 C 
BRANCH  19  25
ATOM      1  S   UNL     1       3.454  -2.072   0.296  0.00  0.00    -0.101 S 
ATOM     25  C   UNL     1       2.148  -2.882  -0.458  0.00  0.00    -0.001 A 
ATOM     28  C   UNL     1       2.401  -4.225  -0.631  0.00  0.00    +0.011 A 
ATOM     29  C   UNL     1       3.685  -4.594  -0.136  0.00  0.00    +0.008 A 
ATOM     30  C   UNL     1       4.364  -3.520   0.395  0.00  0.00    +0.045 A 
ENDBRANCH  19  25
ENDBRANCH  16  19
TORSDOF 8
