REMARK  Name = 38345773
REMARK  7 active torsions:
REMARK  status: ('A' for Active; 'I' for Inactive)
REMARK    1  A    between atoms: O_3  and  C_22
REMARK    2  A    between atoms: O_3  and  C_23
REMARK    3  A    between atoms: N_4  and  C_14
REMARK    4  A    between atoms: N_4  and  C_19
REMARK    5  A    between atoms: N_5  and  C_16
REMARK    6  A    between atoms: N_9  and  C_28
REMARK    7  A    between atoms: C_15  and  C_19
REMARK                            x       y       z     vdW  Elec       q    Type
REMARK                         _______ _______ _______ _____ _____    ______ ____
ROOT
ATOM      5  N   UNL     1      -0.951   1.567  -0.761  0.00  0.00    -0.187 N 
ATOM      6  N   UNL     1      -1.324   1.655  -2.045  0.00  0.00    -0.041 NA
ATOM      7  N   UNL     1       0.790   0.962  -1.904  0.00  0.00    -0.071 NA
ATOM      8  N   UNL     1      -0.256   1.284  -2.740  0.00  0.00    -0.020 NA
ATOM     22  C   UNL     1       0.338   1.143  -0.685  0.00  0.00    +0.342 A 
ENDROOT
BRANCH   5  16
ATOM      1  O   UNL     1      -3.107   0.826   2.167  0.00  0.00    -0.370 OA
ATOM      2  O   UNL     1      -4.153   2.195  -0.412  0.00  0.00    -0.370 OA
ATOM     12  C   UNL     1      -4.007   0.817  -0.031  0.00  0.00    +0.168 C 
ATOM     13  C   UNL     1      -2.732   0.707   0.781  0.00  0.00    +0.175 C 
ATOM     14  C   UNL     1      -5.101   0.420   0.936  0.00  0.00    +0.111 C 
ATOM     16  C   UNL     1      -1.910   1.914   0.362  0.00  0.00    +0.171 C 
ATOM     20  C   UNL     1      -4.537   0.908   2.261  0.00  0.00    +0.181 C 
ATOM     21  C   UNL     1      -2.996   2.929   0.013  0.00  0.00    +0.190 C 
BRANCH  14   4
ATOM      4  N   UNL     1      -5.254  -1.032   0.971  0.00  0.00    -0.309 NA
ATOM     31  H   UNL     1      -5.618  -1.315   1.881  0.00  0.00    +0.122 HD
BRANCH   4  19
ATOM     19  C   UNL     1      -6.187  -1.477  -0.053  0.00  0.00    +0.084 C 
BRANCH  19  15
ATOM     15  C   UNL     1      -6.351  -2.962  -0.031  0.00  0.00    +0.003 C 
ATOM     17  C   UNL     1      -5.299  -3.826  -0.662  0.00  0.00    +0.005 C 
ATOM     18  C   UNL     1      -6.644  -3.686  -1.312  0.00  0.00    +0.005 C 
ENDBRANCH  19  15
ENDBRANCH   4  19
ENDBRANCH  14   4
ENDBRANCH   5  16
BRANCH  22   3
ATOM      3  O   UNL     1       1.003   0.953   0.439  0.00  0.00    -0.423 OA
BRANCH   3  23
ATOM     23  C   UNL     1       2.335   0.511   0.381  0.00  0.00    +0.132 A 
ATOM     24  C   UNL     1       2.617  -0.855   0.382  0.00  0.00    +0.048 A 
ATOM     25  C   UNL     1       3.376   1.439   0.321  0.00  0.00    +0.048 A 
ATOM     26  C   UNL     1       3.940  -1.294   0.323  0.00  0.00    +0.031 A 
ATOM     27  C   UNL     1       4.698   1.000   0.263  0.00  0.00    +0.031 A 
ATOM     28  C   UNL     1       4.981  -0.366   0.264  0.00  0.00    +0.067 A 
BRANCH  28   9
ATOM      9  N   UNL     1       6.292  -0.801   0.204  0.00  0.00    -0.220 N 
ATOM     10  N   UNL     1       7.320   0.058   0.143  0.00  0.00    -0.154 NA
ATOM     11  N   UNL     1       8.038  -2.114   0.130  0.00  0.00    -0.222 NA
ATOM     29  C   UNL     1       6.727  -2.090   0.196  0.00  0.00    +0.225 A 
ATOM     30  C   UNL     1       8.354  -0.786   0.100  0.00  0.00    +0.245 A 
ENDBRANCH  28   9
ENDBRANCH   3  23
ENDBRANCH  22   3
TORSDOF 7
