REMARK  Name = 28990599
REMARK  3 active torsions:
REMARK  status: ('A' for Active; 'I' for Inactive)
REMARK    1  A    between atoms: N_3  and  C_13
REMARK    2  A    between atoms: C_13  and  C_18
REMARK    3  A    between atoms: C_16  and  C_19
REMARK                            x       y       z     vdW  Elec       q    Type
REMARK                         _______ _______ _______ _____ _____    ______ ____
ROOT
ATOM      2  O   UNL     1      -0.919  -0.299   1.882  0.00  0.00    -0.267 OA
ATOM      3  N   UNL     1       3.475  -0.680  -0.506  0.00  0.00    -0.296 NA
ATOM      4  N   UNL     1       0.639  -1.543   0.673  0.00  0.00    -0.311 N 
ATOM      6  C   UNL     1       2.997  -2.035   1.549  0.00  0.00    +0.024 C 
ATOM      7  C   UNL     1       2.312  -2.888  -0.642  0.00  0.00    +0.050 C 
ATOM      8  C   UNL     1       2.884  -3.302   0.711  0.00  0.00    +0.017 C 
ATOM      9  C   UNL     1       3.925  -1.020   0.849  0.00  0.00    +0.090 C 
ATOM     10  C   UNL     1       3.273  -1.886  -1.323  0.00  0.00    +0.094 C 
ATOM     11  C   UNL     1       1.589  -1.476   1.793  0.00  0.00    +0.130 C 
ATOM     12  C   UNL     1       0.934  -2.275  -0.480  0.00  0.00    +0.026 A 
ATOM     14  C   UNL     1       0.009  -2.416  -1.443  0.00  0.00    +0.022 A 
ATOM     15  C   UNL     1      -0.612  -0.924   0.865  0.00  0.00    +0.260 A 
ATOM     16  C   UNL     1      -1.616  -1.071  -0.247  0.00  0.00    +0.053 A 
ATOM     17  C   UNL     1      -1.281  -1.798  -1.323  0.00  0.00    +0.016 A 
ENDROOT
BRANCH  16  19
ATOM      1  S   UNL     1      -3.039   1.269  -0.022  0.00  0.00    -0.088 S 
ATOM     19  C   UNL     1      -2.939  -0.426  -0.171  0.00  0.00    +0.026 A 
ATOM     21  C   UNL     1      -4.180  -1.016  -0.203  0.00  0.00    +0.024 A 
ATOM     22  C   UNL     1      -5.252  -0.066  -0.104  0.00  0.00    -0.010 A 
ATOM     23  C   UNL     1      -4.763   1.240   0.002  0.00  0.00    +0.020 A 
ATOM     27  C   UNL     1      -6.655  -0.258  -0.099  0.00  0.00    +0.009 A 
ATOM     28  C   UNL     1      -5.630   2.345   0.111  0.00  0.00    +0.015 A 
ATOM     29  C   UNL     1      -7.518   0.836   0.009  0.00  0.00    +0.001 A 
ATOM     30  C   UNL     1      -7.009   2.123   0.113  0.00  0.00    +0.001 A 
ENDBRANCH  16  19
BRANCH   3  13
ATOM     13  C   UNL     1       4.406   0.240  -1.153  0.00  0.00    +0.139 C 
BRANCH  13  18
ATOM      5  N   UNL     1       5.227   2.058   0.240  0.00  0.00    -0.259 NA
ATOM     18  C   UNL     1       4.271   1.642  -0.620  0.00  0.00    +0.055 A 
ATOM     20  C   UNL     1       3.200   2.421  -1.027  0.00  0.00    +0.024 A 
ATOM     24  C   UNL     1       3.104   3.712  -0.518  0.00  0.00    +0.003 A 
ATOM     25  C   UNL     1       5.100   3.318   0.714  0.00  0.00    +0.111 A 
ATOM     26  C   UNL     1       4.068   4.176   0.370  0.00  0.00    +0.020 A 
ENDBRANCH  13  18
ENDBRANCH   3  13
TORSDOF 3
