REMARK  Name = 45360706
REMARK  8 active torsions:
REMARK  status: ('A' for Active; 'I' for Inactive)
REMARK    1  A    between atoms: O_4  and  C_32
REMARK    2  A    between atoms: N_7  and  C_13
REMARK    3  A    between atoms: N_7  and  C_20
REMARK    4  A    between atoms: C_12  and  C_17
REMARK    5  A    between atoms: C_17  and  C_19
REMARK    6  A    between atoms: C_19  and  C_21
REMARK    7  A    between atoms: C_20  and  C_24
REMARK    8  A    between atoms: C_29  and  C_32
REMARK                            x       y       z     vdW  Elec       q    Type
REMARK                         _______ _______ _______ _____ _____    ______ ____
ROOT
ATOM      1  O   UNL     1       4.643  -4.295  -1.596  0.00  0.00    -0.274 OA
ATOM      5  N   UNL     1       1.710  -2.470  -0.415  0.00  0.00    -0.286 NA
ATOM      6  N   UNL     1       3.225  -4.771   0.117  0.00  0.00    -0.313 N 
ATOM     11  C   UNL     1       2.728  -2.860  -1.399  0.00  0.00    +0.145 C 
ATOM     12  C   UNL     1       1.081  -3.591   0.274  0.00  0.00    +0.075 C 
ATOM     13  C   UNL     1       2.945  -0.553  -0.674  0.00  0.00    +0.070 C 
ATOM     14  C   UNL     1       3.558  -1.586  -1.621  0.00  0.00    +0.048 C 
ATOM     15  C   UNL     1       2.286  -1.405   0.402  0.00  0.00    +0.104 C 
ATOM     16  C   UNL     1       2.120  -4.441   0.987  0.00  0.00    +0.123 C 
ATOM     18  C   UNL     1       3.623  -4.015  -0.959  0.00  0.00    +0.230 C 
ATOM     36  H   UNL     1       3.818  -5.550   0.387  0.00  0.00    +0.149 HD
ENDROOT
BRANCH  13   7
ATOM      7  N   UNL     1       3.921   0.390  -0.150  0.00  0.00    -0.305 NA
ATOM     37  H   UNL     1       3.545   0.827   0.692  0.00  0.00    +0.123 HD
BRANCH   7  20
ATOM     20  C   UNL     1       4.219   1.430  -1.126  0.00  0.00    +0.156 C 
BRANCH  20  24
ATOM      3  O   UNL     1       4.791   3.323   0.293  0.00  0.00    -0.461 OA
ATOM     24  C   UNL     1       5.239   2.409  -0.608  0.00  0.00    +0.119 A 
ATOM     27  C   UNL     1       6.579   2.592  -0.856  0.00  0.00    +0.046 A 
ATOM     29  C   UNL     1       5.858   4.097   0.624  0.00  0.00    +0.131 A 
ATOM     30  C   UNL     1       6.982   3.687  -0.056  0.00  0.00    +0.047 A 
BRANCH  29  32
ATOM     32  C   UNL     1       5.607   5.167   1.599  0.00  0.00    +0.230 C 
BRANCH  32   4
ATOM      4  O   UNL     1       4.903   6.246   0.979  0.00  0.00    -0.387 OA
ATOM     38  H   UNL     1       4.762   6.922   1.663  0.00  0.00    +0.210 HD
ENDBRANCH  32   4
ENDBRANCH  29  32
ENDBRANCH  20  24
ENDBRANCH   7  20
ENDBRANCH  13   7
BRANCH  12  17
ATOM     17  C   UNL     1      -0.023  -3.151   1.237  0.00  0.00    +0.029 C 
BRANCH  17  19
ATOM     19  C   UNL     1      -1.119  -2.356   0.541  0.00  0.00    +0.097 C 
BRANCH  19  21
ATOM      2  O   UNL     1      -2.128  -2.324   2.691  0.00  0.00    -0.276 OA
ATOM      8  N   UNL     1      -3.275  -1.243   0.983  0.00  0.00    -0.298 N 
ATOM      9  N   UNL     1      -5.419   0.462   0.046  0.00  0.00    -0.312 N 
ATOM     10  N   UNL     1      -7.226   0.896  -1.410  0.00  0.00    -0.240 NA
ATOM     21  C   UNL     1      -2.212  -1.977   1.510  0.00  0.00    +0.216 C 
ATOM     22  C   UNL     1      -3.368  -0.824  -0.417  0.00  0.00    +0.126 C 
ATOM     23  C   UNL     1      -4.376  -0.842   1.855  0.00  0.00    +0.126 C 
ATOM     25  C   UNL     1      -4.803  -0.519  -0.850  0.00  0.00    +0.125 C 
ATOM     26  C   UNL     1      -4.972   0.501   1.442  0.00  0.00    +0.125 C 
ATOM     28  C   UNL     1      -6.427   1.312  -0.402  0.00  0.00    +0.121 A 
ATOM     31  C   UNL     1      -6.545   2.542   0.225  0.00  0.00    +0.043 A 
ATOM     33  C   UNL     1      -7.547   3.401  -0.212  0.00  0.00    +0.005 A 
ATOM     34  C   UNL     1      -8.189   1.758  -1.807  0.00  0.00    +0.113 A 
ATOM     35  C   UNL     1      -8.389   3.010  -1.247  0.00  0.00    +0.020 A 
ENDBRANCH  19  21
ENDBRANCH  17  19
ENDBRANCH  12  17
TORSDOF 8
