REMARK  Name = 26745175
REMARK  5 active torsions:
REMARK  status: ('A' for Active; 'I' for Inactive)
REMARK    1  A    between atoms: N_7  and  C_18
REMARK    2  A    between atoms: C_10  and  C_15
REMARK    3  A    between atoms: C_18  and  C_20
REMARK    4  A    between atoms: C_18  and  C_21
REMARK    5  A    between atoms: C_19  and  C_22
REMARK                            x       y       z     vdW  Elec       q    Type
REMARK                         _______ _______ _______ _____ _____    ______ ____
ROOT
ATOM      3  O   UNL     1       3.332   1.609  -1.448  0.00  0.00    -0.253 OA
ATOM      4  N   UNL     1       2.283  -0.111  -0.276  0.00  0.00    -0.268 N 
ATOM      5  N   UNL     1       1.565  -3.335   1.483  0.00  0.00    -0.347 N 
ATOM      6  N   UNL     1       0.971  -4.062  -0.544  0.00  0.00    -0.240 NA
ATOM      7  N   UNL     1       3.955   1.229   0.730  0.00  0.00    -0.297 N 
ATOM     10  C   UNL     1       1.332  -0.383  -1.409  0.00  0.00    +0.172 C 
ATOM     11  C   UNL     1       1.310  -1.890  -1.801  0.00  0.00    +0.089 C 
ATOM     12  C   UNL     1       2.127  -0.902   0.979  0.00  0.00    +0.165 C 
ATOM     13  C   UNL     1       1.321  -2.742  -0.594  0.00  0.00    +0.066 A 
ATOM     14  C   UNL     1       1.693  -2.271   0.640  0.00  0.00    +0.056 A 
ATOM     16  C   UNL     1       3.203   0.955  -0.409  0.00  0.00    +0.303 C 
ATOM     17  C   UNL     1       1.128  -4.391   0.722  0.00  0.00    +0.197 A 
ATOM     28  H   UNL     1       1.754  -3.349   2.476  0.00  0.00    +0.167 HD
ATOM     29  H   UNL     1       3.703   0.818   1.619  0.00  0.00    +0.150 HD
ENDROOT
BRANCH  10  15
ATOM      2  O   UNL     1      -0.149   1.575  -1.482  0.00  0.00    -0.336 OA
ATOM      8  N   UNL     1      -1.104  -0.254  -0.610  0.00  0.00    -0.190 NA
ATOM      9  N   UNL     1      -1.458   1.943  -1.142  0.00  0.00    -0.056 NA
ATOM     15  C   UNL     1      -0.025   0.267  -1.137  0.00  0.00    +0.249 A 
ATOM     19  C   UNL     1      -1.956   0.812  -0.634  0.00  0.00    +0.202 A 
BRANCH  19  22
ATOM      1  F   UNL     1      -7.170   0.427   1.268  0.00  0.00    -0.205 F 
ATOM     22  C   UNL     1      -3.300   0.713  -0.144  0.00  0.00    +0.023 A 
ATOM     23  C   UNL     1      -3.766  -0.496   0.374  0.00  0.00    +0.014 A 
ATOM     24  C   UNL     1      -4.141   1.825  -0.185  0.00  0.00    +0.014 A 
ATOM     25  C   UNL     1      -5.073  -0.592   0.851  0.00  0.00    +0.039 A 
ATOM     26  C   UNL     1      -5.449   1.728   0.292  0.00  0.00    +0.039 A 
ATOM     27  C   UNL     1      -5.915   0.520   0.810  0.00  0.00    +0.123 A 
ENDBRANCH  19  22
ENDBRANCH  10  15
BRANCH   7  18
ATOM     18  C   UNL     1       4.932   2.294   0.771  0.00  0.00    +0.068 C 
ATOM     20  C   UNL     1       4.277   3.604   1.190  0.00  0.00    +0.027 C 
ATOM     21  C   UNL     1       6.077   1.926   1.705  0.00  0.00    +0.027 C 
ENDBRANCH   7  18
TORSDOF 3
