REMARK  Name = 26745413
REMARK  8 active torsions:
REMARK  status: ('A' for Active; 'I' for Inactive)
REMARK    1  A    between atoms: O_5  and  C_32
REMARK    2  A    between atoms: N_7  and  C_16
REMARK    3  A    between atoms: N_10  and  C_20
REMARK    4  A    between atoms: C_11  and  C_17
REMARK    5  A    between atoms: C_16  and  C_18
REMARK    6  A    between atoms: C_20  and  C_23
REMARK    7  A    between atoms: C_26  and  C_32
REMARK    8  A    between atoms: C_31  and  C_33
REMARK                            x       y       z     vdW  Elec       q    Type
REMARK                         _______ _______ _______ _____ _____    ______ ____
ROOT
ATOM      7  N   UNL     1      -0.953  -1.066  -0.543  0.00  0.00    -0.281 NA
ATOM      8  N   UNL     1       0.894  -4.226  -1.410  0.00  0.00    -0.347 N 
ATOM      9  N   UNL     1      -0.192  -5.112   0.333  0.00  0.00    -0.240 NA
ATOM     11  C   UNL     1      -1.170  -1.466   0.873  0.00  0.00    +0.150 C 
ATOM     12  C   UNL     1      -1.323  -2.990   1.144  0.00  0.00    +0.085 C 
ATOM     13  C   UNL     1       0.177  -1.777  -1.201  0.00  0.00    +0.140 C 
ATOM     14  C   UNL     1       0.210  -3.207  -0.821  0.00  0.00    +0.053 A 
ATOM     15  C   UNL     1      -0.443  -3.772   0.246  0.00  0.00    +0.065 A 
ATOM     19  C   UNL     1       0.619  -5.355  -0.678  0.00  0.00    +0.197 A 
ATOM     34  H   UNL     1       1.491  -4.168  -2.224  0.00  0.00    +0.167 HD
ENDROOT
BRANCH  11  17
ATOM      4  O   UNL     1       0.692  -1.607   2.367  0.00  0.00    -0.274 OA
ATOM     10  N   UNL     1       0.077   0.476   1.527  0.00  0.00    -0.310 N 
ATOM     17  C   UNL     1      -0.028  -0.897   1.669  0.00  0.00    +0.231 C 
ATOM     35  H   UNL     1      -0.569   0.959   0.908  0.00  0.00    +0.149 HD
BRANCH  10  20
ATOM     20  C   UNL     1       1.078   1.266   2.205  0.00  0.00    +0.139 C 
BRANCH  20  23
ATOM     23  C   UNL     1       2.338   1.395   1.390  0.00  0.00    -0.030 A 
ATOM     27  C   UNL     1       3.553   0.950   1.910  0.00  0.00    +0.006 A 
ATOM     28  C   UNL     1       2.289   1.960   0.116  0.00  0.00    +0.006 A 
ATOM     29  C   UNL     1       4.720   1.070   1.155  0.00  0.00    +0.013 A 
ATOM     30  C   UNL     1       3.456   2.079  -0.639  0.00  0.00    +0.013 A 
ATOM     31  C   UNL     1       4.672   1.634  -0.119  0.00  0.00    +0.055 A 
BRANCH  31  33
ATOM      1  F   UNL     1       5.873   1.088  -2.115  0.00  0.00    -0.166 F 
ATOM      2  F   UNL     1       7.017   1.278  -0.276  0.00  0.00    -0.166 F 
ATOM      3  F   UNL     1       6.227   3.050  -1.259  0.00  0.00    -0.166 F 
ATOM     33  C   UNL     1       5.919   1.761  -0.927  0.00  0.00    +0.417 C 
ENDBRANCH  31  33
ENDBRANCH  20  23
ENDBRANCH  10  20
ENDBRANCH  11  17
BRANCH   7  16
ATOM     16  C   UNL     1      -2.188  -1.207  -1.320  0.00  0.00    +0.120 C 
BRANCH  16  18
ATOM     18  C   UNL     1      -3.194  -0.143  -0.971  0.00  0.00    -0.033 A 
ATOM     21  C   UNL     1      -4.454  -0.505  -0.494  0.00  0.00    +0.006 A 
ATOM     22  C   UNL     1      -2.867   1.204  -1.125  0.00  0.00    +0.006 A 
ATOM     24  C   UNL     1      -5.387   0.481  -0.171  0.00  0.00    +0.015 A 
ATOM     25  C   UNL     1      -3.799   2.190  -0.802  0.00  0.00    +0.015 A 
ATOM     26  C   UNL     1      -5.059   1.828  -0.325  0.00  0.00    +0.059 A 
BRANCH  26  32
ATOM      6  O   UNL     1      -7.171   2.650   0.443  0.00  0.00    -0.245 OA
ATOM     32  C   UNL     1      -6.031   2.856   0.013  0.00  0.00    +0.337 C 
BRANCH  32   5
ATOM      5  O   UNL     1      -5.553   4.113  -0.195  0.00  0.00    -0.477 OA
ATOM     36  H   UNL     1      -6.215   4.799   0.036  0.00  0.00    +0.295 HD
ENDBRANCH  32   5
ENDBRANCH  26  32
ENDBRANCH  16  18
ENDBRANCH   7  16
TORSDOF 8
