REMARK  Name = 11867175
REMARK  6 active torsions:
REMARK  status: ('A' for Active; 'I' for Inactive)
REMARK    1  A    between atoms: S_1  and  N_10
REMARK    2  A    between atoms: S_1  and  C_29
REMARK    3  A    between atoms: O_6  and  C_34
REMARK    4  A    between atoms: O_6  and  C_35
REMARK    5  A    between atoms: N_9  and  C_20
REMARK    6  A    between atoms: N_10  and  C_24
REMARK                            x       y       z     vdW  Elec       q    Type
REMARK                         _______ _______ _______ _____ _____    ______ ____
ROOT
ATOM      2  O   UNL     1      -3.226   1.793  -1.802  0.00  0.00    -0.253 OA
ATOM      3  O   UNL     1      -0.963  -2.893  -1.619  0.00  0.00    -0.266 OA
ATOM      7  N   UNL     1      -3.958   0.712   0.114  0.00  0.00    -0.285 N 
ATOM      8  N   UNL     1      -2.354  -2.019   0.052  0.00  0.00    -0.310 N 
ATOM      9  N   UNL     1      -2.287   2.385   0.204  0.00  0.00    -0.296 N 
ATOM     11  C   UNL     1      -4.851  -1.579  -0.299  0.00  0.00    +0.027 C 
ATOM     12  C   UNL     1      -3.808  -1.043   1.865  0.00  0.00    +0.054 C 
ATOM     13  C   UNL     1      -4.957  -1.804   1.205  0.00  0.00    +0.018 C 
ATOM     14  C   UNL     1      -4.944  -0.077  -0.630  0.00  0.00    +0.114 C 
ATOM     15  C   UNL     1      -3.955   0.462   1.566  0.00  0.00    +0.119 C 
ATOM     16  C   UNL     1      -3.539  -2.197  -0.798  0.00  0.00    +0.130 C 
ATOM     17  C   UNL     1      -2.464  -1.539   1.365  0.00  0.00    +0.027 A 
ATOM     18  C   UNL     1      -3.164   1.642  -0.577  0.00  0.00    +0.302 C 
ATOM     19  C   UNL     1      -1.384  -1.488   2.165  0.00  0.00    +0.024 A 
ATOM     21  C   UNL     1      -1.121  -2.448  -0.483  0.00  0.00    +0.274 A 
ATOM     24  C   UNL     1       0.037  -2.345   0.440  0.00  0.00    +0.112 A 
ATOM     27  C   UNL     1      -0.091  -1.903   1.691  0.00  0.00    +0.031 A 
ATOM     36  H   UNL     1      -2.162   2.188   1.186  0.00  0.00    +0.151 HD
ENDROOT
BRANCH   9  20
ATOM     20  C   UNL     1      -1.402   3.372  -0.366  0.00  0.00    +0.074 C 
ATOM     22  C   UNL     1      -1.162   4.519   0.620  0.00  0.00    +0.022 C 
ATOM     23  C   UNL     1      -0.084   2.724  -0.798  0.00  0.00    +0.022 C 
ATOM     25  C   UNL     1      -0.185   5.548   0.058  0.00  0.00    +0.002 C 
ATOM     26  C   UNL     1       0.893   3.755  -1.356  0.00  0.00    +0.002 C 
ATOM     28  C   UNL     1       1.127   4.899  -0.374  0.00  0.00    +0.000 C 
ENDBRANCH   9  20
BRANCH  24  10
ATOM     10  N   UNL     1       1.319  -2.735   0.013  0.00  0.00    -0.211 N 
ATOM     37  H   UNL     1       1.971  -2.888   0.796  0.00  0.00    +0.174 HD
BRANCH  10   1
ATOM      1  S   UNL     1       1.982  -1.900  -1.302  0.00  0.00    +0.073 S 
ATOM      4  O   UNL     1       2.409  -2.845  -2.316  0.00  0.00    -0.150 OA
ATOM      5  O   UNL     1       1.121  -0.787  -1.656  0.00  0.00    -0.150 OA
BRANCH   1  29
ATOM     29  C   UNL     1       3.439  -1.225  -0.562  0.00  0.00    +0.109 A 
ATOM     30  C   UNL     1       3.377   0.021   0.037  0.00  0.00    +0.032 A 
ATOM     31  C   UNL     1       4.614  -1.956  -0.596  0.00  0.00    +0.032 A 
ATOM     32  C   UNL     1       4.527   0.554   0.620  0.00  0.00    +0.047 A 
ATOM     33  C   UNL     1       5.764  -1.423  -0.013  0.00  0.00    +0.047 A 
ATOM     34  C   UNL     1       5.720  -0.168   0.595  0.00  0.00    +0.120 A 
BRANCH  34   6
ATOM      6  O   UNL     1       6.842   0.351   1.165  0.00  0.00    -0.495 OA
ATOM     35  C   UNL     1       6.726   1.638   1.770  0.00  0.00    +0.277 C 
ENDBRANCH  34   6
ENDBRANCH   1  29
ENDBRANCH  10   1
ENDBRANCH  24  10
TORSDOF 5
