REMARK  Name = 75367094
REMARK  7 active torsions:
REMARK  status: ('A' for Active; 'I' for Inactive)
REMARK    1  A    between atoms: S_1  and  N_7
REMARK    2  A    between atoms: S_1  and  C_17
REMARK    3  A    between atoms: O_3  and  C_12
REMARK    4  A    between atoms: N_6  and  C_8
REMARK    5  A    between atoms: N_6  and  C_9
REMARK    6  A    between atoms: N_7  and  C_16
REMARK    7  A    between atoms: C_14  and  C_16
REMARK                            x       y       z     vdW  Elec       q    Type
REMARK                         _______ _______ _______ _____ _____    ______ ____
ROOT
ATOM      2  O   UNL     1      -1.137   0.834  -1.225  0.00  0.00    -0.371 OA
ATOM      9  C   UNL     1      -2.971   0.469   0.239  0.00  0.00    +0.111 C 
ATOM     12  C   UNL     1      -1.677   0.251   1.002  0.00  0.00    +0.164 C 
ATOM     14  C   UNL     1      -0.690   1.014   0.129  0.00  0.00    +0.164 C 
ATOM     15  C   UNL     1      -2.494   0.358  -1.200  0.00  0.00    +0.181 C 
ENDROOT
BRANCH  12   3
ATOM      3  O   UNL     1      -1.726   0.768   2.318  0.00  0.00    -0.388 OA
ATOM     24  H   UNL     1      -1.952   1.712   2.268  0.00  0.00    +0.210 HD
ENDBRANCH  12   3
BRANCH   9   6
ATOM      6  N   UNL     1      -4.011  -0.493   0.567  0.00  0.00    -0.306 NA
ATOM     23  H   UNL     1      -4.051  -0.586   1.583  0.00  0.00    +0.123 HD
BRANCH   6   8
ATOM      8  C   UNL     1      -5.274  -0.062  -0.013  0.00  0.00    +0.054 C 
ATOM     10  C   UNL     1      -6.434  -0.803   0.686  0.00  0.00    +0.019 C 
ATOM     11  C   UNL     1      -5.579  -0.916  -1.263  0.00  0.00    +0.019 C 
ATOM     13  C   UNL     1      -7.023  -1.030  -0.725  0.00  0.00    +0.003 C 
ENDBRANCH   6   8
ENDBRANCH   9   6
BRANCH  14  16
ATOM     16  C   UNL     1       0.739   0.520   0.267  0.00  0.00    +0.140 C 
BRANCH  16   7
ATOM      7  N   UNL     1       1.623   1.312  -0.611  0.00  0.00    -0.187 NA
ATOM     25  H   UNL     1       1.386   1.300  -1.610  0.00  0.00    +0.148 HD
BRANCH   7   1
ATOM      1  S   UNL     1       3.243   1.584  -0.166  0.00  0.00    +0.058 S 
ATOM      4  O   UNL     1       3.286   2.162   1.163  0.00  0.00    -0.153 OA
ATOM      5  O   UNL     1       3.931   2.232  -1.266  0.00  0.00    -0.153 OA
BRANCH   1  17
ATOM     17  C   UNL     1       3.872  -0.065  -0.064  0.00  0.00    +0.105 A 
ATOM     18  C   UNL     1       4.433  -0.668  -1.190  0.00  0.00    +0.028 A 
ATOM     19  C   UNL     1       3.805  -0.763   1.142  0.00  0.00    +0.028 A 
ATOM     20  C   UNL     1       4.926  -1.971  -1.110  0.00  0.00    +0.002 A 
ATOM     21  C   UNL     1       4.298  -2.065   1.221  0.00  0.00    +0.002 A 
ATOM     22  C   UNL     1       4.859  -2.669   0.096  0.00  0.00    +0.000 A 
ENDBRANCH   1  17
ENDBRANCH   7   1
ENDBRANCH  16   7
ENDBRANCH  14  16
TORSDOF 7
