REMARK  Name = 75536509
REMARK  7 active torsions:
REMARK  status: ('A' for Active; 'I' for Inactive)
REMARK    1  A    between atoms: O_2  and  C_9
REMARK    2  A    between atoms: N_4  and  C_8
REMARK    3  A    between atoms: N_4  and  C_13
REMARK    4  A    between atoms: N_5  and  C_12
REMARK    5  A    between atoms: C_10  and  C_12
REMARK    6  A    between atoms: C_13  and  C_14
REMARK    7  A    between atoms: C_15  and  C_17
REMARK                            x       y       z     vdW  Elec       q    Type
REMARK                         _______ _______ _______ _____ _____    ______ ____
ROOT
ATOM      1  O   UNL     1       1.662   1.325  -0.010  0.00  0.00    -0.371 OA
ATOM      8  C   UNL     1      -0.272   0.002   0.376  0.00  0.00    +0.111 C 
ATOM      9  C   UNL     1       0.774  -0.844  -0.327  0.00  0.00    +0.164 C 
ATOM     10  C   UNL     1       2.042  -0.061  -0.015  0.00  0.00    +0.165 C 
ATOM     11  C   UNL     1       0.229   1.406   0.082  0.00  0.00    +0.181 C 
ENDROOT
BRANCH   9   2
ATOM      2  O   UNL     1       0.833  -2.166   0.172  0.00  0.00    -0.388 OA
ATOM     20  H   UNL     1       0.996  -2.124   1.129  0.00  0.00    +0.210 HD
ENDBRANCH   9   2
BRANCH   8   4
ATOM      4  N   UNL     1      -1.626  -0.228  -0.102  0.00  0.00    -0.304 NA
ATOM     19  H   UNL     1      -1.785  -1.233  -0.179  0.00  0.00    +0.123 HD
BRANCH   4  13
ATOM     13  C   UNL     1      -2.609   0.339   0.813  0.00  0.00    +0.136 C 
BRANCH  13  14
ATOM      6  N   UNL     1      -4.880   1.156   0.081  0.00  0.00    -0.347 N 
ATOM      7  N   UNL     1      -6.004  -0.700  -0.388  0.00  0.00    -0.244 NA
ATOM     14  C   UNL     1      -4.018   0.125   0.325  0.00  0.00    +0.049 A 
ATOM     16  C   UNL     1      -4.734  -1.010   0.028  0.00  0.00    +0.134 A 
ATOM     18  C   UNL     1      -6.060   0.612  -0.345  0.00  0.00    +0.196 A 
ATOM     22  H   UNL     1      -4.685   2.143   0.194  0.00  0.00    +0.167 HD
ENDBRANCH  13  14
ENDBRANCH   4  13
ENDBRANCH   8   4
BRANCH  10  12
ATOM     12  C   UNL     1       3.151  -0.285  -1.027  0.00  0.00    +0.138 C 
BRANCH  12   5
ATOM      3  O   UNL     1       5.379  -1.119   0.637  0.00  0.00    -0.276 OA
ATOM      5  N   UNL     1       4.322   0.473  -0.695  0.00  0.00    -0.313 N 
ATOM     15  C   UNL     1       5.345  -0.008   0.114  0.00  0.00    +0.210 C 
ATOM     17  C   UNL     1       6.466   0.983   0.281  0.00  0.00    +0.109 C 
ATOM     21  H   UNL     1       4.398   1.413  -1.073  0.00  0.00    +0.149 HD
ENDBRANCH  12   5
ENDBRANCH  10  12
TORSDOF 6
