REMARK  Name = 51136652
REMARK  12 active torsions:
REMARK  status: ('A' for Active; 'I' for Inactive)
REMARK    1  A    between atoms: O_2  and  C_16
REMARK    2  A    between atoms: O_4  and  C_27
REMARK    3  A    between atoms: O_4  and  C_30
REMARK    4  A    between atoms: C_7  and  C_12
REMARK    5  A    between atoms: C_8  and  C_13
REMARK    6  A    between atoms: C_12  and  C_14
REMARK    7  A    between atoms: C_13  and  C_16
REMARK    8  A    between atoms: C_15  and  C_18
REMARK    9  A    between atoms: C_18  and  C_22
REMARK   10  A    between atoms: C_22  and  C_24
REMARK   11  A    between atoms: C_24  and  C_28
REMARK   12  A    between atoms: C_28  and  C_29
REMARK                            x       y       z     vdW  Elec       q    Type
REMARK                         _______ _______ _______ _____ _____    ______ ____
ROOT
ATOM      1  O   UNL     1      -0.378  -3.691   1.094  0.00  0.00    -0.276 OA
ATOM      5  N   UNL     1      -1.597  -2.199  -0.203  0.00  0.00    -0.301 N 
ATOM      7  C   UNL     1      -2.349   0.103  -0.759  0.00  0.00    +0.016 C 
ATOM      8  C   UNL     1      -3.715  -0.225  -0.104  0.00  0.00    +0.006 C 
ATOM      9  C   UNL     1      -3.580  -1.320   0.968  0.00  0.00    +0.023 C 
ATOM     10  C   UNL     1      -1.689  -1.191  -1.268  0.00  0.00    +0.112 C 
ATOM     11  C   UNL     1      -2.874  -2.555   0.413  0.00  0.00    +0.108 C 
ATOM     15  C   UNL     1      -0.424  -2.827   0.214  0.00  0.00    +0.216 C 
ENDROOT
BRANCH   7  12
ATOM     12  C   UNL     1      -1.387   0.868   0.158  0.00  0.00    +0.061 C 
BRANCH  12  14
ATOM      6  N   UNL     1      -0.667   1.945  -1.864  0.00  0.00    -0.287 NA
ATOM     14  C   UNL     1      -0.340   1.573  -0.671  0.00  0.00    +0.044 C 
ATOM     17  C   UNL     1       1.006   1.797  -0.084  0.00  0.00    -0.001 A 
ATOM     19  C   UNL     1       2.044   2.087  -0.978  0.00  0.00    -0.033 A 
ATOM     20  C   UNL     1       1.738   2.137  -2.446  0.00  0.00    +0.059 C 
ATOM     21  C   UNL     1       0.330   2.683  -2.647  0.00  0.00    +0.146 C 
ATOM     23  C   UNL     1       1.255   1.714   1.287  0.00  0.00    +0.013 A 
ATOM     25  C   UNL     1       3.342   2.269  -0.493  0.00  0.00    +0.050 A 
ATOM     26  C   UNL     1       2.551   1.912   1.764  0.00  0.00    +0.046 A 
ATOM     27  C   UNL     1       3.593   2.186   0.876  0.00  0.00    +0.120 A 
BRANCH  27   4
ATOM      4  O   UNL     1       4.856   2.371   1.348  0.00  0.00    -0.495 OA
ATOM     30  C   UNL     1       5.043   2.270   2.759  0.00  0.00    +0.277 C 
ENDBRANCH  27   4
ENDBRANCH  12  14
ENDBRANCH   7  12
BRANCH   8  13
ATOM     13  C   UNL     1      -4.419   1.005   0.469  0.00  0.00    +0.124 C 
BRANCH  13  16
ATOM      3  O   UNL     1      -6.517  -0.223   0.293  0.00  0.00    -0.251 OA
ATOM     16  C   UNL     1      -5.902   0.789   0.592  0.00  0.00    +0.305 C 
BRANCH  16   2
ATOM      2  O   UNL     1      -6.486   1.906   1.099  0.00  0.00    -0.481 OA
ATOM     31  H   UNL     1      -7.457   1.800   1.193  0.00  0.00    +0.295 HD
ENDBRANCH  16   2
ENDBRANCH  13  16
ENDBRANCH   8  13
BRANCH  15  18
ATOM     18  C   UNL     1       0.851  -2.402  -0.469  0.00  0.00    +0.096 C 
BRANCH  18  22
ATOM     22  C   UNL     1       2.036  -3.172   0.091  0.00  0.00    +0.009 C 
BRANCH  22  24
ATOM     24  C   UNL     1       3.351  -2.829  -0.616  0.00  0.00    +0.000 C 
BRANCH  24  28
ATOM     28  C   UNL     1       4.514  -3.643  -0.049  0.00  0.00    -0.003 C 
ATOM     29  C   UNL     1       5.815  -3.336  -0.773  0.00  0.00    +0.004 C 
ENDBRANCH  24  28
ENDBRANCH  22  24
ENDBRANCH  18  22
ENDBRANCH  15  18
TORSDOF 10
