REMARK  Name = 40777256
REMARK  7 active torsions:
REMARK  status: ('A' for Active; 'I' for Inactive)
REMARK    1  A    between atoms: S_3  and  N_7
REMARK    2  A    between atoms: S_3  and  C_22
REMARK    3  A    between atoms: N_7  and  C_17
REMARK    4  A    between atoms: C_11  and  C_18
REMARK    5  A    between atoms: C_12  and  C_17
REMARK    6  A    between atoms: C_20  and  C_23
REMARK    7  A    between atoms: C_21  and  C_24
REMARK                            x       y       z     vdW  Elec       q    Type
REMARK                         _______ _______ _______ _____ _____    ______ ____
ROOT
ATOM      6  N   UNL     1       1.204   2.798   1.833  0.00  0.00    -0.297 NA
ATOM     10  C   UNL     1       0.092   3.721  -0.333  0.00  0.00    +0.002 C 
ATOM     11  C   UNL     1      -0.903   2.818   0.447  0.00  0.00    +0.055 C 
ATOM     12  C   UNL     1       2.095   2.565   0.665  0.00  0.00    +0.072 C 
ATOM     13  C   UNL     1       1.369   2.915  -0.651  0.00  0.00    +0.024 C 
ATOM     14  C   UNL     1       0.502   4.862   0.623  0.00  0.00    +0.019 C 
ATOM     15  C   UNL     1      -0.111   2.149   1.607  0.00  0.00    +0.094 C 
ATOM     16  C   UNL     1       0.986   4.259   1.953  0.00  0.00    +0.085 C 
ENDROOT
BRANCH  11  18
ATOM      8  N   UNL     1      -1.529   1.774  -1.674  0.00  0.00    -0.237 NA
ATOM      9  N   UNL     1      -3.192   0.034  -1.807  0.00  0.00    -0.232 NA
ATOM     18  C   UNL     1      -1.732   1.814  -0.341  0.00  0.00    +0.050 A 
ATOM     19  C   UNL     1      -2.635   1.008   0.322  0.00  0.00    +0.052 A 
ATOM     20  C   UNL     1      -3.344   0.128  -0.470  0.00  0.00    +0.076 A 
ATOM     21  C   UNL     1      -2.281   0.874  -2.336  0.00  0.00    +0.127 A 
ATOM     24  C   UNL     1      -2.087   0.801  -3.813  0.00  0.00    +0.088 C 
BRANCH  20  23
ATOM      1 BR   UNL     1      -2.204  -2.716   0.446  0.00  0.00    -0.050 Br
ATOM     23  C   UNL     1      -4.320  -0.769   0.101  0.00  0.00    +0.014 A 
ATOM     27  C   UNL     1      -3.980  -2.045   0.549  0.00  0.00    +0.027 A 
ATOM     28  C   UNL     1      -5.639  -0.324   0.199  0.00  0.00    +0.011 A 
ATOM     31  C   UNL     1      -4.958  -2.877   1.094  0.00  0.00    +0.016 A 
ATOM     32  C   UNL     1      -6.617  -1.156   0.745  0.00  0.00    +0.001 A 
ATOM     34  C   UNL     1      -6.276  -2.432   1.192  0.00  0.00    +0.001 A 
ENDBRANCH  20  23
ENDBRANCH  11  18
BRANCH  12  17
ATOM     17  C   UNL     1       2.666   1.145   0.642  0.00  0.00    +0.124 C 
BRANCH  17   7
ATOM      7  N   UNL     1       3.629   1.030  -0.465  0.00  0.00    -0.188 NA
ATOM     35  H   UNL     1       3.263   1.223  -1.405  0.00  0.00    +0.148 HD
BRANCH   7   3
ATOM      3  S   UNL     1       4.949  -0.040  -0.343  0.00  0.00    +0.058 S 
ATOM      4  O   UNL     1       5.685   0.244   0.874  0.00  0.00    -0.153 OA
ATOM      5  O   UNL     1       5.638  -0.090  -1.618  0.00  0.00    -0.153 OA
BRANCH   3  22
ATOM      2 CL   UNL     1       2.053  -5.562   0.393  0.00  0.00    -0.084 Cl
ATOM     22  C   UNL     1       4.134  -1.595  -0.136  0.00  0.00    +0.105 A 
ATOM     25  C   UNL     1       3.799  -2.361  -1.252  0.00  0.00    +0.030 A 
ATOM     26  C   UNL     1       3.825  -2.055   1.144  0.00  0.00    +0.030 A 
ATOM     29  C   UNL     1       3.155  -3.588  -1.089  0.00  0.00    +0.022 A 
ATOM     30  C   UNL     1       3.181  -3.282   1.308  0.00  0.00    +0.022 A 
ATOM     33  C   UNL     1       2.847  -4.048   0.191  0.00  0.00    +0.041 A 
ENDBRANCH   3  22
ENDBRANCH   7   3
ENDBRANCH  17   7
ENDBRANCH  12  17
TORSDOF 6
