REMARK  Name = 7051430
REMARK  5 active torsions:
REMARK  status: ('A' for Active; 'I' for Inactive)
REMARK    1  A    between atoms: S_1  and  N_8
REMARK    2  A    between atoms: S_1  and  C_25
REMARK    3  A    between atoms: N_8  and  C_20
REMARK    4  A    between atoms: C_19  and  C_22
REMARK    5  A    between atoms: C_29  and  C_34
REMARK                            x       y       z     vdW  Elec       q    Type
REMARK                         _______ _______ _______ _____ _____    ______ ____
ROOT
ATOM      2  O   UNL     1      -0.180   2.707  -1.271  0.00  0.00    -0.266 OA
ATOM      3  O   UNL     1       3.267  -0.986  -2.421  0.00  0.00    -0.270 OA
ATOM      6  N   UNL     1       3.900  -0.037  -0.379  0.00  0.00    -0.297 N 
ATOM      7  N   UNL     1       1.557   2.034   0.150  0.00  0.00    -0.310 N 
ATOM     10  C   UNL     1       4.029   2.449  -0.374  0.00  0.00    +0.027 C 
ATOM     11  C   UNL     1       3.398   1.252   1.684  0.00  0.00    +0.054 C 
ATOM     12  C   UNL     1       4.207   2.429   1.140  0.00  0.00    +0.018 C 
ATOM     13  C   UNL     1       4.532   1.131  -0.992  0.00  0.00    +0.113 C 
ATOM     14  C   UNL     1       2.552   2.710  -0.694  0.00  0.00    +0.130 C 
ATOM     15  C   UNL     1       3.941  -0.064   1.093  0.00  0.00    +0.117 C 
ATOM     16  C   UNL     1       1.927   1.397   1.343  0.00  0.00    +0.027 A 
ATOM     17  C   UNL     1       0.990   0.883   2.160  0.00  0.00    +0.024 A 
ATOM     18  C   UNL     1       0.208   2.147  -0.246  0.00  0.00    +0.274 A 
ATOM     19  C   UNL     1       3.304  -1.004  -1.192  0.00  0.00    +0.247 C 
ATOM     20  C   UNL     1      -0.777   1.540   0.684  0.00  0.00    +0.112 A 
ATOM     21  C   UNL     1      -0.406   0.954   1.823  0.00  0.00    +0.031 A 
ENDROOT
BRANCH  19  22
ATOM     22  C   UNL     1       2.643  -2.138  -0.540  0.00  0.00    +0.037 A 
ATOM     23  C   UNL     1       1.293  -2.055  -0.207  0.00  0.00    +0.013 A 
ATOM     24  C   UNL     1       3.368  -3.293  -0.256  0.00  0.00    +0.013 A 
ATOM     26  C   UNL     1       0.664  -3.135   0.414  0.00  0.00    +0.001 A 
ATOM     27  C   UNL     1       2.739  -4.372   0.364  0.00  0.00    +0.001 A 
ATOM     28  C   UNL     1       1.387  -4.293   0.699  0.00  0.00    +0.000 A 
ENDBRANCH  19  22
BRANCH  20   8
ATOM      8  N   UNL     1      -2.150   1.577   0.385  0.00  0.00    -0.211 N 
ATOM     35  H   UNL     1      -2.738   1.386   1.208  0.00  0.00    +0.174 HD
BRANCH   8   1
ATOM      1  S   UNL     1      -2.649   0.813  -1.040  0.00  0.00    +0.074 S 
ATOM      4  O   UNL     1      -3.432   1.735  -1.841  0.00  0.00    -0.150 OA
ATOM      5  O   UNL     1      -1.531   0.101  -1.630  0.00  0.00    -0.150 OA
BRANCH   1  25
ATOM     25  C   UNL     1      -3.763  -0.398  -0.391  0.00  0.00    +0.126 A 
ATOM     29  C   UNL     1      -4.984  -0.033   0.156  0.00  0.00    +0.078 A 
ATOM     30  C   UNL     1      -3.371  -1.728  -0.448  0.00  0.00    +0.030 A 
ATOM     31  C   UNL     1      -5.833  -1.020   0.658  0.00  0.00    +0.021 A 
ATOM     32  C   UNL     1      -4.220  -2.714   0.054  0.00  0.00    +0.002 A 
ATOM     33  C   UNL     1      -5.451  -2.360   0.607  0.00  0.00    +0.001 A 
BRANCH  29  34
ATOM      9  N   UNL     1      -5.751   2.439   0.283  0.00  0.00    -0.191 NA
ATOM     34  C   UNL     1      -5.408   1.333   0.226  0.00  0.00    +0.101 C 
ENDBRANCH  29  34
ENDBRANCH   1  25
ENDBRANCH   8   1
ENDBRANCH  20   8
TORSDOF 5
