REMARK  Name = 38030867
REMARK  13 active torsions:
REMARK  status: ('A' for Active; 'I' for Inactive)
REMARK    1  A    between atoms: O_2  and  C_28
REMARK    2  A    between atoms: O_2  and  C_29
REMARK    3  A    between atoms: N_3  and  C_13
REMARK    4  A    between atoms: N_3  and  C_19
REMARK    5  A    between atoms: C_6  and  C_10
REMARK    6  A    between atoms: C_7  and  C_13
REMARK    7  A    between atoms: C_9  and  C_14
REMARK    8  A    between atoms: C_10  and  C_15
REMARK    9  A    between atoms: C_10  and  C_16
REMARK   10  A    between atoms: C_11  and  C_17
REMARK   11  A    between atoms: C_14  and  C_18
REMARK   12  A    between atoms: C_19  and  C_21
REMARK   13  A    between atoms: C_20  and  C_22
REMARK                            x       y       z     vdW  Elec       q    Type
REMARK                         _______ _______ _______ _____ _____    ______ ____
ROOT
ATOM      6  C   UNL     1       2.042  -0.001  -1.337  0.00  0.00    +0.000 C 
ATOM      7  C   UNL     1       3.589  -0.075  -1.360  0.00  0.00    +0.029 C 
ATOM      8  C   UNL     1       1.576   1.459  -1.232  0.00  0.00    +0.012 C 
ATOM      9  C   UNL     1       2.117   2.154   0.032  0.00  0.00    +0.024 C 
ATOM     11  C   UNL     1       3.599   1.901   0.223  0.00  0.00    -0.073 C 
ATOM     12  C   UNL     1       4.242   0.909  -0.418  0.00  0.00    -0.023 C 
ATOM     17  C   UNL     1       4.335   2.844   1.134  0.00  0.00    +0.039 C 
ENDROOT
BRANCH   6  10
ATOM     10  C   UNL     1       1.422  -0.656  -2.575  0.00  0.00    -0.013 C 
ATOM     15  C   UNL     1      -0.004  -1.110  -2.280  0.00  0.00    +0.007 C 
ATOM     16  C   UNL     1       1.449   0.309  -3.756  0.00  0.00    +0.007 C 
ENDBRANCH   6  10
BRANCH   7  13
ATOM     13  C   UNL     1       4.080  -1.491  -1.041  0.00  0.00    +0.089 C 
BRANCH  13   3
ATOM      3  N   UNL     1       3.724  -1.864   0.317  0.00  0.00    -0.305 NA
ATOM     30  H   UNL     1       4.140  -1.212   0.981  0.00  0.00    +0.123 HD
BRANCH   3  19
ATOM     19  C   UNL     1       4.178  -3.215   0.627  0.00  0.00    +0.170 C 
BRANCH  19  21
ATOM     21  C   UNL     1       3.801  -3.593   1.993  0.00  0.00    -0.090 C 
ATOM     25  C   UNL     1       3.496  -3.908   3.110  0.00  0.00    +0.005 C 
ENDBRANCH  19  21
ENDBRANCH   3  19
ENDBRANCH  13   3
ENDBRANCH   7  13
BRANCH   9  14
ATOM     14  C   UNL     1       1.324   1.735   1.275  0.00  0.00    +0.105 C 
BRANCH  14  18
ATOM      1  O   UNL     1      -0.945   0.948   0.844  0.00  0.00    -0.420 OA
ATOM      4  N   UNL     1      -0.790   3.153   1.183  0.00  0.00    -0.112 NA
ATOM      5  N   UNL     1      -2.119   2.849   0.954  0.00  0.00    -0.107 NA
ATOM     18  C   UNL     1      -0.142   2.014   1.110  0.00  0.00    +0.218 A 
ATOM     20  C   UNL     1      -2.162   1.552   0.761  0.00  0.00    +0.248 A 
BRANCH  20  22
ATOM     22  C   UNL     1      -3.273   0.689   0.482  0.00  0.00    +0.039 A 
ATOM     23  C   UNL     1      -4.559   1.218   0.378  0.00  0.00    +0.017 A 
ATOM     24  C   UNL     1      -3.067  -0.681   0.313  0.00  0.00    +0.017 A 
ATOM     26  C   UNL     1      -5.639   0.379   0.106  0.00  0.00    +0.046 A 
ATOM     27  C   UNL     1      -4.147  -1.520   0.041  0.00  0.00    +0.046 A 
ATOM     28  C   UNL     1      -5.434  -0.990  -0.062  0.00  0.00    +0.120 A 
BRANCH  28   2
ATOM      2  O   UNL     1      -6.487  -1.809  -0.331  0.00  0.00    -0.495 OA
ATOM     29  C   UNL     1      -6.205  -3.199  -0.491  0.00  0.00    +0.277 C 
ENDBRANCH  28   2
ENDBRANCH  20  22
ENDBRANCH  14  18
ENDBRANCH   9  14
TORSDOF 9
