REMARK  Name = 45783336
REMARK  7 active torsions:
REMARK  status: ('A' for Active; 'I' for Inactive)
REMARK    1  A    between atoms: O_6  and  C_33
REMARK    2  A    between atoms: O_6  and  C_37
REMARK    3  A    between atoms: N_7  and  C_18
REMARK    4  A    between atoms: C_13  and  C_23
REMARK    5  A    between atoms: C_17  and  C_26
REMARK    6  A    between atoms: C_18  and  C_24
REMARK    7  A    between atoms: C_27  and  C_29
REMARK                            x       y       z     vdW  Elec       q    Type
REMARK                         _______ _______ _______ _____ _____    ______ ____
ROOT
ATOM      4  O   UNL     1      -3.297  -2.246   0.654  0.00  0.00    -0.336 OA
ATOM      9  N   UNL     1      -1.543  -1.456  -0.494  0.00  0.00    -0.190 NA
ATOM     10  N   UNL     1      -2.178  -2.425   1.479  0.00  0.00    -0.056 NA
ATOM     23  C   UNL     1      -2.835  -1.671  -0.487  0.00  0.00    +0.245 A 
ATOM     27  C   UNL     1      -1.184  -1.935   0.732  0.00  0.00    +0.202 A 
ENDROOT
BRANCH  27  29
ATOM      8  N   UNL     1       3.466  -0.861   0.005  0.00  0.00    -0.315 N 
ATOM     11  N   UNL     1       2.834  -1.861   2.056  0.00  0.00    -0.240 NA
ATOM     17  C   UNL     1       5.567   0.188  -1.702  0.00  0.00    +0.078 C 
ATOM     19  C   UNL     1       4.144   0.743  -1.739  0.00  0.00    +0.031 C 
ATOM     20  C   UNL     1       5.589  -1.247  -1.180  0.00  0.00    +0.031 C 
ATOM     21  C   UNL     1       3.374   0.534  -0.433  0.00  0.00    +0.107 C 
ATOM     22  C   UNL     1       4.820  -1.414   0.130  0.00  0.00    +0.107 C 
ATOM     25  C   UNL     1       2.475  -1.388   0.842  0.00  0.00    +0.122 A 
ATOM     28  C   UNL     1       1.175  -1.390   0.362  0.00  0.00    +0.055 A 
ATOM     29  C   UNL     1       0.179  -1.911   1.181  0.00  0.00    +0.027 A 
ATOM     32  C   UNL     1       0.510  -2.408   2.437  0.00  0.00    +0.031 A 
ATOM     34  C   UNL     1       1.839  -2.360   2.824  0.00  0.00    +0.113 A 
BRANCH  17  26
ATOM      5  O   UNL     1       6.069   2.068  -0.310  0.00  0.00    -0.276 OA
ATOM     12  N   UNL     1       7.782   0.636  -0.866  0.00  0.00    -0.329 N 
ATOM     26  C   UNL     1       6.475   1.061  -0.886  0.00  0.00    +0.214 C 
ATOM     38  H   UNL     1       8.485   1.148  -0.343  0.00  0.00    +0.145 HD
ATOM     39  H   UNL     1       8.111  -0.163  -1.398  0.00  0.00    +0.145 HD
ENDBRANCH  17  26
ENDBRANCH  27  29
BRANCH  23  13
ATOM      7  N   UNL     1      -3.891   0.059  -1.931  0.00  0.00    -0.287 NA
ATOM     13  C   UNL     1      -3.865  -1.369  -1.555  0.00  0.00    +0.146 C 
ATOM     14  C   UNL     1      -3.590  -2.116  -2.873  0.00  0.00    +0.030 C 
ATOM     15  C   UNL     1      -3.538  -1.032  -3.941  0.00  0.00    +0.017 C 
ATOM     16  C   UNL     1      -4.323   0.110  -3.328  0.00  0.00    +0.085 C 
BRANCH   7  18
ATOM     18  C   UNL     1      -4.741   0.865  -1.065  0.00  0.00    +0.120 C 
BRANCH  18  24
ATOM     24  C   UNL     1      -4.056   1.208   0.231  0.00  0.00    -0.030 A 
ATOM     30  C   UNL     1      -2.849   1.908   0.218  0.00  0.00    +0.051 A 
ATOM     31  C   UNL     1      -4.626   0.825   1.445  0.00  0.00    +0.005 A 
ATOM     33  C   UNL     1      -2.213   2.225   1.418  0.00  0.00    +0.130 A 
ATOM     35  C   UNL     1      -3.990   1.143   2.646  0.00  0.00    +0.004 A 
ATOM     36  C   UNL     1      -2.784   1.843   2.632  0.00  0.00    +0.046 A 
BRANCH  33   6
ATOM      6  O   UNL     1      -1.036   2.907   1.404  0.00  0.00    -0.406 OA
BRANCH   6  37
ATOM      1  F   UNL     1      -0.305   1.500  -0.244  0.00  0.00    -0.133 F 
ATOM      2  F   UNL     1       1.111   2.866   0.707  0.00  0.00    -0.133 F 
ATOM      3  F   UNL     1      -0.397   3.670  -0.656  0.00  0.00    -0.133 F 
ATOM     37  C   UNL     1      -0.169   2.733   0.289  0.00  0.00    +0.575 C 
ENDBRANCH   6  37
ENDBRANCH  33   6
ENDBRANCH  18  24
ENDBRANCH   7  18
ENDBRANCH  23  13
TORSDOF 7
