REMARK  Name = 75366944
REMARK  8 active torsions:
REMARK  status: ('A' for Active; 'I' for Inactive)
REMARK    1  A    between atoms: O_3  and  C_11
REMARK    2  A    between atoms: N_6  and  C_15
REMARK    3  A    between atoms: N_8  and  C_21
REMARK    4  A    between atoms: C_9  and  C_14
REMARK    5  A    between atoms: C_10  and  C_15
REMARK    6  A    between atoms: C_14  and  C_16
REMARK    7  A    between atoms: C_19  and  C_20
REMARK    8  A    between atoms: C_21  and  C_24
REMARK                            x       y       z     vdW  Elec       q    Type
REMARK                         _______ _______ _______ _____ _____    ______ ____
ROOT
ATOM      2  O   UNL     1       2.523  -0.858   0.556  0.00  0.00    -0.369 OA
ATOM      9  C   UNL     1       2.910  -0.877  -0.820  0.00  0.00    +0.125 C 
ATOM     10  C   UNL     1       3.328  -0.030   1.405  0.00  0.00    +0.164 C 
ATOM     11  C   UNL     1       4.811  -0.410   1.313  0.00  0.00    +0.145 C 
ATOM     12  C   UNL     1       4.350  -1.365  -0.968  0.00  0.00    +0.034 C 
ATOM     13  C   UNL     1       5.297  -0.509  -0.131  0.00  0.00    +0.036 C 
ENDROOT
BRANCH  11   3
ATOM      3  O   UNL     1       4.998  -1.689   1.924  0.00  0.00    -0.389 OA
ATOM     28  H   UNL     1       5.949  -1.891   1.899  0.00  0.00    +0.210 HD
ENDBRANCH  11   3
BRANCH   9  14
ATOM     14  C   UNL     1       1.946  -1.800  -1.555  0.00  0.00    +0.090 C 
BRANCH  14  16
ATOM      4  O   UNL     1      -1.318  -0.301  -1.856  0.00  0.00    -0.354 OA
ATOM      7  N   UNL     1      -0.012  -0.501  -2.287  0.00  0.00    -0.083 NA
ATOM     16  C   UNL     1       0.518  -1.351  -1.403  0.00  0.00    +0.087 A 
ATOM     17  C   UNL     1      -0.398  -1.718  -0.401  0.00  0.00    +0.076 A 
ATOM     19  C   UNL     1      -1.536  -1.031  -0.733  0.00  0.00    +0.167 A 
BRANCH  19  20
ATOM      1  F   UNL     1      -6.636  -0.633   1.454  0.00  0.00    -0.205 F 
ATOM     20  C   UNL     1      -2.850  -0.928  -0.168  0.00  0.00    +0.020 A 
ATOM     22  C   UNL     1      -3.172  -1.643   0.986  0.00  0.00    +0.014 A 
ATOM     23  C   UNL     1      -3.807  -0.113  -0.774  0.00  0.00    +0.014 A 
ATOM     25  C   UNL     1      -4.451  -1.543   1.534  0.00  0.00    +0.039 A 
ATOM     26  C   UNL     1      -5.086  -0.014  -0.226  0.00  0.00    +0.039 A 
ATOM     27  C   UNL     1      -5.407  -0.729   0.928  0.00  0.00    +0.123 A 
ENDBRANCH  19  20
ENDBRANCH  14  16
ENDBRANCH   9  14
BRANCH  10  15
ATOM     15  C   UNL     1       3.074   1.451   1.131  0.00  0.00    +0.140 C 
BRANCH  15   6
ATOM      5  O   UNL     1       1.387   2.527  -0.949  0.00  0.00    -0.253 OA
ATOM      6  N   UNL     1       1.679   1.758   1.224  0.00  0.00    -0.297 N 
ATOM      8  N   UNL     1      -0.402   2.485   0.528  0.00  0.00    -0.300 N 
ATOM     18  C   UNL     1       0.927   2.280   0.165  0.00  0.00    +0.300 C 
ATOM     29  H   UNL     1       1.218   1.631   2.120  0.00  0.00    +0.150 HD
ATOM     30  H   UNL     1      -0.690   2.256   1.474  0.00  0.00    +0.150 HD
BRANCH   8  21
ATOM     21  C   UNL     1      -1.388   3.016  -0.383  0.00  0.00    +0.102 C 
ATOM     24  C   UNL     1      -1.286   4.524  -0.493  0.00  0.00    +0.024 C 
ENDBRANCH   8  21
ENDBRANCH  15   6
ENDBRANCH  10  15
TORSDOF 7
