REMARK  Name = 11885138
REMARK  5 active torsions:
REMARK  status: ('A' for Active; 'I' for Inactive)
REMARK    1  A    between atoms: S_1  and  N_7
REMARK    2  A    between atoms: S_1  and  C_20
REMARK    3  A    between atoms: O_6  and  C_31
REMARK    4  A    between atoms: O_6  and  C_32
REMARK    5  A    between atoms: C_18  and  C_21
REMARK                            x       y       z     vdW  Elec       q    Type
REMARK                         _______ _______ _______ _____ _____    ______ ____
ROOT
ATOM      5  O   UNL     1      -2.596   1.079  -1.776  0.00  0.00    -0.267 OA
ATOM      7  N   UNL     1       2.073  -0.009  -0.410  0.00  0.00    -0.176 NA
ATOM      8  N   UNL     1      -0.742   1.425  -0.404  0.00  0.00    -0.311 N 
ATOM      9  C   UNL     1       1.508   2.252  -1.307  0.00  0.00    +0.025 C 
ATOM     10  C   UNL     1       1.250   1.793   1.092  0.00  0.00    +0.052 C 
ATOM     11  C   UNL     1       1.685   2.852   0.082  0.00  0.00    +0.017 C 
ATOM     12  C   UNL     1       2.380   0.996  -1.468  0.00  0.00    +0.114 C 
ATOM     13  C   UNL     1       2.162   0.559   0.968  0.00  0.00    +0.119 C 
ATOM     14  C   UNL     1       0.019   1.965  -1.539  0.00  0.00    +0.130 C 
ATOM     15  C   UNL     1      -0.200   1.401   0.883  0.00  0.00    +0.026 A 
ATOM     16  C   UNL     1      -0.954   1.013   1.924  0.00  0.00    +0.022 A 
ATOM     17  C   UNL     1      -2.072   1.038  -0.662  0.00  0.00    +0.259 A 
ATOM     18  C   UNL     1      -2.881   0.573   0.519  0.00  0.00    +0.047 A 
ATOM     19  C   UNL     1      -2.312   0.587   1.734  0.00  0.00    +0.015 A 
ENDROOT
BRANCH  18  21
ATOM     21  C   UNL     1      -4.267   0.101   0.357  0.00  0.00    -0.012 A 
ATOM     24  C   UNL     1      -5.328   1.002   0.456  0.00  0.00    +0.012 A 
ATOM     25  C   UNL     1      -4.521  -1.248   0.105  0.00  0.00    +0.012 A 
ATOM     29  C   UNL     1      -6.641   0.554   0.302  0.00  0.00    +0.046 A 
ATOM     30  C   UNL     1      -5.833  -1.695  -0.048  0.00  0.00    +0.046 A 
ATOM     31  C   UNL     1      -6.893  -0.794   0.051  0.00  0.00    +0.120 A 
BRANCH  31   6
ATOM      6  O   UNL     1      -8.173  -1.230  -0.098  0.00  0.00    -0.495 OA
ATOM     32  C   UNL     1      -8.360  -2.622  -0.354  0.00  0.00    +0.277 C 
ENDBRANCH  31   6
ENDBRANCH  18  21
BRANCH   7   1
ATOM      1  S   UNL     1       2.787  -1.549  -0.623  0.00  0.00    +0.061 S 
ATOM      3  O   UNL     1       2.770  -1.889  -2.030  0.00  0.00    -0.153 OA
ATOM      4  O   UNL     1       2.252  -2.458   0.369  0.00  0.00    -0.153 OA
BRANCH   1  20
ATOM      2  F   UNL     1       8.339  -0.326   0.858  0.00  0.00    -0.205 F 
ATOM     20  C   UNL     1       4.455  -1.181  -0.178  0.00  0.00    +0.106 A 
ATOM     22  C   UNL     1       4.849  -1.314   1.143  0.00  0.00    +0.031 A 
ATOM     23  C   UNL     1       5.343  -0.767  -1.158  0.00  0.00    +0.031 A 
ATOM     26  C   UNL     1       6.167  -1.023   1.495  0.00  0.00    +0.040 A 
ATOM     27  C   UNL     1       6.661  -0.477  -0.806  0.00  0.00    +0.040 A 
ATOM     28  C   UNL     1       7.073  -0.605   0.520  0.00  0.00    +0.124 A 
ENDBRANCH   1  20
ENDBRANCH   7   1
TORSDOF 4
