REMARK  Name = 11865938
REMARK  6 active torsions:
REMARK  status: ('A' for Active; 'I' for Inactive)
REMARK    1  A    between atoms: O_5  and  C_29
REMARK    2  A    between atoms: O_5  and  C_34
REMARK    3  A    between atoms: N_9  and  C_13
REMARK    4  A    between atoms: C_20  and  C_21
REMARK    5  A    between atoms: C_22  and  C_27
REMARK    6  A    between atoms: C_27  and  C_28
REMARK                            x       y       z     vdW  Elec       q    Type
REMARK                         _______ _______ _______ _____ _____    ______ ____
ROOT
ATOM      1  O   UNL     1       0.730   1.587  -2.332  0.00  0.00    -0.273 OA
ATOM      2  O   UNL     1      -1.901   3.568   2.341  0.00  0.00    -0.274 OA
ATOM      4  O   UNL     1       4.582   0.489  -0.742  0.00  0.00    -0.275 OA
ATOM      6  N   UNL     1      -0.991   2.004  -0.831  0.00  0.00    -0.287 N 
ATOM      7  N   UNL     1       2.700   1.779  -0.371  0.00  0.00    -0.288 N 
ATOM      8  N   UNL     1       0.175   3.642   1.448  0.00  0.00    -0.309 N 
ATOM     10  C   UNL     1       1.290   1.950  -0.012  0.00  0.00    +0.182 C 
ATOM     11  C   UNL     1      -1.520   2.020   0.537  0.00  0.00    +0.164 C 
ATOM     12  C   UNL     1       1.174   3.416   0.426  0.00  0.00    +0.104 C 
ATOM     13  C   UNL     1      -3.245   1.363  -1.033  0.00  0.00    +0.092 C 
ATOM     14  C   UNL     1      -3.049   1.999   0.340  0.00  0.00    +0.055 C 
ATOM     15  C   UNL     1      -2.061   1.909  -1.816  0.00  0.00    +0.131 C 
ATOM     16  C   UNL     1       2.592   3.763   0.870  0.00  0.00    +0.043 C 
ATOM     17  C   UNL     1       0.339   1.802  -1.185  0.00  0.00    +0.239 C 
ATOM     18  C   UNL     1       3.439   3.015  -0.148  0.00  0.00    +0.110 C 
ATOM     19  C   UNL     1      -1.123   3.181   1.461  0.00  0.00    +0.234 C 
ATOM     22  C   UNL     1       3.356   0.592  -0.656  0.00  0.00    +0.221 C 
ATOM     35  H   UNL     1       0.385   4.371   2.123  0.00  0.00    +0.149 HD
ENDROOT
BRANCH  13   9
ATOM      3  O   UNL     1      -5.499  -0.443  -0.731  0.00  0.00    -0.276 OA
ATOM      9  N   UNL     1      -3.211  -0.079  -0.958  0.00  0.00    -0.311 N 
ATOM     21  C   UNL     1      -4.347  -0.859  -0.812  0.00  0.00    +0.216 C 
ATOM     36  H   UNL     1      -2.302  -0.530  -1.000  0.00  0.00    +0.149 HD
BRANCH  21  20
ATOM     20  C   UNL     1      -4.031  -2.325  -0.787  0.00  0.00    +0.075 C 
ATOM     23  C   UNL     1      -5.296  -3.151  -0.601  0.00  0.00    +0.013 C 
ATOM     24  C   UNL     1      -3.175  -2.700   0.413  0.00  0.00    +0.013 C 
ATOM     25  C   UNL     1      -5.496  -3.265   0.909  0.00  0.00    +0.001 C 
ATOM     26  C   UNL     1      -4.167  -2.884   1.556  0.00  0.00    +0.001 C 
ENDBRANCH  21  20
ENDBRANCH  13   9
BRANCH  22  27
ATOM     27  C   UNL     1       2.484  -0.620  -0.874  0.00  0.00    +0.134 C 
BRANCH  27  28
ATOM     28  C   UNL     1       3.185  -1.862  -0.419  0.00  0.00    +0.003 A 
ATOM     29  C   UNL     1       3.051  -2.312   0.892  0.00  0.00    +0.124 A 
ATOM     30  C   UNL     1       3.975  -2.565  -1.326  0.00  0.00    +0.008 A 
ATOM     31  C   UNL     1       3.711  -3.472   1.299  0.00  0.00    +0.046 A 
ATOM     32  C   UNL     1       4.635  -3.725  -0.919  0.00  0.00    +0.001 A 
ATOM     33  C   UNL     1       4.503  -4.178   0.394  0.00  0.00    +0.004 A 
BRANCH  29   5
ATOM      5  O   UNL     1       2.282  -1.635   1.789  0.00  0.00    -0.495 OA
ATOM     34  C   UNL     1       0.907  -2.006   1.875  0.00  0.00    +0.277 C 
ENDBRANCH  29   5
ENDBRANCH  27  28
ENDBRANCH  22  27
TORSDOF 5
