REMARK  Name = 26743260
REMARK  8 active torsions:
REMARK  status: ('A' for Active; 'I' for Inactive)
REMARK    1  A    between atoms: N_5  and  C_25
REMARK    2  A    between atoms: C_7  and  C_12
REMARK    3  A    between atoms: C_8  and  C_14
REMARK    4  A    between atoms: C_11  and  C_19
REMARK    5  A    between atoms: C_12  and  C_21
REMARK    6  A    between atoms: C_14  and  C_24
REMARK    7  A    between atoms: C_19  and  C_22
REMARK    8  A    between atoms: C_25  and  C_26
REMARK                            x       y       z     vdW  Elec       q    Type
REMARK                         _______ _______ _______ _____ _____    ______ ____
ROOT
ATOM      3  N   UNL     1       5.739  -0.350  -0.839  0.00  0.00    -0.316 NA
ATOM      7  C   UNL     1       3.757   0.505   0.388  0.00  0.00    +0.012 C 
ATOM      8  C   UNL     1       2.801  -0.190  -0.611  0.00  0.00    +0.004 C 
ATOM      9  C   UNL     1       3.533  -0.388  -1.949  0.00  0.00    +0.019 C 
ATOM     10  C   UNL     1       5.111  -0.218   0.476  0.00  0.00    +0.085 C 
ATOM     13  C   UNL     1       4.886  -1.076  -1.778  0.00  0.00    +0.081 C 
ATOM     31  H   UNL     1       6.627  -0.840  -0.741  0.00  0.00    +0.122 HD
ENDROOT
BRANCH   7  12
ATOM     12  C   UNL     1       3.148   0.676   1.781  0.00  0.00    +0.064 C 
BRANCH  12  21
ATOM      1  O   UNL     1       0.579   3.198   1.750  0.00  0.00    -0.359 OA
ATOM      4  N   UNL     1       1.905   2.794   1.845  0.00  0.00    -0.083 NA
ATOM     21  C   UNL     1       1.871   1.464   1.726  0.00  0.00    +0.084 A 
ATOM     22  C   UNL     1      -0.210   2.107   1.579  0.00  0.00    +0.138 A 
ATOM     23  C   UNL     1       0.564   0.977   1.556  0.00  0.00    +0.071 A 
BRANCH  22  19
ATOM     19  C   UNL     1      -1.652   2.353   1.459  0.00  0.00    +0.080 C 
BRANCH  19  11
ATOM     11  C   UNL     1      -2.161   2.261   0.022  0.00  0.00    -0.004 C 
ATOM     15  C   UNL     1      -3.678   2.487  -0.032  0.00  0.00    +0.004 C 
ATOM     16  C   UNL     1      -1.427   3.264  -0.878  0.00  0.00    +0.004 C 
ATOM     17  C   UNL     1      -4.202   2.453  -1.466  0.00  0.00    +0.000 C 
ATOM     18  C   UNL     1      -1.955   3.229  -2.311  0.00  0.00    +0.000 C 
ATOM     20  C   UNL     1      -3.464   3.445  -2.359  0.00  0.00    +0.000 C 
ENDBRANCH  19  11
ENDBRANCH  22  19
ENDBRANCH  12  21
ENDBRANCH   7  12
BRANCH   8  14
ATOM     14  C   UNL     1       2.224  -1.516  -0.103  0.00  0.00    +0.099 C 
BRANCH  14  24
ATOM      2  O   UNL     1       0.445  -1.224  -1.715  0.00  0.00    -0.276 OA
ATOM      5  N   UNL     1       0.465  -3.118  -0.369  0.00  0.00    -0.311 N 
ATOM     24  C   UNL     1       0.957  -1.907  -0.832  0.00  0.00    +0.214 C 
ATOM     32  H   UNL     1       0.955  -3.599   0.380  0.00  0.00    +0.149 HD
BRANCH   5  25
ATOM     25  C   UNL     1      -0.737  -3.732  -0.886  0.00  0.00    +0.141 C 
BRANCH  25  26
ATOM      6  N   UNL     1      -3.317  -3.456   1.864  0.00  0.00    -0.263 NA
ATOM     26  C   UNL     1      -1.959  -3.298  -0.130  0.00  0.00    -0.012 A 
ATOM     27  C   UNL     1      -2.850  -2.380  -0.673  0.00  0.00    +0.008 A 
ATOM     28  C   UNL     1      -2.236  -3.802   1.131  0.00  0.00    +0.115 A 
ATOM     29  C   UNL     1      -3.975  -1.998   0.050  0.00  0.00    +0.020 A 
ATOM     30  C   UNL     1      -4.161  -2.561   1.303  0.00  0.00    +0.111 A 
ENDBRANCH  25  26
ENDBRANCH   5  25
ENDBRANCH  14  24
ENDBRANCH   8  14
TORSDOF 8
