REMARK  Name = 56775540
REMARK  7 active torsions:
REMARK  status: ('A' for Active; 'I' for Inactive)
REMARK    1  A    between atoms: O_3  and  C_19
REMARK    2  A    between atoms: O_3  and  C_20
REMARK    3  A    between atoms: N_4  and  C_6
REMARK    4  A    between atoms: N_4  and  C_7
REMARK    5  A    between atoms: C_6  and  C_12
REMARK    6  A    between atoms: C_12  and  C_16
REMARK    7  A    between atoms: C_18  and  C_19
REMARK                            x       y       z     vdW  Elec       q    Type
REMARK                         _______ _______ _______ _____ _____    ______ ____
ROOT
ATOM      1  O   UNL     1      -0.039   2.406   1.491  0.00  0.00    -0.376 OA
ATOM      6  C   UNL     1      -0.899   1.139   0.004  0.00  0.00    +0.072 C 
ATOM      8  C   UNL     1      -0.736   1.140   1.519  0.00  0.00    +0.184 C 
ATOM      9  C   UNL     1      -0.243   2.515   0.064  0.00  0.00    +0.184 C 
ENDROOT
BRANCH   6   4
ATOM      4  N   UNL     1      -2.318   1.307  -0.319  0.00  0.00    -0.304 NA
ATOM     21  H   UNL     1      -2.842   1.905   0.320  0.00  0.00    +0.123 HD
BRANCH   4   7
ATOM      7  C   UNL     1      -2.949  -0.007  -0.416  0.00  0.00    +0.054 C 
ATOM     10  C   UNL     1      -2.911  -0.706   0.947  0.00  0.00    +0.019 C 
ATOM     11  C   UNL     1      -4.388   0.142  -0.921  0.00  0.00    +0.019 C 
ATOM     13  C   UNL     1      -3.631  -2.053   0.903  0.00  0.00    +0.002 C 
ATOM     14  C   UNL     1      -5.106  -1.206  -0.964  0.00  0.00    +0.002 C 
ATOM     15  C   UNL     1      -5.061  -1.911   0.389  0.00  0.00    +0.000 C 
ENDBRANCH   4   7
ENDBRANCH   6   4
BRANCH   6  12
ATOM     12  C   UNL     1      -0.242   0.057  -0.798  0.00  0.00    +0.085 C 
BRANCH  12  16
ATOM      2  O   UNL     1       3.316   0.648  -1.017  0.00  0.00    -0.357 OA
ATOM      5  N   UNL     1       2.009   0.834  -1.450  0.00  0.00    -0.083 NA
ATOM     16  C   UNL     1       1.262   0.096  -0.624  0.00  0.00    +0.086 A 
ATOM     17  C   UNL     1       2.035  -0.571   0.342  0.00  0.00    +0.073 A 
ATOM     18  C   UNL     1       3.319  -0.191   0.051  0.00  0.00    +0.163 A 
BRANCH  18  19
ATOM     19  C   UNL     1       4.628  -0.498   0.639  0.00  0.00    +0.236 C 
BRANCH  19   3
ATOM      3  O   UNL     1       5.343  -1.415  -0.194  0.00  0.00    -0.375 OA
ATOM     20  C   UNL     1       6.612  -1.725   0.357  0.00  0.00    +0.194 C 
ENDBRANCH  19   3
ENDBRANCH  18  19
ENDBRANCH  12  16
ENDBRANCH   6  12
TORSDOF 6
