REMARK  Name = 71693178
REMARK  13 active torsions:
REMARK  status: ('A' for Active; 'I' for Inactive)
REMARK    1  A    between atoms: O_2  and  C_34
REMARK    2  A    between atoms: O_2  and  C_35
REMARK    3  A    between atoms: N_4  and  C_13
REMARK    4  A    between atoms: N_4  and  C_17
REMARK    5  A    between atoms: C_8  and  C_12
REMARK    6  A    between atoms: C_9  and  C_13
REMARK    7  A    between atoms: C_11  and  C_16
REMARK    8  A    between atoms: C_12  and  C_18
REMARK    9  A    between atoms: C_12  and  C_19
REMARK   10  A    between atoms: C_14  and  C_22
REMARK   11  A    between atoms: C_16  and  C_25
REMARK   12  A    between atoms: C_26  and  C_29
REMARK   13  A    between atoms: C_32  and  C_34
REMARK                            x       y       z     vdW  Elec       q    Type
REMARK                         _______ _______ _______ _____ _____    ______ ____
ROOT
ATOM      8  C   UNL     1      -3.443   1.153  -0.610  0.00  0.00    +0.000 C 
ATOM      9  C   UNL     1      -3.200   1.080   0.916  0.00  0.00    +0.029 C 
ATOM     10  C   UNL     1      -3.011  -0.156  -1.286  0.00  0.00    +0.012 C 
ATOM     11  C   UNL     1      -3.718  -1.403  -0.713  0.00  0.00    +0.022 C 
ATOM     14  C   UNL     1      -3.883  -1.351   0.798  0.00  0.00    -0.073 C 
ATOM     15  C   UNL     1      -3.635  -0.236   1.509  0.00  0.00    -0.023 C 
ATOM     22  C   UNL     1      -4.397  -2.588   1.484  0.00  0.00    +0.039 C 
ENDROOT
BRANCH   8  12
ATOM     12  C   UNL     1      -4.907   1.486  -0.928  0.00  0.00    -0.013 C 
ATOM     18  C   UNL     1      -5.230   1.131  -2.376  0.00  0.00    +0.007 C 
ATOM     19  C   UNL     1      -5.189   2.960  -0.656  0.00  0.00    +0.007 C 
ENDBRANCH   8  12
BRANCH   9  13
ATOM     13  C   UNL     1      -1.730   1.329   1.267  0.00  0.00    +0.089 C 
BRANCH  13   4
ATOM      4  N   UNL     1      -1.282   2.603   0.730  0.00  0.00    -0.313 NA
ATOM     36  H   UNL     1      -1.859   3.347   1.121  0.00  0.00    +0.122 HD
BRANCH   4  17
ATOM      1  O   UNL     1       3.939   5.577  -0.574  0.00  0.00    -0.276 OA
ATOM      5  N   UNL     1       2.755   3.769   0.280  0.00  0.00    -0.302 N 
ATOM     17  C   UNL     1       0.122   2.845   1.052  0.00  0.00    +0.057 C 
ATOM     20  C   UNL     1       0.443   4.339   0.919  0.00  0.00    +0.037 C 
ATOM     21  C   UNL     1       1.024   2.018   0.126  0.00  0.00    +0.037 C 
ATOM     23  C   UNL     1       1.929   4.601   1.158  0.00  0.00    +0.109 C 
ATOM     24  C   UNL     1       2.500   2.327   0.380  0.00  0.00    +0.109 C 
ATOM     26  C   UNL     1       3.719   4.363  -0.533  0.00  0.00    +0.212 C 
ATOM     29  C   UNL     1       4.526   3.439  -1.410  0.00  0.00    +0.109 C 
ENDBRANCH   4  17
ENDBRANCH  13   4
ENDBRANCH   9  13
BRANCH  11  16
ATOM     16  C   UNL     1      -2.968  -2.653  -1.189  0.00  0.00    +0.082 C 
BRANCH  16  25
ATOM      6  N   UNL     1      -0.478  -2.762  -1.405  0.00  0.00    -0.342 N 
ATOM      7  N   UNL     1      -1.272  -2.743   0.671  0.00  0.00    -0.232 NA
ATOM     25  C   UNL     1      -1.586  -2.719  -0.605  0.00  0.00    +0.109 A 
ATOM     27  C   UNL     1       0.624  -2.817  -0.591  0.00  0.00    +0.067 A 
ATOM     28  C   UNL     1       0.102  -2.804   0.700  0.00  0.00    +0.089 A 
ATOM     30  C   UNL     1       1.991  -2.876  -0.864  0.00  0.00    +0.042 A 
ATOM     31  C   UNL     1       0.982  -2.852   1.794  0.00  0.00    +0.030 A 
ATOM     32  C   UNL     1       2.852  -2.922   0.237  0.00  0.00    +0.061 A 
ATOM     33  C   UNL     1       2.358  -2.911   1.544  0.00  0.00    +0.017 A 
ATOM     37  H   UNL     1      -0.469  -2.753  -2.416  0.00  0.00    +0.167 HD
BRANCH  32  34
ATOM      3  O   UNL     1       5.091  -3.538   0.778  0.00  0.00    -0.245 OA
ATOM     34  C   UNL     1       4.289  -2.985   0.015  0.00  0.00    +0.339 C 
BRANCH  34   2
ATOM      2  O   UNL     1       4.646  -2.355  -1.145  0.00  0.00    -0.464 OA
ATOM     35  C   UNL     1       6.039  -2.349  -1.475  0.00  0.00    +0.280 C 
ENDBRANCH  34   2
ENDBRANCH  32  34
ENDBRANCH  16  25
ENDBRANCH  11  16
TORSDOF 8
