REMARK  Name = 11912245
REMARK  10 active torsions:
REMARK  status: ('A' for Active; 'I' for Inactive)
REMARK    1  A    between atoms: S_1  and  C_26
REMARK    2  A    between atoms: S_1  and  C_27
REMARK    3  A    between atoms: O_6  and  C_25
REMARK    4  A    between atoms: O_6  and  C_28
REMARK    5  A    between atoms: O_7  and  C_29
REMARK    6  A    between atoms: N_11  and  C_17
REMARK    7  A    between atoms: C_13  and  C_18
REMARK    8  A    between atoms: C_21  and  C_25
REMARK    9  A    between atoms: C_24  and  C_26
REMARK   10  A    between atoms: C_27  and  C_29
REMARK                            x       y       z     vdW  Elec       q    Type
REMARK                         _______ _______ _______ _____ _____    ______ ____
ROOT
ATOM      3  O   UNL     1       4.760  -1.586   0.870  0.00  0.00    -0.273 OA
ATOM      5  O   UNL     1      -1.609  -3.921   0.895  0.00  0.00    -0.275 OA
ATOM      9  N   UNL     1       2.557  -1.453   0.133  0.00  0.00    -0.285 N 
ATOM     10  N   UNL     1       0.026  -2.710  -0.224  0.00  0.00    -0.297 N 
ATOM     13  C   UNL     1       1.497  -0.744  -0.604  0.00  0.00    +0.179 C 
ATOM     14  C   UNL     1       0.441  -1.686  -1.189  0.00  0.00    +0.139 C 
ATOM     15  C   UNL     1       2.116  -2.522   1.039  0.00  0.00    +0.127 C 
ATOM     16  C   UNL     1       1.131  -3.465   0.362  0.00  0.00    +0.127 C 
ATOM     21  C   UNL     1       3.904  -1.076   0.143  0.00  0.00    +0.242 C 
ATOM     24  C   UNL     1      -1.289  -3.023   0.112  0.00  0.00    +0.226 C 
ENDROOT
BRANCH  13  18
ATOM      2  O   UNL     1       0.819   0.002   1.562  0.00  0.00    -0.274 OA
ATOM     11  N   UNL     1       0.414   1.369  -0.278  0.00  0.00    -0.302 N 
ATOM     18  C   UNL     1       0.887   0.234   0.358  0.00  0.00    +0.236 C 
ATOM     30  H   UNL     1       0.534   1.458  -1.283  0.00  0.00    +0.150 HD
BRANCH  11  17
ATOM      4  O   UNL     1      -1.974   2.278  -1.248  0.00  0.00    -0.274 OA
ATOM     12  N   UNL     1      -1.629   4.341  -0.331  0.00  0.00    -0.314 N 
ATOM     17  C   UNL     1      -0.236   2.449   0.418  0.00  0.00    +0.159 C 
ATOM     19  C   UNL     1       0.780   3.483   0.883  0.00  0.00    +0.033 C 
ATOM     20  C   UNL     1       0.053   4.689   1.455  0.00  0.00    +0.021 C 
ATOM     22  C   UNL     1      -0.808   5.310   0.371  0.00  0.00    +0.104 C 
ATOM     23  C   UNL     1      -1.327   3.004  -0.491  0.00  0.00    +0.233 C 
ATOM     31  H   UNL     1      -2.393   4.709  -0.890  0.00  0.00    +0.149 HD
ENDBRANCH  11  17
ENDBRANCH  13  18
BRANCH  21  25
ATOM     25  C   UNL     1       4.308   0.018  -0.814  0.00  0.00    +0.255 C 
BRANCH  25   6
ATOM      6  O   UNL     1       5.680   0.249  -0.603  0.00  0.00    -0.374 OA
ATOM     28  C   UNL     1       6.189   1.273  -1.456  0.00  0.00    +0.194 C 
ENDBRANCH  25   6
ENDBRANCH  21  25
BRANCH  24  26
ATOM     26  C   UNL     1      -2.367  -2.191  -0.536  0.00  0.00    +0.165 C 
BRANCH  26   1
ATOM      1  S   UNL     1      -3.955  -2.797   0.053  0.00  0.00    -0.140 S 
BRANCH   1  27
ATOM     27  C   UNL     1      -5.039  -1.663  -0.849  0.00  0.00    +0.189 C 
BRANCH  27  29
ATOM      8  O   UNL     1      -4.962  -0.219   1.079  0.00  0.00    -0.250 OA
ATOM     29  C   UNL     1      -5.089  -0.345  -0.133  0.00  0.00    +0.315 C 
BRANCH  29   7
ATOM      7  O   UNL     1      -5.275   0.703  -0.975  0.00  0.00    -0.480 OA
ATOM     32  H   UNL     1      -5.297   1.558  -0.496  0.00  0.00    +0.295 HD
ENDBRANCH  29   7
ENDBRANCH  27  29
ENDBRANCH   1  27
ENDBRANCH  26   1
ENDBRANCH  24  26
TORSDOF 9
