REMARK  Name = 28961874
REMARK  8 active torsions:
REMARK  status: ('A' for Active; 'I' for Inactive)
REMARK    1  A    between atoms: O_4  and  C_13
REMARK    2  A    between atoms: O_5  and  C_20
REMARK    3  A    between atoms: N_7  and  C_11
REMARK    4  A    between atoms: N_8  and  C_21
REMARK    5  A    between atoms: N_9  and  C_17
REMARK    6  A    between atoms: N_10  and  C_28
REMARK    7  A    between atoms: C_12  and  C_17
REMARK    8  A    between atoms: C_14  and  C_20
REMARK                            x       y       z     vdW  Elec       q    Type
REMARK                         _______ _______ _______ _____ _____    ______ ____
ROOT
ATOM      3  O   UNL     1      -1.558  -2.256   0.718  0.00  0.00    -0.365 OA
ATOM     11  C   UNL     1       0.792  -1.878   0.756  0.00  0.00    +0.118 C 
ATOM     12  C   UNL     1      -0.580  -1.192   0.728  0.00  0.00    +0.155 C 
ATOM     13  C   UNL     1       0.513  -3.228   0.113  0.00  0.00    +0.165 C 
ATOM     14  C   UNL     1      -0.875  -3.523   0.668  0.00  0.00    +0.174 C 
ENDROOT
BRANCH  11   7
ATOM      7  N   UNL     1       1.895  -1.132   0.178  0.00  0.00    -0.292 NA
ATOM      8  N   UNL     1       4.437   0.172   0.162  0.00  0.00    -0.327 N 
ATOM     15  C   UNL     1       2.080   0.143   0.883  0.00  0.00    +0.104 C 
ATOM     16  C   UNL     1       3.134  -1.917   0.233  0.00  0.00    +0.104 C 
ATOM     18  C   UNL     1       3.204   0.964   0.247  0.00  0.00    +0.120 C 
ATOM     19  C   UNL     1       4.293  -1.165  -0.424  0.00  0.00    +0.120 C 
BRANCH   8  21
ATOM      2  F   UNL     1       9.235   2.876  -0.321  0.00  0.00    -0.205 F 
ATOM     21  C   UNL     1       5.651   0.856   0.039  0.00  0.00    +0.030 A 
ATOM     23  C   UNL     1       6.050   1.751   1.032  0.00  0.00    +0.026 A 
ATOM     24  C   UNL     1       6.463   0.643  -1.075  0.00  0.00    +0.026 A 
ATOM     25  C   UNL     1       7.260   2.434   0.911  0.00  0.00    +0.040 A 
ATOM     26  C   UNL     1       7.674   1.326  -1.196  0.00  0.00    +0.040 A 
ATOM     27  C   UNL     1       8.072   2.221  -0.203  0.00  0.00    +0.124 A 
ENDBRANCH   8  21
ENDBRANCH  11   7
BRANCH  13   4
ATOM      4  O   UNL     1       0.470  -3.129  -1.305  0.00  0.00    -0.388 OA
ATOM     34  H   UNL     1       0.397  -4.031  -1.661  0.00  0.00    +0.210 HD
ENDBRANCH  13   4
BRANCH  12  17
ATOM     17  C   UNL     1      -0.872  -0.298  -0.471  0.00  0.00    +0.139 C 
BRANCH  17   9
ATOM      6  O   UNL     1      -3.671  -0.733  -0.897  0.00  0.00    -0.253 OA
ATOM      9  N   UNL     1      -1.935   0.619  -0.184  0.00  0.00    -0.297 N 
ATOM     10  N   UNL     1      -4.096   1.412  -0.044  0.00  0.00    -0.269 N 
ATOM     22  C   UNL     1      -3.291   0.334  -0.421  0.00  0.00    +0.304 C 
ATOM     35  H   UNL     1      -1.695   1.517   0.224  0.00  0.00    +0.150 HD
ATOM     37  H   UNL     1      -3.619   2.226   0.335  0.00  0.00    +0.156 HD
BRANCH  10  28
ATOM      1 CL   UNL     1      -8.327   4.213   0.741  0.00  0.00    -0.083 Cl
ATOM     28  C   UNL     1      -5.504   1.514  -0.125  0.00  0.00    +0.036 A 
ATOM     29  C   UNL     1      -6.146   2.677   0.299  0.00  0.00    +0.043 A 
ATOM     30  C   UNL     1      -6.252   0.450  -0.631  0.00  0.00    +0.023 A 
ATOM     31  C   UNL     1      -7.535   2.777   0.218  0.00  0.00    +0.043 A 
ATOM     32  C   UNL     1      -7.640   0.550  -0.712  0.00  0.00    +0.003 A 
ATOM     33  C   UNL     1      -8.282   1.713  -0.287  0.00  0.00    +0.020 A 
ENDBRANCH  10  28
ENDBRANCH  17   9
ENDBRANCH  12  17
BRANCH  14  20
ATOM     20  C   UNL     1      -1.704  -4.507  -0.137  0.00  0.00    +0.190 C 
BRANCH  20   5
ATOM      5  O   UNL     1      -2.956  -4.686   0.507  0.00  0.00    -0.392 OA
ATOM     36  H   UNL     1      -3.464  -5.321  -0.026  0.00  0.00    +0.210 HD
ENDBRANCH  20   5
ENDBRANCH  14  20
TORSDOF 8
