REMARK  Name = 45784285
REMARK  5 active torsions:
REMARK  status: ('A' for Active; 'I' for Inactive)
REMARK    1  A    between atoms: O_1  and  C_21
REMARK    2  A    between atoms: O_1  and  C_23
REMARK    3  A    between atoms: N_2  and  C_6
REMARK    4  A    between atoms: C_5  and  C_6
REMARK    5  A    between atoms: C_7  and  C_16
REMARK                            x       y       z     vdW  Elec       q    Type
REMARK                         _______ _______ _______ _____ _____    ______ ____
ROOT
ATOM      2  N   UNL     1      -2.441   1.065   0.275  0.00  0.00    -0.301 NA
ATOM      7  C   UNL     1      -0.218   0.770   0.960  0.00  0.00    +0.070 C 
ATOM      8  C   UNL     1      -1.302   0.171   0.054  0.00  0.00    +0.095 C 
ATOM      9  C   UNL     1      -1.870   2.412   0.270  0.00  0.00    +0.085 C 
ATOM     12  C   UNL     1      -0.612   2.250   1.113  0.00  0.00    +0.028 C 
ENDROOT
BRANCH   7  16
ATOM      3  N   UNL     1       2.105  -0.157   1.169  0.00  0.00    -0.341 N 
ATOM      4  N   UNL     1       1.668   0.943  -0.713  0.00  0.00    -0.232 NA
ATOM     16  C   UNL     1       1.181   0.537   0.438  0.00  0.00    +0.113 A 
ATOM     17  C   UNL     1       3.266  -0.202   0.440  0.00  0.00    +0.070 A 
ATOM     18  C   UNL     1       2.968   0.491  -0.729  0.00  0.00    +0.089 A 
ATOM     19  C   UNL     1       4.513  -0.773   0.697  0.00  0.00    +0.073 A 
ATOM     20  C   UNL     1       3.961   0.634  -1.713  0.00  0.00    +0.033 A 
ATOM     21  C   UNL     1       5.490  -0.621  -0.293  0.00  0.00    +0.122 A 
ATOM     22  C   UNL     1       5.221   0.070  -1.477  0.00  0.00    +0.048 A 
ATOM     24  H   UNL     1       1.962  -0.566   2.083  0.00  0.00    +0.167 HD
BRANCH  21   1
ATOM      1  O   UNL     1       6.728  -1.158  -0.097  0.00  0.00    -0.495 OA
ATOM     23  C   UNL     1       6.945  -1.851   1.130  0.00  0.00    +0.277 C 
ENDBRANCH  21   1
ENDBRANCH   7  16
BRANCH   2   6
ATOM      6  C   UNL     1      -3.480   0.900  -0.731  0.00  0.00    +0.088 C 
BRANCH   6   5
ATOM      5  C   UNL     1      -4.362  -0.305  -0.410  0.00  0.00    +0.003 C 
ATOM     10  C   UNL     1      -5.387  -0.540  -1.528  0.00  0.00    +0.005 C 
ATOM     11  C   UNL     1      -5.062  -0.119   0.943  0.00  0.00    +0.005 C 
ATOM     13  C   UNL     1      -6.316  -1.707  -1.205  0.00  0.00    +0.000 C 
ATOM     14  C   UNL     1      -5.992  -1.287   1.262  0.00  0.00    +0.000 C 
ATOM     15  C   UNL     1      -7.004  -1.523   0.144  0.00  0.00    +0.000 C 
ENDBRANCH   6   5
ENDBRANCH   2   6
TORSDOF 4
