REMARK  Name = 56774074
REMARK  11 active torsions:
REMARK  status: ('A' for Active; 'I' for Inactive)
REMARK    1  A    between atoms: S_1  and  N_5
REMARK    2  A    between atoms: S_1  and  C_16
REMARK    3  A    between atoms: N_5  and  C_9
REMARK    4  A    between atoms: C_7  and  C_12
REMARK    5  A    between atoms: C_7  and  C_13
REMARK    6  A    between atoms: C_8  and  C_11
REMARK    7  A    between atoms: C_11  and  C_14
REMARK    8  A    between atoms: C_17  and  C_18
REMARK    9  A    between atoms: C_18  and  C_19
REMARK   10  A    between atoms: C_19  and  C_20
REMARK   11  A    between atoms: C_20  and  C_21
REMARK                            x       y       z     vdW  Elec       q    Type
REMARK                         _______ _______ _______ _____ _____    ______ ____
ROOT
ATOM      7  C   UNL     1      -2.496   1.751  -0.258  0.00  0.00    -0.015 C 
ATOM      8  C   UNL     1      -1.088   1.451   0.295  0.00  0.00    +0.004 C 
ATOM      9  C   UNL     1      -2.940   0.407   0.357  0.00  0.00    +0.082 C 
ATOM     10  C   UNL     1      -1.469  -0.043   0.244  0.00  0.00    +0.025 C 
ATOM     12  C   UNL     1      -2.621   1.780  -1.770  0.00  0.00    +0.013 C 
ATOM     13  C   UNL     1      -3.128   2.989   0.339  0.00  0.00    +0.013 C 
ENDROOT
BRANCH   9   5
ATOM      5  N   UNL     1      -3.935  -0.417  -0.414  0.00  0.00    -0.191 NA
ATOM     22  H   UNL     1      -4.721   0.145  -0.769  0.00  0.00    +0.148 HD
BRANCH   5   1
ATOM      1  S   UNL     1      -4.344  -2.037  -0.053  0.00  0.00    +0.027 S 
ATOM      2  O   UNL     1      -3.138  -2.840   0.009  0.00  0.00    -0.158 OA
ATOM      3  O   UNL     1      -5.462  -2.428  -0.888  0.00  0.00    -0.158 OA
ATOM     16  C   UNL     1      -4.954  -1.840   1.605  0.00  0.00    +0.214 C 
ENDBRANCH   5   1
ENDBRANCH   9   5
BRANCH   8  11
ATOM     11  C   UNL     1       0.111   1.841  -0.580  0.00  0.00    +0.063 C 
BRANCH  11  14
ATOM      4  O   UNL     1       3.178   1.092   1.089  0.00  0.00    -0.359 OA
ATOM      6  N   UNL     1       2.096   1.921   0.821  0.00  0.00    -0.083 NA
ATOM     14  C   UNL     1       1.357   1.250  -0.067  0.00  0.00    +0.084 A 
ATOM     15  C   UNL     1       1.919   0.004  -0.395  0.00  0.00    +0.071 A 
ATOM     17  C   UNL     1       3.062  -0.047   0.359  0.00  0.00    +0.138 A 
BRANCH  17  18
ATOM     18  C   UNL     1       4.158  -1.068   0.526  0.00  0.00    +0.077 C 
BRANCH  18  19
ATOM     19  C   UNL     1       5.422  -0.672  -0.240  0.00  0.00    +0.007 C 
BRANCH  19  20
ATOM     20  C   UNL     1       6.513  -1.732  -0.093  0.00  0.00    -0.003 C 
ATOM     21  C   UNL     1       7.758  -1.363  -0.885  0.00  0.00    +0.004 C 
ENDBRANCH  19  20
ENDBRANCH  18  19
ENDBRANCH  17  18
ENDBRANCH  11  14
ENDBRANCH   8  11
TORSDOF 7
