REMARK  Name = 11911754
REMARK  10 active torsions:
REMARK  status: ('A' for Active; 'I' for Inactive)
REMARK    1  A    between atoms: N_4  and  C_11
REMARK    2  A    between atoms: N_5  and  C_12
REMARK    3  A    between atoms: N_8  and  C_29
REMARK    4  A    between atoms: N_8  and  C_30
REMARK    5  A    between atoms: N_8  and  C_31
REMARK    6  A    between atoms: C_16  and  C_17
REMARK    7  A    between atoms: C_18  and  C_19
REMARK    8  A    between atoms: C_18  and  C_22
REMARK    9  A    between atoms: C_18  and  C_23
REMARK   10  A    between atoms: C_18  and  C_24
REMARK                            x       y       z     vdW  Elec       q    Type
REMARK                         _______ _______ _______ _____ _____    ______ ____
ROOT
ATOM      1  O   UNL     1       1.137   3.593  -0.885  0.00  0.00    -0.370 OA
ATOM      2  O   UNL     1       0.945   1.679   1.572  0.00  0.00    -0.370 OA
ATOM      9  C   UNL     1       1.317   1.482   0.197  0.00  0.00    +0.171 C 
ATOM     10  C   UNL     1       0.421   2.371  -0.643  0.00  0.00    +0.171 C 
ATOM     11  C   UNL     1       2.707   2.017  -0.052  0.00  0.00    +0.130 C 
ATOM     12  C   UNL     1      -0.776   2.629   0.244  0.00  0.00    +0.130 C 
ATOM     13  C   UNL     1       2.453   3.489  -0.323  0.00  0.00    +0.185 C 
ATOM     14  C   UNL     1      -0.167   2.583   1.634  0.00  0.00    +0.185 C 
ENDROOT
BRANCH  11   4
ATOM      4  N   UNL     1       3.279   1.385  -1.221  0.00  0.00    -0.306 N 
ATOM      6  N   UNL     1       4.050  -0.454   0.016  0.00  0.00    -0.219 NA
ATOM      7  N   UNL     1       4.428  -0.315  -2.360  0.00  0.00    -0.223 NA
ATOM     15  C   UNL     1       3.938   0.169  -1.187  0.00  0.00    +0.216 A 
ATOM     19  C   UNL     1       4.698  -1.637   0.012  0.00  0.00    +0.052 A 
ATOM     20  C   UNL     1       5.231  -2.216  -1.122  0.00  0.00    +0.043 A 
ATOM     21  C   UNL     1       5.065  -1.502  -2.291  0.00  0.00    +0.116 A 
ATOM     32  H   UNL     1       3.156   1.815  -2.130  0.00  0.00    +0.149 HD
BRANCH  19  18
ATOM     18  C   UNL     1       4.830  -2.335   1.324  0.00  0.00    +0.005 C 
ATOM     22  C   UNL     1       6.328  -2.546   1.705  0.00  0.00    +0.017 C 
ATOM     23  C   UNL     1       4.151  -3.740   1.288  0.00  0.00    +0.017 C 
ATOM     24  C   UNL     1       4.190  -1.595   2.545  0.00  0.00    +0.017 C 
ENDBRANCH  19  18
ENDBRANCH  11   4
BRANCH  12   5
ATOM      3  O   UNL     1      -3.593   2.893   0.734  0.00  0.00    -0.270 OA
ATOM      5  N   UNL     1      -1.779   1.605   0.078  0.00  0.00    -0.304 N 
ATOM     16  C   UNL     1      -3.123   1.829   0.342  0.00  0.00    +0.244 C 
ATOM     33  H   UNL     1      -1.449   0.669  -0.132  0.00  0.00    +0.149 HD
BRANCH  16  17
ATOM     17  C   UNL     1      -4.026   0.665   0.148  0.00  0.00    +0.037 A 
ATOM     25  C   UNL     1      -5.194   0.599   0.878  0.00  0.00    +0.015 A 
ATOM     26  C   UNL     1      -3.667  -0.313  -0.758  0.00  0.00    +0.015 A 
ATOM     27  C   UNL     1      -6.043  -0.493   0.695  0.00  0.00    +0.024 A 
ATOM     28  C   UNL     1      -4.516  -1.405  -0.941  0.00  0.00    +0.024 A 
ATOM     29  C   UNL     1      -5.703  -1.495  -0.215  0.00  0.00    +0.029 A 
BRANCH  29   8
ATOM      8  N   UNL     1      -6.561  -2.599  -0.402  0.00  0.00    -0.336 N 
ATOM     30  C   UNL     1      -6.025  -3.888  -0.792  0.00  0.00    +0.129 C 
ATOM     31  C   UNL     1      -7.992  -2.455  -0.219  0.00  0.00    +0.129 C 
ENDBRANCH  29   8
ENDBRANCH  16  17
ENDBRANCH  12   5
TORSDOF 5
