REMARK  Name = 26742970
REMARK  13 active torsions:
REMARK  status: ('A' for Active; 'I' for Inactive)
REMARK    1  A    between atoms: N_4  and  C_18
REMARK    2  A    between atoms: N_6  and  C_20
REMARK    3  A    between atoms: N_6  and  C_24
REMARK    4  A    between atoms: N_6  and  C_25
REMARK    5  A    between atoms: C_7  and  C_13
REMARK    6  A    between atoms: C_8  and  C_11
REMARK    7  A    between atoms: C_11  and  C_14
REMARK    8  A    between atoms: C_13  and  C_15
REMARK    9  A    between atoms: C_17  and  C_19
REMARK   10  A    between atoms: C_18  and  C_20
REMARK   11  A    between atoms: C_19  and  C_21
REMARK   12  A    between atoms: C_21  and  C_22
REMARK   13  A    between atoms: C_22  and  C_23
REMARK                            x       y       z     vdW  Elec       q    Type
REMARK                         _______ _______ _______ _____ _____    ______ ____
ROOT
ATOM      3  N   UNL     1      -0.607   2.907   0.234  0.00  0.00    -0.316 NA
ATOM      7  C   UNL     1       0.891   0.560  -0.742  0.00  0.00    +0.004 C 
ATOM      8  C   UNL     1      -0.604   0.493  -0.350  0.00  0.00    +0.012 C 
ATOM      9  C   UNL     1       1.244   2.005  -1.131  0.00  0.00    +0.019 C 
ATOM     10  C   UNL     1      -0.966   1.565   0.693  0.00  0.00    +0.085 C 
ATOM     12  C   UNL     1       0.819   3.016  -0.066  0.00  0.00    +0.081 C 
ATOM     26  H   UNL     1      -0.853   3.587   0.952  0.00  0.00    +0.122 HD
ENDROOT
BRANCH   8  11
ATOM     11  C   UNL     1      -1.036  -0.892   0.132  0.00  0.00    +0.064 C 
BRANCH  11  14
ATOM      1  O   UNL     1      -4.397  -1.627  -0.930  0.00  0.00    -0.359 OA
ATOM      5  N   UNL     1      -3.023  -1.585  -1.137  0.00  0.00    -0.083 NA
ATOM     14  C   UNL     1      -2.519  -1.081  -0.006  0.00  0.00    +0.084 A 
ATOM     16  C   UNL     1      -3.517  -0.790   0.940  0.00  0.00    +0.071 A 
ATOM     17  C   UNL     1      -4.678  -1.151   0.310  0.00  0.00    +0.138 A 
BRANCH  17  19
ATOM     19  C   UNL     1      -6.095  -1.125   0.695  0.00  0.00    +0.077 C 
BRANCH  19  21
ATOM     21  C   UNL     1      -6.874   0.046   0.057  0.00  0.00    +0.007 C 
BRANCH  21  22
ATOM     22  C   UNL     1      -8.336   0.090   0.501  0.00  0.00    -0.003 C 
ATOM     23  C   UNL     1      -9.069   1.274  -0.110  0.00  0.00    +0.004 C 
ENDBRANCH  21  22
ENDBRANCH  19  21
ENDBRANCH  17  19
ENDBRANCH  11  14
ENDBRANCH   8  11
BRANCH   7  13
ATOM     13  C   UNL     1       1.844   0.037   0.340  0.00  0.00    +0.099 C 
BRANCH  13  15
ATOM      2  O   UNL     1       3.475  -0.281  -1.418  0.00  0.00    -0.276 OA
ATOM      4  N   UNL     1       4.042  -0.807   0.774  0.00  0.00    -0.314 N 
ATOM     15  C   UNL     1       3.192  -0.357  -0.225  0.00  0.00    +0.213 C 
ATOM     27  H   UNL     1       3.714  -0.823   1.735  0.00  0.00    +0.149 HD
BRANCH   4  18
ATOM     18  C   UNL     1       5.394  -1.250   0.520  0.00  0.00    +0.119 C 
BRANCH  18  20
ATOM     20  C   UNL     1       6.380  -0.096   0.618  0.00  0.00    +0.102 C 
BRANCH  20   6
ATOM      6  N   UNL     1       7.739  -0.569   0.387  0.00  0.00    -0.307 NA
ATOM     24  C   UNL     1       8.714   0.360   0.962  0.00  0.00    +0.104 C 
ATOM     25  C   UNL     1       7.988  -0.744  -1.046  0.00  0.00    +0.104 C 
ENDBRANCH  20   6
ENDBRANCH  18  20
ENDBRANCH   4  18
ENDBRANCH  13  15
ENDBRANCH   7  13
TORSDOF 10
