REMARK  Name = 26742314
REMARK  6 active torsions:
REMARK  status: ('A' for Active; 'I' for Inactive)
REMARK    1  A    between atoms: S_1  and  N_8
REMARK    2  A    between atoms: S_1  and  C_26
REMARK    3  A    between atoms: N_5  and  C_14
REMARK    4  A    between atoms: N_7  and  C_25
REMARK    5  A    between atoms: N_8  and  C_21
REMARK    6  A    between atoms: C_31  and  C_32
REMARK                            x       y       z     vdW  Elec       q    Type
REMARK                         _______ _______ _______ _____ _____    ______ ____
ROOT
ATOM      2  O   UNL     1      -1.427  -4.546   0.463  0.00  0.00    -0.268 OA
ATOM      5  N   UNL     1      -2.323   0.384   0.810  0.00  0.00    -0.298 NA
ATOM      6  N   UNL     1      -0.664  -2.346   0.727  0.00  0.00    -0.310 N 
ATOM      9  C   UNL     1      -1.351  -0.901   2.730  0.00  0.00    +0.024 C 
ATOM     10  C   UNL     1       0.139   0.019   1.019  0.00  0.00    +0.052 C 
ATOM     11  C   UNL     1      -0.000  -0.239   2.518  0.00  0.00    +0.017 C 
ATOM     12  C   UNL     1      -2.482   0.017   2.223  0.00  0.00    +0.090 C 
ATOM     13  C   UNL     1      -0.995   0.961   0.553  0.00  0.00    +0.094 C 
ATOM     15  C   UNL     1      -1.336  -2.263   2.032  0.00  0.00    +0.130 C 
ATOM     16  C   UNL     1       0.111  -1.284   0.221  0.00  0.00    +0.049 A 
ATOM     21  C   UNL     1       0.767  -1.465  -0.944  0.00  0.00    +0.068 A 
ATOM     22  C   UNL     1      -0.775  -3.582   0.059  0.00  0.00    +0.252 A 
ATOM     23  C   UNL     1       0.704  -2.701  -1.670  0.00  0.00    +0.031 A 
ATOM     24  C   UNL     1      -0.030  -3.720  -1.219  0.00  0.00    +0.072 A 
ENDROOT
BRANCH   5  14
ATOM      7  N   UNL     1      -5.707   1.843  -1.307  0.00  0.00    -0.305 NA
ATOM     14  C   UNL     1      -3.382   1.296   0.383  0.00  0.00    +0.059 C 
ATOM     17  C   UNL     1      -4.755   0.679   0.658  0.00  0.00    +0.034 C 
ATOM     18  C   UNL     1      -3.249   1.632  -1.105  0.00  0.00    +0.034 C 
ATOM     19  C   UNL     1      -5.876   1.576   0.128  0.00  0.00    +0.085 C 
ATOM     20  C   UNL     1      -4.419   2.498  -1.578  0.00  0.00    +0.085 C 
ATOM     25  C   UNL     1      -6.811   2.660  -1.810  0.00  0.00    +0.104 C 
ENDBRANCH   5  14
BRANCH  21   8
ATOM      8  N   UNL     1       1.526  -0.401  -1.486  0.00  0.00    -0.215 N 
ATOM     33  H   UNL     1       1.287   0.530  -1.124  0.00  0.00    +0.174 HD
BRANCH   8   1
ATOM      1  S   UNL     1       3.173  -0.685  -1.729  0.00  0.00    +0.072 S 
ATOM      3  O   UNL     1       3.537  -1.971  -1.163  0.00  0.00    -0.150 OA
ATOM      4  O   UNL     1       3.531  -0.362  -3.097  0.00  0.00    -0.150 OA
BRANCH   1  26
ATOM     26  C   UNL     1       3.870   0.565  -0.691  0.00  0.00    +0.109 A 
ATOM     27  C   UNL     1       4.149   0.286   0.647  0.00  0.00    +0.029 A 
ATOM     28  C   UNL     1       4.143   1.830  -1.211  0.00  0.00    +0.029 A 
ATOM     29  C   UNL     1       4.701   1.272   1.465  0.00  0.00    +0.005 A 
ATOM     30  C   UNL     1       4.695   2.817  -0.393  0.00  0.00    +0.005 A 
ATOM     31  C   UNL     1       4.973   2.538   0.945  0.00  0.00    -0.050 A 
ATOM     32  C   UNL     1       5.562   3.592   1.820  0.00  0.00    +0.044 C 
ENDBRANCH   1  26
ENDBRANCH   8   1
ENDBRANCH  21   8
TORSDOF 4
