REMARK  Name = 26742380
REMARK  7 active torsions:
REMARK  status: ('A' for Active; 'I' for Inactive)
REMARK    1  A    between atoms: N_3  and  C_14
REMARK    2  A    between atoms: N_6  and  C_22
REMARK    3  A    between atoms: C_8  and  C_15
REMARK    4  A    between atoms: C_9  and  C_14
REMARK    5  A    between atoms: C_17  and  C_20
REMARK    6  A    between atoms: C_18  and  C_21
REMARK    7  A    between atoms: C_22  and  C_27
REMARK                            x       y       z     vdW  Elec       q    Type
REMARK                         _______ _______ _______ _____ _____    ______ ____
ROOT
ATOM      2  N   UNL     1      -1.742  -2.003   1.266  0.00  0.00    -0.297 NA
ATOM      7  C   UNL     1      -1.078  -1.986  -1.252  0.00  0.00    +0.002 C 
ATOM      8  C   UNL     1       0.183  -1.845  -0.356  0.00  0.00    +0.055 C 
ATOM      9  C   UNL     1      -2.583  -1.026   0.525  0.00  0.00    +0.074 C 
ATOM     10  C   UNL     1      -2.069  -0.850  -0.920  0.00  0.00    +0.024 C 
ATOM     11  C   UNL     1      -1.760  -3.313  -0.857  0.00  0.00    +0.019 C 
ATOM     12  C   UNL     1      -0.307  -1.661   1.109  0.00  0.00    +0.094 C 
ATOM     13  C   UNL     1      -1.967  -3.341   0.668  0.00  0.00    +0.085 C 
ENDROOT
BRANCH   8  15
ATOM      4  N   UNL     1       0.979  -0.081  -1.852  0.00  0.00    -0.237 NA
ATOM      5  N   UNL     1       3.079   1.049  -1.502  0.00  0.00    -0.232 NA
ATOM     15  C   UNL     1       1.232  -0.814  -0.748  0.00  0.00    +0.050 A 
ATOM     16  C   UNL     1       2.370  -0.676   0.021  0.00  0.00    +0.052 A 
ATOM     17  C   UNL     1       3.268   0.281  -0.408  0.00  0.00    +0.075 A 
ATOM     18  C   UNL     1       1.931   0.819  -2.167  0.00  0.00    +0.127 A 
ATOM     21  C   UNL     1       1.687   1.647  -3.382  0.00  0.00    +0.088 C 
BRANCH  17  20
ATOM     20  C   UNL     1       4.498   0.523   0.307  0.00  0.00    +0.000 A 
ATOM     23  C   UNL     1       4.460   0.930   1.641  0.00  0.00    +0.010 A 
ATOM     24  C   UNL     1       5.723   0.351  -0.336  0.00  0.00    +0.010 A 
ATOM     25  C   UNL     1       5.649   1.164   2.332  0.00  0.00    +0.001 A 
ATOM     26  C   UNL     1       6.912   0.586   0.356  0.00  0.00    +0.001 A 
ATOM     28  C   UNL     1       6.875   0.992   1.690  0.00  0.00    +0.000 A 
ENDBRANCH  17  20
ENDBRANCH   8  15
BRANCH   9  14
ATOM     14  C   UNL     1      -2.701   0.313   1.256  0.00  0.00    +0.124 C 
BRANCH  14   3
ATOM      1  O   UNL     1      -5.545   0.540   1.683  0.00  0.00    -0.253 OA
ATOM      3  N   UNL     1      -3.607   1.187   0.577  0.00  0.00    -0.298 N 
ATOM      6  N   UNL     1      -5.626   2.176   0.038  0.00  0.00    -0.300 N 
ATOM     19  C   UNL     1      -4.981   1.239   0.842  0.00  0.00    +0.300 C 
ATOM     29  H   UNL     1      -3.235   1.802  -0.141  0.00  0.00    +0.150 HD
ATOM     30  H   UNL     1      -5.078   2.699  -0.637  0.00  0.00    +0.150 HD
BRANCH   6  22
ATOM     22  C   UNL     1      -7.046   2.425   0.113  0.00  0.00    +0.102 C 
ATOM     27  C   UNL     1      -7.834   1.375  -0.643  0.00  0.00    +0.024 C 
ENDBRANCH   6  22
ENDBRANCH  14   3
ENDBRANCH   9  14
TORSDOF 5
