REMARK  Name = 11884624
REMARK  9 active torsions:
REMARK  status: ('A' for Active; 'I' for Inactive)
REMARK    1  A    between atoms: O_3  and  C_11
REMARK    2  A    between atoms: O_3  and  C_16
REMARK    3  A    between atoms: O_5  and  C_30
REMARK    4  A    between atoms: O_5  and  C_34
REMARK    5  A    between atoms: N_6  and  C_10
REMARK    6  A    between atoms: N_6  and  C_14
REMARK    7  A    between atoms: N_7  and  C_22
REMARK    8  A    between atoms: C_14  and  C_15
REMARK    9  A    between atoms: C_21  and  C_23
REMARK                            x       y       z     vdW  Elec       q    Type
REMARK                         _______ _______ _______ _____ _____    ______ ____
ROOT
ATOM      1  O   UNL     1      -1.163   2.098  -1.333  0.00  0.00    -0.369 OA
ATOM      2  O   UNL     1      -0.809   4.069   0.974  0.00  0.00    -0.369 OA
ATOM      8  C   UNL     1      -0.105   2.852   0.647  0.00  0.00    +0.170 C 
ATOM      9  C   UNL     1      -1.133   1.888   0.090  0.00  0.00    +0.191 C 
ATOM     10  C   UNL     1       0.839   3.095  -0.511  0.00  0.00    +0.111 C 
ATOM     11  C   UNL     1      -2.408   2.356   0.749  0.00  0.00    +0.235 C 
ATOM     12  C   UNL     1      -0.101   2.990  -1.704  0.00  0.00    +0.181 C 
ATOM     13  C   UNL     1      -2.216   3.855   0.788  0.00  0.00    +0.207 C 
ENDROOT
BRANCH  10   6
ATOM      6  N   UNL     1       1.866   2.059  -0.594  0.00  0.00    -0.305 NA
ATOM     35  H   UNL     1       2.183   1.973  -1.560  0.00  0.00    +0.123 HD
BRANCH   6  14
ATOM     14  C   UNL     1       3.012   2.399   0.236  0.00  0.00    +0.116 C 
BRANCH  14  15
ATOM     15  C   UNL     1       4.084   1.345   0.172  0.00  0.00    -0.034 A 
ATOM     17  C   UNL     1       4.074   0.284   1.077  0.00  0.00    +0.005 A 
ATOM     18  C   UNL     1       5.088   1.428  -0.793  0.00  0.00    +0.005 A 
ATOM     19  C   UNL     1       5.067  -0.693   1.019  0.00  0.00    +0.009 A 
ATOM     20  C   UNL     1       6.082   0.451  -0.852  0.00  0.00    +0.009 A 
ATOM     21  C   UNL     1       6.071  -0.610   0.054  0.00  0.00    -0.018 A 
BRANCH  21  23
ATOM     23  C   UNL     1       7.102  -1.623  -0.008  0.00  0.00    -0.018 A 
ATOM     26  C   UNL     1       6.919  -2.756  -0.800  0.00  0.00    +0.008 A 
ATOM     27  C   UNL     1       8.278  -1.467   0.725  0.00  0.00    +0.008 A 
ATOM     31  C   UNL     1       7.913  -3.734  -0.860  0.00  0.00    +0.001 A 
ATOM     32  C   UNL     1       9.272  -2.445   0.666  0.00  0.00    +0.001 A 
ATOM     33  C   UNL     1       9.089  -3.578  -0.127  0.00  0.00    +0.000 A 
ENDBRANCH  21  23
ENDBRANCH  14  15
ENDBRANCH   6  14
ENDBRANCH  10   6
BRANCH  11   3
ATOM      3  O   UNL     1      -3.573   1.988   0.045  0.00  0.00    -0.442 OA
BRANCH   3  16
ATOM      4  O   UNL     1      -3.744   0.090   1.309  0.00  0.00    -0.226 OA
ATOM      7  N   UNL     1      -5.298   0.595  -0.367  0.00  0.00    -0.251 N 
ATOM     16  C   UNL     1      -4.179   0.805   0.414  0.00  0.00    +0.405 C 
ATOM     36  H   UNL     1      -5.500   1.308  -1.065  0.00  0.00    +0.158 HD
BRANCH   7  22
ATOM     22  C   UNL     1      -6.202  -0.491  -0.319  0.00  0.00    +0.037 A 
ATOM     24  C   UNL     1      -7.287  -0.534  -1.195  0.00  0.00    +0.027 A 
ATOM     25  C   UNL     1      -6.010  -1.518   0.605  0.00  0.00    +0.027 A 
ATOM     28  C   UNL     1      -8.179  -1.605  -1.147  0.00  0.00    +0.047 A 
ATOM     29  C   UNL     1      -6.902  -2.589   0.652  0.00  0.00    +0.047 A 
ATOM     30  C   UNL     1      -7.987  -2.632  -0.224  0.00  0.00    +0.120 A 
BRANCH  30   5
ATOM      5  O   UNL     1      -8.858  -3.677  -0.177  0.00  0.00    -0.495 OA
ATOM     34  C   UNL     1      -8.602  -4.693   0.792  0.00  0.00    +0.277 C 
ENDBRANCH  30   5
ENDBRANCH   7  22
ENDBRANCH   3  16
ENDBRANCH  11   3
TORSDOF 8
