REMARK  Name = 7155500
REMARK  4 active torsions:
REMARK  status: ('A' for Active; 'I' for Inactive)
REMARK    1  A    between atoms: N_7  and  C_18
REMARK    2  A    between atoms: C_17  and  C_20
REMARK    3  A    between atoms: C_23  and  C_27
REMARK    4  A    between atoms: C_26  and  C_28
REMARK                            x       y       z     vdW  Elec       q    Type
REMARK                         _______ _______ _______ _____ _____    ______ ____
ROOT
ATOM      2  O   UNL     1      -3.465  -1.730   1.048  0.00  0.00    -0.266 OA
ATOM      3  O   UNL     1       1.324  -2.793   2.690  0.00  0.00    -0.270 OA
ATOM      5  N   UNL     1       1.157  -3.519   0.472  0.00  0.00    -0.297 N 
ATOM      6  N   UNL     1      -1.773  -2.591  -0.313  0.00  0.00    -0.310 N 
ATOM      8  C   UNL     1      -0.821  -4.950  -0.013  0.00  0.00    +0.027 C 
ATOM      9  C   UNL     1       0.084  -3.478  -1.767  0.00  0.00    +0.054 C 
ATOM     10  C   UNL     1      -0.510  -4.861  -1.504  0.00  0.00    +0.018 C 
ATOM     11  C   UNL     1       0.463  -4.760   0.815  0.00  0.00    +0.113 C 
ATOM     12  C   UNL     1      -1.890  -3.906   0.332  0.00  0.00    +0.130 C 
ATOM     13  C   UNL     1       1.392  -3.316  -0.967  0.00  0.00    +0.117 C 
ATOM     14  C   UNL     1      -0.891  -2.383  -1.379  0.00  0.00    +0.027 A 
ATOM     15  C   UNL     1      -0.883  -1.207  -2.030  0.00  0.00    +0.024 A 
ATOM     16  C   UNL     1      -2.660  -1.588   0.127  0.00  0.00    +0.273 A 
ATOM     17  C   UNL     1       1.518  -2.630   1.487  0.00  0.00    +0.247 C 
ATOM     18  C   UNL     1      -2.600  -0.284  -0.607  0.00  0.00    +0.099 A 
ATOM     19  C   UNL     1      -1.755  -0.138  -1.633  0.00  0.00    +0.030 A 
ENDROOT
BRANCH  17  20
ATOM     20  C   UNL     1       2.171  -1.375   1.100  0.00  0.00    +0.037 A 
ATOM     21  C   UNL     1       1.400  -0.246   0.833  0.00  0.00    +0.013 A 
ATOM     22  C   UNL     1       3.559  -1.317   1.004  0.00  0.00    +0.013 A 
ATOM     24  C   UNL     1       2.021   0.948   0.467  0.00  0.00    +0.009 A 
ATOM     25  C   UNL     1       4.180  -0.123   0.638  0.00  0.00    +0.009 A 
ATOM     26  C   UNL     1       3.411   1.010   0.370  0.00  0.00    -0.018 A 
BRANCH  26  28
ATOM     28  C   UNL     1       4.055   2.248  -0.011  0.00  0.00    -0.018 A 
ATOM     30  C   UNL     1       4.297   2.523  -1.357  0.00  0.00    +0.008 A 
ATOM     31  C   UNL     1       4.433   3.167   0.967  0.00  0.00    +0.008 A 
ATOM     34  C   UNL     1       4.917   3.718  -1.724  0.00  0.00    +0.001 A 
ATOM     35  C   UNL     1       5.052   4.362   0.600  0.00  0.00    +0.001 A 
ATOM     36  C   UNL     1       5.294   4.637  -0.746  0.00  0.00    +0.000 A 
ENDBRANCH  26  28
ENDBRANCH  17  20
BRANCH  18   7
ATOM      4  O   UNL     1      -2.110   2.516  -0.860  0.00  0.00    -0.269 OA
ATOM      7  N   UNL     1      -3.429   0.719  -0.199  0.00  0.00    -0.277 N 
ATOM     23  C   UNL     1      -3.133   2.066  -0.351  0.00  0.00    +0.255 C 
ATOM     37  H   UNL     1      -4.192   0.441   0.411  0.00  0.00    +0.155 HD
BRANCH  23  27
ATOM      1  S   UNL     1      -3.855   4.659  -0.030  0.00  0.00    -0.092 S 
ATOM     27  C   UNL     1      -4.171   3.013   0.134  0.00  0.00    +0.074 A 
ATOM     29  C   UNL     1      -5.348   2.699   0.696  0.00  0.00    +0.021 A 
ATOM     32  C   UNL     1      -6.065   3.885   1.026  0.00  0.00    +0.008 A 
ATOM     33  C   UNL     1      -5.367   5.023   0.685  0.00  0.00    +0.046 A 
ENDBRANCH  23  27
ENDBRANCH  18   7
TORSDOF 4
