REMARK  Name = 71692874
REMARK  7 active torsions:
REMARK  status: ('A' for Active; 'I' for Inactive)
REMARK    1  A    between atoms: O_4  and  C_31
REMARK    2  A    between atoms: O_4  and  C_40
REMARK    3  A    between atoms: N_8  and  C_27
REMARK    4  A    between atoms: N_10  and  C_34
REMARK    5  A    between atoms: C_12  and  C_17
REMARK    6  A    between atoms: C_17  and  C_19
REMARK    7  A    between atoms: C_27  and  C_31
REMARK                            x       y       z     vdW  Elec       q    Type
REMARK                         _______ _______ _______ _____ _____    ______ ____
ROOT
ATOM      2  O   UNL     1      -2.079   0.860   0.197  0.00  0.00    -0.492 OA
ATOM      3  O   UNL     1      -1.651  -3.605  -2.004  0.00  0.00    -0.274 OA
ATOM      6  N   UNL     1      -0.213  -3.252  -0.220  0.00  0.00    -0.300 N 
ATOM      9  N   UNL     1      -3.114  -2.065   0.429  0.00  0.00    -0.304 NA
ATOM     11  C   UNL     1       1.042  -1.788   1.374  0.00  0.00    +0.010 C 
ATOM     12  C   UNL     1       2.336  -2.109   0.579  0.00  0.00    +0.004 C 
ATOM     13  C   UNL     1       2.018  -2.381  -0.897  0.00  0.00    +0.023 C 
ATOM     14  C   UNL     1       0.058  -2.970   1.199  0.00  0.00    +0.111 C 
ATOM     15  C   UNL     1       0.393  -0.443   0.967  0.00  0.00    +0.008 C 
ATOM     16  C   UNL     1       0.978  -3.488  -1.042  0.00  0.00    +0.108 C 
ATOM     18  C   UNL     1      -0.664   0.048   1.965  0.00  0.00    +0.041 C 
ATOM     20  C   UNL     1      -1.475  -3.424  -0.794  0.00  0.00    +0.229 C 
ATOM     21  C   UNL     1      -1.458   1.242   1.430  0.00  0.00    +0.229 C 
ATOM     26  C   UNL     1      -2.686  -3.427   0.117  0.00  0.00    +0.178 C 
ATOM     28  C   UNL     1      -3.633  -1.335  -0.731  0.00  0.00    +0.120 C 
ATOM     29  C   UNL     1      -3.433   1.058   0.144  0.00  0.00    +0.125 A 
ATOM     30  C   UNL     1      -4.229   0.000  -0.332  0.00  0.00    +0.010 A 
ATOM     32  C   UNL     1      -5.616   0.192  -0.420  0.00  0.00    +0.031 A 
ATOM     33  C   UNL     1      -4.009   2.288   0.478  0.00  0.00    +0.048 A 
ATOM     34  C   UNL     1      -6.192   1.413  -0.064  0.00  0.00    +0.030 A 
ATOM     35  C   UNL     1      -5.389   2.460   0.379  0.00  0.00    +0.027 A 
ATOM     41  H   UNL     1      -2.333  -1.548   0.812  0.00  0.00    +0.123 HD
ENDROOT
BRANCH  34  10
ATOM      5  O   UNL     1     -10.305   2.159  -0.514  0.00  0.00    -0.377 OA
ATOM     10  N   UNL     1      -7.576   1.586  -0.161  0.00  0.00    -0.326 N 
ATOM     36  C   UNL     1      -8.206   1.420  -1.478  0.00  0.00    +0.133 C 
ATOM     37  C   UNL     1      -8.263   2.512   0.747  0.00  0.00    +0.133 C 
ATOM     38  C   UNL     1      -9.694   1.140  -1.306  0.00  0.00    +0.178 C 
ATOM     39  C   UNL     1      -9.749   2.175   0.800  0.00  0.00    +0.178 C 
ENDBRANCH  34  10
BRANCH  12  17
ATOM     17  C   UNL     1       3.420  -1.039   0.714  0.00  0.00    +0.100 C 
BRANCH  17  19
ATOM      1  O   UNL     1       4.855  -2.827   0.113  0.00  0.00    -0.276 OA
ATOM      7  N   UNL     1       5.862  -0.765   0.474  0.00  0.00    -0.299 N 
ATOM      8  N   UNL     1       7.981   1.055  -0.164  0.00  0.00    -0.297 NA
ATOM     19  C   UNL     1       4.772  -1.632   0.407  0.00  0.00    +0.216 C 
ATOM     22  C   UNL     1       7.206  -1.262   0.186  0.00  0.00    +0.123 C 
ATOM     23  C   UNL     1       5.815   0.622   0.947  0.00  0.00    +0.123 C 
ATOM     24  C   UNL     1       7.968  -0.303  -0.728  0.00  0.00    +0.103 C 
ATOM     25  C   UNL     1       6.608   1.547   0.023  0.00  0.00    +0.103 C 
BRANCH   8  27
ATOM     27  C   UNL     1       8.739   1.962  -1.024  0.00  0.00    +0.112 C 
BRANCH  27  31
ATOM     31  C   UNL     1       9.213   3.175  -0.240  0.00  0.00    +0.174 C 
BRANCH  31   4
ATOM      4  O   UNL     1       9.958   4.018  -1.109  0.00  0.00    -0.382 OA
ATOM     40  C   UNL     1      10.413   5.186  -0.439  0.00  0.00    +0.194 C 
ENDBRANCH  31   4
ENDBRANCH  27  31
ENDBRANCH   8  27
ENDBRANCH  17  19
ENDBRANCH  12  17
TORSDOF 6
