REMARK  Name = 75536510
REMARK  8 active torsions:
REMARK  status: ('A' for Active; 'I' for Inactive)
REMARK    1  A    between atoms: O_2  and  C_9
REMARK    2  A    between atoms: N_4  and  C_8
REMARK    3  A    between atoms: N_4  and  C_13
REMARK    4  A    between atoms: N_5  and  C_12
REMARK    5  A    between atoms: N_6  and  C_17
REMARK    6  A    between atoms: C_10  and  C_12
REMARK    7  A    between atoms: C_13  and  C_14
REMARK    8  A    between atoms: C_15  and  C_19
REMARK                            x       y       z     vdW  Elec       q    Type
REMARK                         _______ _______ _______ _____ _____    ______ ____
ROOT
ATOM      1  O   UNL     1       1.819   1.186   0.459  0.00  0.00    -0.371 OA
ATOM      8  C   UNL     1      -0.076  -0.244   0.400  0.00  0.00    +0.111 C 
ATOM      9  C   UNL     1       0.974  -0.776  -0.557  0.00  0.00    +0.164 C 
ATOM     10  C   UNL     1       2.230  -0.108  -0.015  0.00  0.00    +0.165 C 
ATOM     11  C   UNL     1       0.387   1.191   0.588  0.00  0.00    +0.181 C 
ENDROOT
BRANCH   9   2
ATOM      2  O   UNL     1       1.073  -2.186  -0.531  0.00  0.00    -0.388 OA
ATOM     21  H   UNL     1       1.254  -2.463   0.384  0.00  0.00    +0.210 HD
ENDBRANCH   9   2
BRANCH   8   4
ATOM      4  N   UNL     1      -1.434  -0.338  -0.112  0.00  0.00    -0.302 NA
ATOM     20  H   UNL     1      -1.574  -1.263  -0.520  0.00  0.00    +0.123 HD
BRANCH   4  13
ATOM     13  C   UNL     1      -2.411  -0.138   0.951  0.00  0.00    +0.156 C 
BRANCH  13  14
ATOM      6  N   UNL     1      -4.401   0.808  -0.263  0.00  0.00    -0.336 N 
ATOM      7  N   UNL     1      -4.646  -1.230   0.586  0.00  0.00    -0.239 NA
ATOM     14  C   UNL     1      -3.824  -0.215   0.436  0.00  0.00    +0.123 A 
ATOM     16  C   UNL     1      -5.673   0.421  -0.580  0.00  0.00    +0.106 A 
ATOM     17  C   UNL     1      -3.795   2.071  -0.613  0.00  0.00    +0.150 C 
ATOM     18  C   UNL     1      -5.801  -0.840  -0.045  0.00  0.00    +0.130 A 
ENDBRANCH  13  14
ENDBRANCH   4  13
ENDBRANCH   8   4
BRANCH  10  12
ATOM     12  C   UNL     1       3.324   0.051  -1.057  0.00  0.00    +0.138 C 
BRANCH  12   5
ATOM      3  O   UNL     1       5.603  -1.229   0.206  0.00  0.00    -0.276 OA
ATOM      5  N   UNL     1       4.484   0.687  -0.503  0.00  0.00    -0.313 N 
ATOM     15  C   UNL     1       5.534  -0.009   0.086  0.00  0.00    +0.210 C 
ATOM     19  C   UNL     1       6.635   0.900   0.562  0.00  0.00    +0.109 C 
ATOM     22  H   UNL     1       4.531   1.701  -0.545  0.00  0.00    +0.149 HD
ENDBRANCH  12   5
ENDBRANCH  10  12
TORSDOF 6
