REMARK  Name = 25338308
REMARK  6 active torsions:
REMARK  status: ('A' for Active; 'I' for Inactive)
REMARK    1  A    between atoms: S_1  and  N_6
REMARK    2  A    between atoms: S_1  and  C_17
REMARK    3  A    between atoms: N_5  and  C_16
REMARK    4  A    between atoms: N_6  and  C_11
REMARK    5  A    between atoms: C_12  and  C_15
REMARK    6  A    between atoms: C_18  and  C_21
REMARK                            x       y       z     vdW  Elec       q    Type
REMARK                         _______ _______ _______ _____ _____    ______ ____
ROOT
ATOM      5  N   UNL     1      -0.355  -1.790   0.875  0.00  0.00    -0.293 NA
ATOM     11  C   UNL     1      -1.763  -0.771  -0.680  0.00  0.00    +0.092 C 
ATOM     12  C   UNL     1       0.354  -1.954  -0.408  0.00  0.00    +0.147 C 
ATOM     13  C   UNL     1      -0.469  -1.122  -1.411  0.00  0.00    +0.050 C 
ATOM     14  C   UNL     1      -1.778  -1.683   0.536  0.00  0.00    +0.105 C 
ATOM     16  C   UNL     1      -0.101  -2.875   1.815  0.00  0.00    +0.105 C 
ENDROOT
BRANCH  12  15
ATOM      2  O   UNL     1       2.724  -2.473  -0.699  0.00  0.00    -0.336 OA
ATOM      7  N   UNL     1       2.323  -0.375  -0.024  0.00  0.00    -0.189 NA
ATOM      8  N   UNL     1       3.976  -1.858  -0.575  0.00  0.00    -0.054 NA
ATOM     15  C   UNL     1       1.806  -1.531  -0.356  0.00  0.00    +0.245 A 
ATOM     18  C   UNL     1       3.656  -0.624  -0.174  0.00  0.00    +0.222 A 
BRANCH  18  21
ATOM      9  N   UNL     1       5.932   0.029  -0.095  0.00  0.00    -0.249 NA
ATOM     10  N   UNL     1       5.204   2.605   0.744  0.00  0.00    -0.260 NA
ATOM     21  C   UNL     1       4.644   0.384   0.085  0.00  0.00    +0.129 A 
ATOM     25  C   UNL     1       4.287   1.649   0.497  0.00  0.00    +0.142 A 
ATOM     26  C   UNL     1       6.850   0.985   0.152  0.00  0.00    +0.131 A 
ATOM     27  C   UNL     1       6.492   2.250   0.564  0.00  0.00    +0.130 A 
ENDBRANCH  18  21
ENDBRANCH  12  15
BRANCH  11   6
ATOM      6  N   UNL     1      -1.730   0.649  -0.250  0.00  0.00    -0.186 NA
ATOM     28  H   UNL     1      -1.122   0.890   0.542  0.00  0.00    +0.148 HD
BRANCH   6   1
ATOM      1  S   UNL     1      -2.946   1.715  -0.766  0.00  0.00    +0.059 S 
ATOM      3  O   UNL     1      -3.038   1.680  -2.213  0.00  0.00    -0.153 OA
ATOM      4  O   UNL     1      -2.780   2.979  -0.075  0.00  0.00    -0.153 OA
BRANCH   1  17
ATOM     17  C   UNL     1      -4.401   0.955  -0.109  0.00  0.00    +0.105 A 
ATOM     19  C   UNL     1      -4.848   1.293   1.168  0.00  0.00    +0.028 A 
ATOM     20  C   UNL     1      -5.101   0.017  -0.868  0.00  0.00    +0.028 A 
ATOM     22  C   UNL     1      -5.995   0.693   1.687  0.00  0.00    +0.002 A 
ATOM     23  C   UNL     1      -6.248  -0.583  -0.349  0.00  0.00    +0.002 A 
ATOM     24  C   UNL     1      -6.696  -0.244   0.928  0.00  0.00    +0.000 A 
ENDBRANCH   1  17
ENDBRANCH   6   1
ENDBRANCH  11   6
TORSDOF 5
