REMARK  Name = 26744780
REMARK  7 active torsions:
REMARK  status: ('A' for Active; 'I' for Inactive)
REMARK    1  A    between atoms: O_6  and  C_26
REMARK    2  A    between atoms: N_7  and  C_17
REMARK    3  A    between atoms: C_12  and  C_18
REMARK    4  A    between atoms: C_17  and  C_19
REMARK    5  A    between atoms: C_22  and  C_25
REMARK    6  A    between atoms: C_23  and  C_26
REMARK    7  A    between atoms: C_31  and  C_32
REMARK                            x       y       z     vdW  Elec       q    Type
REMARK                         _______ _______ _______ _____ _____    ______ ____
ROOT
ATOM      7  N   UNL     1       2.701   1.044  -0.780  0.00  0.00    -0.278 NA
ATOM      8  N   UNL     1       1.534   4.579  -0.728  0.00  0.00    -0.347 N 
ATOM      9  N   UNL     1       1.730   4.385   1.491  0.00  0.00    -0.240 NA
ATOM     12  C   UNL     1       2.202   0.691   0.584  0.00  0.00    +0.152 C 
ATOM     13  C   UNL     1       2.292   1.911   1.569  0.00  0.00    +0.086 C 
ATOM     14  C   UNL     1       2.000   2.165  -1.441  0.00  0.00    +0.140 C 
ATOM     15  C   UNL     1       1.844   3.277  -0.479  0.00  0.00    +0.053 A 
ATOM     16  C   UNL     1       1.954   3.182   0.886  0.00  0.00    +0.065 A 
ATOM     20  C   UNL     1       1.477   5.208   0.492  0.00  0.00    +0.197 A 
ATOM     33  H   UNL     1       1.371   5.005  -1.631  0.00  0.00    +0.167 HD
ENDROOT
BRANCH  12  18
ATOM      4  O   UNL     1       0.840  -1.294   1.079  0.00  0.00    -0.336 OA
ATOM     10  N   UNL     1      -0.334   0.434   0.271  0.00  0.00    -0.190 NA
ATOM     11  N   UNL     1      -0.493  -1.722   1.020  0.00  0.00    -0.056 NA
ATOM     18  C   UNL     1       0.845  -0.015   0.621  0.00  0.00    +0.245 A 
ATOM     22  C   UNL     1      -1.123  -0.648   0.534  0.00  0.00    +0.202 A 
BRANCH  22  25
ATOM     25  C   UNL     1      -2.538  -0.624   0.300  0.00  0.00    +0.022 A 
ATOM     27  C   UNL     1      -3.141   0.526  -0.208  0.00  0.00    +0.012 A 
ATOM     28  C   UNL     1      -3.310  -1.751   0.580  0.00  0.00    +0.012 A 
ATOM     29  C   UNL     1      -4.517   0.550  -0.435  0.00  0.00    +0.013 A 
ATOM     30  C   UNL     1      -4.686  -1.727   0.353  0.00  0.00    +0.013 A 
ATOM     31  C   UNL     1      -5.290  -0.577  -0.155  0.00  0.00    +0.055 A 
BRANCH  31  32
ATOM      1  F   UNL     1      -7.184  -1.492  -1.293  0.00  0.00    -0.166 F 
ATOM      2  F   UNL     1      -7.190   0.645  -0.895  0.00  0.00    -0.166 F 
ATOM      3  F   UNL     1      -7.505  -0.769   0.726  0.00  0.00    -0.166 F 
ATOM     32  C   UNL     1      -6.761  -0.551  -0.398  0.00  0.00    +0.417 C 
ENDBRANCH  31  32
ENDBRANCH  22  25
ENDBRANCH  12  18
BRANCH   7  17
ATOM     17  C   UNL     1       2.845  -0.099  -1.676  0.00  0.00    +0.160 C 
BRANCH  17  19
ATOM      5  O   UNL     1       3.537  -2.180  -0.622  0.00  0.00    -0.461 OA
ATOM     19  C   UNL     1       3.938  -1.031  -1.225  0.00  0.00    +0.119 A 
ATOM     21  C   UNL     1       5.311  -0.973  -1.290  0.00  0.00    +0.046 A 
ATOM     23  C   UNL     1       4.666  -2.864  -0.299  0.00  0.00    +0.131 A 
ATOM     24  C   UNL     1       5.784  -2.164  -0.689  0.00  0.00    +0.047 A 
BRANCH  23  26
ATOM     26  C   UNL     1       4.473  -4.158   0.372  0.00  0.00    +0.230 C 
BRANCH  26   6
ATOM      6  O   UNL     1       4.098  -3.956   1.736  0.00  0.00    -0.387 OA
ATOM     34  H   UNL     1       3.981  -4.837   2.131  0.00  0.00    +0.210 HD
ENDBRANCH  26   6
ENDBRANCH  23  26
ENDBRANCH  17  19
ENDBRANCH   7  17
TORSDOF 7
