REMARK  Name = 7049279
REMARK  8 active torsions:
REMARK  status: ('A' for Active; 'I' for Inactive)
REMARK    1  A    between atoms: O_1  and  C_17
REMARK    2  A    between atoms: O_2  and  C_18
REMARK    3  A    between atoms: N_6  and  C_10
REMARK    4  A    between atoms: N_7  and  C_16
REMARK    5  A    between atoms: N_8  and  C_24
REMARK    6  A    between atoms: C_21  and  C_23
REMARK    7  A    between atoms: C_24  and  C_25
REMARK    8  A    between atoms: C_24  and  C_26
REMARK                            x       y       z     vdW  Elec       q    Type
REMARK                         _______ _______ _______ _____ _____    ______ ____
ROOT
ATOM     16  C   UNL     1      -0.159  -1.659   0.265  0.00  0.00    +0.129 C 
ATOM     17  C   UNL     1       0.093  -2.684  -0.857  0.00  0.00    +0.167 C 
ATOM     18  C   UNL     1       1.407  -3.445  -0.640  0.00  0.00    +0.149 C 
ATOM     19  C   UNL     1       2.610  -2.495  -0.505  0.00  0.00    +0.074 C 
ATOM     20  C   UNL     1       1.065  -0.866   0.631  0.00  0.00    +0.006 C 
ATOM     21  C   UNL     1       2.300  -1.248   0.272  0.00  0.00    +0.015 C 
ENDROOT
BRANCH  16   7
ATOM      3  O   UNL     1      -2.979  -2.002   0.776  0.00  0.00    -0.253 OA
ATOM      6  N   UNL     1      -3.375   0.051  -0.231  0.00  0.00    -0.297 N 
ATOM      7  N   UNL     1      -1.222  -0.746  -0.077  0.00  0.00    -0.291 N 
ATOM     22  C   UNL     1      -2.563  -0.993   0.208  0.00  0.00    +0.300 C 
ATOM     27  H   UNL     1      -2.926   0.874  -0.620  0.00  0.00    +0.151 HD
ATOM     28  H   UNL     1      -0.992   0.095  -0.599  0.00  0.00    +0.151 HD
BRANCH   6  10
ATOM     10  C   UNL     1      -4.811   0.051  -0.061  0.00  0.00    +0.074 C 
ATOM     11  C   UNL     1      -5.205   0.647   1.295  0.00  0.00    +0.022 C 
ATOM     12  C   UNL     1      -5.502   0.789  -1.213  0.00  0.00    +0.022 C 
ATOM     13  C   UNL     1      -4.992   2.160   1.353  0.00  0.00    +0.002 C 
ATOM     14  C   UNL     1      -5.289   2.301  -1.151  0.00  0.00    +0.002 C 
ATOM     15  C   UNL     1      -5.698   2.872   0.203  0.00  0.00    +0.000 C 
ENDBRANCH   6  10
ENDBRANCH  16   7
BRANCH  21  23
ATOM      4  O   UNL     1       4.317  -0.837   1.406  0.00  0.00    -0.271 OA
ATOM      8  N   UNL     1       3.331   0.892   0.192  0.00  0.00    -0.301 N 
ATOM     23  C   UNL     1       3.420  -0.397   0.687  0.00  0.00    +0.240 C 
ATOM     31  H   UNL     1       2.539   1.148  -0.393  0.00  0.00    +0.150 HD
BRANCH   8  24
ATOM     24  C   UNL     1       4.316   1.913   0.467  0.00  0.00    +0.156 C 
ATOM     25  C   UNL     1       3.956   2.698   1.718  0.00  0.00    +0.038 C 
BRANCH  24  26
ATOM      5  O   UNL     1       3.444   3.110  -1.458  0.00  0.00    -0.274 OA
ATOM      9  N   UNL     1       5.668   3.346  -0.934  0.00  0.00    -0.328 N 
ATOM     26  C   UNL     1       4.404   2.828  -0.745  0.00  0.00    +0.231 C 
ATOM     32  H   UNL     1       5.861   3.981  -1.701  0.00  0.00    +0.145 HD
ATOM     33  H   UNL     1       6.447   3.120  -0.324  0.00  0.00    +0.145 HD
ENDBRANCH  24  26
ENDBRANCH   8  24
ENDBRANCH  21  23
BRANCH  17   1
ATOM      1  O   UNL     1       0.155  -2.011  -2.116  0.00  0.00    -0.387 OA
ATOM     29  H   UNL     1       0.285  -2.687  -2.803  0.00  0.00    +0.210 HD
ENDBRANCH  17   1
BRANCH  18   2
ATOM      2  O   UNL     1       1.308  -4.276   0.515  0.00  0.00    -0.389 OA
ATOM     30  H   UNL     1       2.140  -4.772   0.593  0.00  0.00    +0.210 HD
ENDBRANCH  18   2
TORSDOF 7
