REMARK  Name = 44716532
REMARK  12 active torsions:
REMARK  status: ('A' for Active; 'I' for Inactive)
REMARK    1  A    between atoms: O_2  and  C_11
REMARK    2  A    between atoms: O_3  and  C_12
REMARK    3  A    between atoms: N_8  and  C_16
REMARK    4  A    between atoms: N_9  and  C_19
REMARK    5  A    between atoms: N_10  and  C_20
REMARK    6  A    between atoms: N_10  and  C_27
REMARK    7  A    between atoms: N_10  and  C_28
REMARK    8  A    between atoms: C_13  and  C_15
REMARK    9  A    between atoms: C_14  and  C_16
REMARK   10  A    between atoms: C_15  and  C_17
REMARK   11  A    between atoms: C_18  and  C_21
REMARK   12  A    between atoms: C_19  and  C_20
REMARK                            x       y       z     vdW  Elec       q    Type
REMARK                         _______ _______ _______ _____ _____    ______ ____
ROOT
ATOM      1  O   UNL     1      -2.621   0.462  -0.540  0.00  0.00    -0.366 OA
ATOM     11  C   UNL     1      -4.779   0.588   0.414  0.00  0.00    +0.175 C 
ATOM     12  C   UNL     1      -4.514   1.899  -0.297  0.00  0.00    +0.176 C 
ATOM     13  C   UNL     1      -3.779  -0.342  -0.262  0.00  0.00    +0.158 C 
ATOM     14  C   UNL     1      -3.015   1.848  -0.593  0.00  0.00    +0.167 C 
ENDROOT
BRANCH  11   2
ATOM      2  O   UNL     1      -4.490   0.722   1.799  0.00  0.00    -0.387 OA
ATOM     30  H   UNL     1      -5.115   1.370   2.166  0.00  0.00    +0.210 HD
ENDBRANCH  11   2
BRANCH  12   3
ATOM      3  O   UNL     1      -5.216   1.911  -1.538  0.00  0.00    -0.387 OA
ATOM     31  H   UNL     1      -5.005   2.750  -1.983  0.00  0.00    +0.210 HD
ENDBRANCH  12   3
BRANCH  13  15
ATOM     15  C   UNL     1      -3.365  -1.555   0.551  0.00  0.00    +0.130 C 
BRANCH  15  17
ATOM      4  O   UNL     1      -2.202  -2.479  -1.358  0.00  0.00    -0.276 OA
ATOM      9  N   UNL     1      -1.454  -2.994   0.781  0.00  0.00    -0.314 N 
ATOM     17  C   UNL     1      -2.293  -2.380  -0.138  0.00  0.00    +0.216 C 
ATOM     33  H   UNL     1      -1.612  -2.856   1.775  0.00  0.00    +0.149 HD
BRANCH   9  19
ATOM     19  C   UNL     1      -0.349  -3.842   0.396  0.00  0.00    +0.119 C 
BRANCH  19  20
ATOM     20  C   UNL     1       0.929  -3.035   0.222  0.00  0.00    +0.102 C 
BRANCH  20  10
ATOM     10  N   UNL     1       2.037  -3.911  -0.137  0.00  0.00    -0.307 NA
ATOM     27  C   UNL     1       3.319  -3.282   0.186  0.00  0.00    +0.104 C 
ATOM     28  C   UNL     1       1.984  -4.253  -1.560  0.00  0.00    +0.104 C 
ENDBRANCH  20  10
ENDBRANCH  19  20
ENDBRANCH   9  19
ENDBRANCH  15  17
ENDBRANCH  13  15
BRANCH  14  16
ATOM     16  C   UNL     1      -2.175   2.608   0.424  0.00  0.00    +0.138 C 
BRANCH  16   8
ATOM      5  O   UNL     1      -0.325   0.604   1.321  0.00  0.00    -0.270 OA
ATOM      8  N   UNL     1      -0.780   2.528   0.107  0.00  0.00    -0.309 N 
ATOM     18  C   UNL     1       0.047   1.517   0.588  0.00  0.00    +0.244 C 
ATOM     32  H   UNL     1      -0.397   3.286  -0.448  0.00  0.00    +0.149 HD
BRANCH  18  21
ATOM      6  O   UNL     1       4.851   0.631   1.263  0.00  0.00    -0.453 OA
ATOM      7  O   UNL     1       5.458   1.723  -0.798  0.00  0.00    -0.453 OA
ATOM     21  C   UNL     1       1.476   1.591   0.189  0.00  0.00    +0.040 A 
ATOM     22  C   UNL     1       2.455   1.026   1.010  0.00  0.00    +0.062 A 
ATOM     23  C   UNL     1       1.831   2.228  -1.013  0.00  0.00    +0.017 A 
ATOM     24  C   UNL     1       3.768   1.118   0.597  0.00  0.00    +0.167 A 
ATOM     25  C   UNL     1       4.115   1.742  -0.579  0.00  0.00    +0.166 A 
ATOM     26  C   UNL     1       3.168   2.308  -1.408  0.00  0.00    +0.050 A 
ATOM     29  C   UNL     1       5.918   1.017   0.373  0.00  0.00    +0.466 C 
ENDBRANCH  18  21
ENDBRANCH  16   8
ENDBRANCH  14  16
TORSDOF 10
