REMARK  Name = 56774170
REMARK  11 active torsions:
REMARK  status: ('A' for Active; 'I' for Inactive)
REMARK    1  A    between atoms: N_3  and  C_8
REMARK    2  A    between atoms: N_5  and  C_18
REMARK    3  A    between atoms: C_6  and  C_11
REMARK    4  A    between atoms: C_6  and  C_12
REMARK    5  A    between atoms: C_7  and  C_10
REMARK    6  A    between atoms: C_10  and  C_13
REMARK    7  A    between atoms: C_16  and  C_17
REMARK    8  A    between atoms: C_17  and  C_19
REMARK    9  A    between atoms: C_18  and  C_22
REMARK   10  A    between atoms: C_19  and  C_20
REMARK   11  A    between atoms: C_19  and  C_21
REMARK                            x       y       z     vdW  Elec       q    Type
REMARK                         _______ _______ _______ _____ _____    ______ ____
ROOT
ATOM      6  C   UNL     1      -1.690   0.968   0.443  0.00  0.00    -0.013 C 
ATOM      7  C   UNL     1      -0.190   0.619   0.345  0.00  0.00    +0.004 C 
ATOM      8  C   UNL     1      -1.955  -0.546   0.582  0.00  0.00    +0.081 C 
ATOM      9  C   UNL     1      -0.625  -0.769  -0.169  0.00  0.00    +0.027 C 
ATOM     11  C   UNL     1      -2.240   1.632  -0.799  0.00  0.00    +0.013 C 
ATOM     12  C   UNL     1      -2.108   1.752   1.674  0.00  0.00    +0.013 C 
ENDROOT
BRANCH   8   3
ATOM      2  O   UNL     1      -4.729  -0.133   1.266  0.00  0.00    -0.253 OA
ATOM      3  N   UNL     1      -3.130  -1.055  -0.137  0.00  0.00    -0.296 N 
ATOM      5  N   UNL     1      -5.367  -1.394  -0.577  0.00  0.00    -0.300 N 
ATOM     14  C   UNL     1      -4.440  -0.800   0.274  0.00  0.00    +0.300 C 
ATOM     23  H   UNL     1      -3.010  -1.625  -0.971  0.00  0.00    +0.151 HD
ATOM     24  H   UNL     1      -5.032  -1.918  -1.379  0.00  0.00    +0.150 HD
BRANCH   5  18
ATOM     18  C   UNL     1      -6.793  -1.283  -0.374  0.00  0.00    +0.102 C 
ATOM     22  C   UNL     1      -7.322   0.044  -0.876  0.00  0.00    +0.024 C 
ENDBRANCH   5  18
ENDBRANCH   8   3
BRANCH   7  10
ATOM     10  C   UNL     1       0.658   1.435  -0.639  0.00  0.00    +0.063 C 
BRANCH  10  13
ATOM      1  O   UNL     1       4.110   1.292   0.265  0.00  0.00    -0.359 OA
ATOM      4  N   UNL     1       2.835   1.834   0.367  0.00  0.00    -0.083 NA
ATOM     13  C   UNL     1       2.090   1.128  -0.487  0.00  0.00    +0.084 A 
ATOM     15  C   UNL     1       2.833   0.136  -1.151  0.00  0.00    +0.071 A 
ATOM     16  C   UNL     1       4.097   0.282  -0.642  0.00  0.00    +0.138 A 
BRANCH  16  17
ATOM     17  C   UNL     1       5.408  -0.426  -0.882  0.00  0.00    +0.080 C 
BRANCH  17  19
ATOM     19  C   UNL     1       6.042  -1.013   0.395  0.00  0.00    -0.010 C 
ATOM     20  C   UNL     1       5.130  -2.041   1.069  0.00  0.00    +0.007 C 
ATOM     21  C   UNL     1       7.386  -1.661   0.055  0.00  0.00    +0.007 C 
ENDBRANCH  17  19
ENDBRANCH  16  17
ENDBRANCH  10  13
ENDBRANCH   7  10
TORSDOF 6
