REMARK  Name = 44716332
REMARK  9 active torsions:
REMARK  status: ('A' for Active; 'I' for Inactive)
REMARK    1  A    between atoms: O_2  and  C_29
REMARK    2  A    between atoms: O_2  and  C_30
REMARK    3  A    between atoms: N_4  and  C_19
REMARK    4  A    between atoms: N_5  and  C_14
REMARK    5  A    between atoms: N_5  and  C_18
REMARK    6  A    between atoms: C_8  and  C_15
REMARK    7  A    between atoms: C_9  and  C_14
REMARK    8  A    between atoms: C_17  and  C_20
REMARK    9  A    between atoms: C_18  and  C_21
REMARK                            x       y       z     vdW  Elec       q    Type
REMARK                         _______ _______ _______ _____ _____    ______ ____
ROOT
ATOM      3  N   UNL     1      -3.957   0.639   0.779  0.00  0.00    -0.298 NA
ATOM      7  C   UNL     1      -3.272  -0.877  -1.225  0.00  0.00    +0.002 C 
ATOM      8  C   UNL     1      -2.783  -1.493   0.115  0.00  0.00    +0.055 C 
ATOM      9  C   UNL     1      -3.293   1.455  -0.272  0.00  0.00    +0.071 C 
ATOM     10  C   UNL     1      -2.697   0.548  -1.370  0.00  0.00    +0.024 C 
ATOM     11  C   UNL     1      -4.806  -0.739  -1.118  0.00  0.00    +0.019 C 
ATOM     12  C   UNL     1      -3.047  -0.443   1.232  0.00  0.00    +0.094 C 
ATOM     13  C   UNL     1      -5.158   0.012   0.177  0.00  0.00    +0.085 C 
ENDROOT
BRANCH   8  15
ATOM      4  N   UNL     1      -1.018  -3.098   0.980  0.00  0.00    -0.270 N 
ATOM      6  N   UNL     1       0.278  -3.443   0.887  0.00  0.00    -0.171 NA
ATOM     15  C   UNL     1      -1.370  -2.056   0.175  0.00  0.00    +0.044 A 
ATOM     16  C   UNL     1      -0.225  -1.693  -0.492  0.00  0.00    +0.053 A 
ATOM     17  C   UNL     1       0.757  -2.581  -0.014  0.00  0.00    +0.100 A 
ATOM     19  C   UNL     1      -1.878  -3.829   1.881  0.00  0.00    +0.172 C 
BRANCH  17  20
ATOM      1  S   UNL     1       3.324  -3.705   0.185  0.00  0.00    -0.095 S 
ATOM     20  C   UNL     1       2.171  -2.600  -0.431  0.00  0.00    +0.039 A 
ATOM     22  C   UNL     1       2.721  -1.739  -1.354  0.00  0.00    +0.018 A 
ATOM     25  C   UNL     1       4.109  -1.990  -1.559  0.00  0.00    +0.008 A 
ATOM     26  C   UNL     1       4.566  -3.033  -0.784  0.00  0.00    +0.046 A 
ENDBRANCH  17  20
ENDBRANCH   8  15
BRANCH   9  14
ATOM     14  C   UNL     1      -2.249   2.412   0.306  0.00  0.00    +0.100 C 
BRANCH  14   5
ATOM      5  N   UNL     1      -1.729   3.293  -0.727  0.00  0.00    -0.311 NA
ATOM     31  H   UNL     1      -2.498   3.840  -1.112  0.00  0.00    +0.122 HD
BRANCH   5  18
ATOM     18  C   UNL     1      -0.726   4.201  -0.184  0.00  0.00    +0.116 C 
BRANCH  18  21
ATOM     21  C   UNL     1       0.613   3.529  -0.028  0.00  0.00    -0.033 A 
ATOM     23  C   UNL     1       1.219   3.463   1.227  0.00  0.00    +0.008 A 
ATOM     24  C   UNL     1       1.247   2.972  -1.139  0.00  0.00    +0.008 A 
ATOM     27  C   UNL     1       2.458   2.841   1.371  0.00  0.00    +0.046 A 
ATOM     28  C   UNL     1       2.487   2.350  -0.995  0.00  0.00    +0.046 A 
ATOM     29  C   UNL     1       3.093   2.284   0.260  0.00  0.00    +0.120 A 
BRANCH  29   2
ATOM      2  O   UNL     1       4.302   1.676   0.401  0.00  0.00    -0.495 OA
ATOM     30  C   UNL     1       4.864   1.644   1.712  0.00  0.00    +0.277 C 
ENDBRANCH  29   2
ENDBRANCH  18  21
ENDBRANCH   5  18
ENDBRANCH  14   5
ENDBRANCH   9  14
TORSDOF 7
