REMARK  Name = 75536892
REMARK  3 active torsions:
REMARK  status: ('A' for Active; 'I' for Inactive)
REMARK    1  A    between atoms: O_2  and  C_8
REMARK    2  A    between atoms: O_2  and  C_14
REMARK    3  A    between atoms: C_13  and  C_15
REMARK                            x       y       z     vdW  Elec       q    Type
REMARK                         _______ _______ _______ _____ _____    ______ ____
ROOT
ATOM      1  O   UNL     1      -0.795  -3.180  -0.690  0.00  0.00    -0.375 OA
ATOM      3  O   UNL     1       3.464  -1.729   1.061  0.00  0.00    -0.268 OA
ATOM      4  N   UNL     1       1.222  -1.188   0.648  0.00  0.00    -0.290 N 
ATOM      8  C   UNL     1      -1.094  -0.783  -0.348  0.00  0.00    +0.216 C 
ATOM      9  C   UNL     1       0.238  -0.217   0.153  0.00  0.00    +0.155 C 
ATOM     10  C   UNL     1       0.743  -2.499   1.089  0.00  0.00    +0.136 C 
ATOM     11  C   UNL     1      -0.924  -1.924  -1.348  0.00  0.00    +0.206 C 
ATOM     12  C   UNL     1       0.479  -3.415  -0.099  0.00  0.00    +0.179 C 
ATOM     13  C   UNL     1       2.603  -0.935   0.685  0.00  0.00    +0.267 C 
ENDROOT
BRANCH  13  15
ATOM      5  N   UNL     1       2.619   1.453   0.918  0.00  0.00    -0.247 NA
ATOM      7  N   UNL     1       4.405   1.714  -1.229  0.00  0.00    -0.259 NA
ATOM     15  C   UNL     1       3.083   0.384   0.242  0.00  0.00    +0.144 A 
ATOM     18  C   UNL     1       3.960   0.511  -0.812  0.00  0.00    +0.143 A 
ATOM     20  C   UNL     1       3.064   2.655   0.502  0.00  0.00    +0.131 A 
ATOM     22  C   UNL     1       3.941   2.783  -0.553  0.00  0.00    +0.130 A 
ENDBRANCH  13  15
BRANCH   8   2
ATOM      2  O   UNL     1      -1.786   0.293  -0.983  0.00  0.00    -0.483 OA
BRANCH   2  14
ATOM      6  N   UNL     1      -5.237   0.067   0.202  0.00  0.00    -0.260 NA
ATOM     14  C   UNL     1      -2.980   0.663  -0.429  0.00  0.00    +0.139 A 
ATOM     16  C   UNL     1      -3.178   1.952   0.053  0.00  0.00    +0.049 A 
ATOM     17  C   UNL     1      -4.032  -0.234  -0.332  0.00  0.00    +0.156 A 
ATOM     19  C   UNL     1      -4.404   2.300   0.610  0.00  0.00    +0.023 A 
ATOM     21  C   UNL     1      -5.392   1.329   0.660  0.00  0.00    +0.111 A 
ENDBRANCH   2  14
ENDBRANCH   8   2
TORSDOF 3
