REMARK  Name = 25391134
REMARK  9 active torsions:
REMARK  status: ('A' for Active; 'I' for Inactive)
REMARK    1  A    between atoms: N_8  and  C_24
REMARK    2  A    between atoms: N_9  and  C_26
REMARK    3  A    between atoms: C_12  and  C_18
REMARK    4  A    between atoms: C_13  and  C_22
REMARK    5  A    between atoms: C_24  and  C_25
REMARK    6  A    between atoms: C_24  and  C_28
REMARK    7  A    between atoms: C_25  and  C_27
REMARK    8  A    between atoms: C_26  and  C_32
REMARK    9  A    between atoms: C_26  and  C_33
REMARK                            x       y       z     vdW  Elec       q    Type
REMARK                         _______ _______ _______ _____ _____    ______ ____
ROOT
ATOM      1  O   UNL     1      -1.737   1.333   0.732  0.00  0.00    -0.275 OA
ATOM      3  O   UNL     1       4.871  -0.766   1.482  0.00  0.00    -0.253 OA
ATOM      5  N   UNL     1       0.551   1.745   0.669  0.00  0.00    -0.287 N 
ATOM      6  N   UNL     1       3.313   0.827   0.822  0.00  0.00    -0.282 N 
ATOM      9  N   UNL     1       5.477   0.771  -0.117  0.00  0.00    -0.297 N 
ATOM     13  C   UNL     1       0.884   0.401   1.146  0.00  0.00    +0.179 C 
ATOM     14  C   UNL     1       1.669   2.677   0.481  0.00  0.00    +0.127 C 
ATOM     17  C   UNL     1       2.291   0.307   1.733  0.00  0.00    +0.141 C 
ATOM     18  C   UNL     1      -0.795   2.114   0.574  0.00  0.00    +0.219 C 
ATOM     19  C   UNL     1       2.939   1.984   0.000  0.00  0.00    +0.128 C 
ATOM     23  C   UNL     1       4.577   0.207   0.782  0.00  0.00    +0.303 C 
ATOM     40  H   UNL     1       5.165   1.477  -0.774  0.00  0.00    +0.150 HD
ENDROOT
BRANCH  18  12
ATOM      7  N   UNL     1      -3.580   3.799  -1.254  0.00  0.00    -0.316 NA
ATOM     12  C   UNL     1      -1.074   3.554   0.250  0.00  0.00    +0.078 C 
ATOM     15  C   UNL     1      -2.381   4.015   0.898  0.00  0.00    +0.028 C 
ATOM     16  C   UNL     1      -1.106   3.776  -1.264  0.00  0.00    +0.028 C 
ATOM     20  C   UNL     1      -3.612   3.473   0.171  0.00  0.00    +0.081 C 
ATOM     21  C   UNL     1      -2.391   3.243  -1.900  0.00  0.00    +0.081 C 
ATOM     38  H   UNL     1      -4.414   3.424  -1.704  0.00  0.00    +0.122 HD
ENDBRANCH  18  12
BRANCH  13  22
ATOM      2  O   UNL     1       0.960  -0.178  -1.171  0.00  0.00    -0.274 OA
ATOM      8  N   UNL     1       0.308  -1.794   0.373  0.00  0.00    -0.302 N 
ATOM     22  C   UNL     1       0.735  -0.536  -0.018  0.00  0.00    +0.236 C 
ATOM     39  H   UNL     1       0.189  -1.992   1.362  0.00  0.00    +0.150 HD
BRANCH   8  24
ATOM     24  C   UNL     1       0.067  -2.872  -0.559  0.00  0.00    +0.163 C 
BRANCH  24  28
ATOM      4  O   UNL     1       1.434  -4.244   0.908  0.00  0.00    -0.274 OA
ATOM     11  N   UNL     1       1.456  -4.686  -1.345  0.00  0.00    -0.328 N 
ATOM     28  C   UNL     1       1.059  -3.978  -0.231  0.00  0.00    +0.231 C 
ATOM     42  H   UNL     1       1.120  -4.470  -2.278  0.00  0.00    +0.145 HD
ATOM     43  H   UNL     1       2.107  -5.461  -1.265  0.00  0.00    +0.145 HD
ENDBRANCH  24  28
BRANCH  24  25
ATOM     25  C   UNL     1      -1.369  -3.400  -0.474  0.00  0.00    +0.069 C 
BRANCH  25  27
ATOM     10  N   UNL     1      -3.546  -0.734  -1.785  0.00  0.00    -0.360 N 
ATOM     27  C   UNL     1      -2.401  -2.337  -0.763  0.00  0.00    -0.020 A 
ATOM     29  C   UNL     1      -3.466  -1.936   0.092  0.00  0.00    +0.003 A 
ATOM     30  C   UNL     1      -2.477  -1.580  -1.909  0.00  0.00    +0.087 A 
ATOM     31  C   UNL     1      -4.168  -0.929  -0.573  0.00  0.00    +0.047 A 
ATOM     34  C   UNL     1      -3.900  -2.334   1.372  0.00  0.00    +0.010 A 
ATOM     35  C   UNL     1      -5.288  -0.298  -0.020  0.00  0.00    +0.026 A 
ATOM     36  C   UNL     1      -5.019  -1.711   1.938  0.00  0.00    +0.001 A 
ATOM     37  C   UNL     1      -5.701  -0.709   1.250  0.00  0.00    +0.002 A 
ATOM     41  H   UNL     1      -3.835  -0.061  -2.482  0.00  0.00    +0.165 HD
ENDBRANCH  25  27
ENDBRANCH  24  25
ENDBRANCH   8  24
ENDBRANCH  13  22
BRANCH   9  26
ATOM     26  C   UNL     1       6.815   0.255  -0.291  0.00  0.00    +0.068 C 
ATOM     32  C   UNL     1       7.774   1.382  -0.653  0.00  0.00    +0.027 C 
ATOM     33  C   UNL     1       6.831  -0.844  -1.347  0.00  0.00    +0.027 C 
ENDBRANCH   9  26
TORSDOF 7
