REMARK  Name = 44716366
REMARK  13 active torsions:
REMARK  status: ('A' for Active; 'I' for Inactive)
REMARK    1  A    between atoms: O_1  and  C_18
REMARK    2  A    between atoms: O_1  and  C_23
REMARK    3  A    between atoms: O_3  and  C_26
REMARK    4  A    between atoms: O_3  and  C_34
REMARK    5  A    between atoms: O_4  and  C_29
REMARK    6  A    between atoms: O_4  and  C_36
REMARK    7  A    between atoms: N_7  and  C_21
REMARK    8  A    between atoms: N_9  and  C_28
REMARK    9  A    between atoms: C_11  and  C_17
REMARK   10  A    between atoms: C_12  and  C_18
REMARK   11  A    between atoms: C_20  and  C_22
REMARK   12  A    between atoms: C_35  and  C_37
REMARK   13  A    between atoms: C_37  and  C_38
REMARK                            x       y       z     vdW  Elec       q    Type
REMARK                         _______ _______ _______ _____ _____    ______ ____
ROOT
ATOM      6  N   UNL     1      -0.897   4.499   1.272  0.00  0.00    -0.296 NA
ATOM     10  C   UNL     1      -1.901   3.978  -1.074  0.00  0.00    +0.002 C 
ATOM     11  C   UNL     1      -2.779   3.352   0.044  0.00  0.00    +0.055 C 
ATOM     12  C   UNL     1       0.158   3.956   0.377  0.00  0.00    +0.095 C 
ATOM     13  C   UNL     1      -0.457   3.450  -0.945  0.00  0.00    +0.026 C 
ATOM     14  C   UNL     1      -1.853   5.498  -0.804  0.00  0.00    +0.019 C 
ATOM     15  C   UNL     1      -2.015   3.529   1.387  0.00  0.00    +0.094 C 
ATOM     16  C   UNL     1      -1.423   5.740   0.654  0.00  0.00    +0.085 C 
ENDROOT
BRANCH  11  17
ATOM      7  N   UNL     1      -4.462   1.635  -0.768  0.00  0.00    -0.270 N 
ATOM      8  N   UNL     1      -4.725   0.319  -0.838  0.00  0.00    -0.171 NA
ATOM     17  C   UNL     1      -3.282   1.928  -0.150  0.00  0.00    +0.044 A 
ATOM     19  C   UNL     1      -2.735   0.721   0.209  0.00  0.00    +0.053 A 
ATOM     20  C   UNL     1      -3.667  -0.235  -0.240  0.00  0.00    +0.093 A 
ATOM     21  C   UNL     1      -5.408   2.574  -1.323  0.00  0.00    +0.172 C 
BRANCH  20  22
ATOM     22  C   UNL     1      -3.566  -1.665  -0.107  0.00  0.00    +0.006 A 
ATOM     24  C   UNL     1      -4.721  -2.438   0.002  0.00  0.00    +0.059 A 
ATOM     25  C   UNL     1      -2.312  -2.276  -0.085  0.00  0.00    +0.014 A 
ATOM     26  C   UNL     1      -4.623  -3.824   0.131  0.00  0.00    +0.162 A 
ATOM     27  C   UNL     1      -2.215  -3.662   0.045  0.00  0.00    +0.050 A 
ATOM     29  C   UNL     1      -3.370  -4.435   0.153  0.00  0.00    +0.162 A 
BRANCH  26   3
ATOM      3  O   UNL     1      -5.759  -4.569   0.236  0.00  0.00    -0.491 OA
ATOM     34  C   UNL     1      -7.000  -3.867   0.205  0.00  0.00    +0.277 C 
ENDBRANCH  26   3
BRANCH  29   4
ATOM      4  O   UNL     1      -3.262  -5.788   0.279  0.00  0.00    -0.491 OA
ATOM     36  C   UNL     1      -1.944  -6.333   0.292  0.00  0.00    +0.277 C 
ENDBRANCH  29   4
ENDBRANCH  20  22
ENDBRANCH  11  17
BRANCH  12  18
ATOM     18  C   UNL     1       1.006   2.881   1.061  0.00  0.00    +0.252 C 
BRANCH  18   1
ATOM      1  O   UNL     1       2.045   2.504   0.179  0.00  0.00    -0.449 OA
BRANCH   1  23
ATOM      2  O   UNL     1       2.820   1.013   1.730  0.00  0.00    -0.226 OA
ATOM      9  N   UNL     1       3.864   1.286  -0.347  0.00  0.00    -0.251 N 
ATOM     23  C   UNL     1       2.917   1.537   0.627  0.00  0.00    +0.405 C 
ATOM     39  H   UNL     1       3.780   1.826  -1.205  0.00  0.00    +0.158 HD
BRANCH   9  28
ATOM     28  C   UNL     1       4.940   0.370  -0.300  0.00  0.00    +0.036 A 
ATOM     30  C   UNL     1       5.803   0.252  -1.389  0.00  0.00    +0.024 A 
ATOM     31  C   UNL     1       5.137  -0.415   0.836  0.00  0.00    +0.024 A 
ATOM     32  C   UNL     1       6.864  -0.653  -1.342  0.00  0.00    +0.013 A 
ATOM     33  C   UNL     1       6.198  -1.320   0.882  0.00  0.00    +0.013 A 
ATOM     35  C   UNL     1       7.061  -1.439  -0.207  0.00  0.00    +0.017 A 
BRANCH  35  37
ATOM      5  O   UNL     1       8.721  -2.683   0.917  0.00  0.00    -0.292 OA
ATOM     37  C   UNL     1       8.166  -2.384  -0.159  0.00  0.00    +0.160 C 
ATOM     38  C   UNL     1       8.675  -3.036  -1.440  0.00  0.00    +0.091 C 
ENDBRANCH  35  37
ENDBRANCH   9  28
ENDBRANCH   1  23
ENDBRANCH  18   1
ENDBRANCH  12  18
TORSDOF 9
