REMARK  Name = 45783780
REMARK  6 active torsions:
REMARK  status: ('A' for Active; 'I' for Inactive)
REMARK    1  A    between atoms: N_2  and  C_12
REMARK    2  A    between atoms: N_7  and  C_24
REMARK    3  A    between atoms: N_7  and  C_25
REMARK    4  A    between atoms: C_8  and  C_13
REMARK    5  A    between atoms: C_12  and  C_14
REMARK    6  A    between atoms: C_15  and  C_18
REMARK                            x       y       z     vdW  Elec       q    Type
REMARK                         _______ _______ _______ _____ _____    ______ ____
ROOT
ATOM      1  O   UNL     1      -1.037  -0.402   2.010  0.00  0.00    -0.336 OA
ATOM      3  N   UNL     1      -0.284  -1.146   0.036  0.00  0.00    -0.190 NA
ATOM      4  N   UNL     1       0.337  -0.128   1.988  0.00  0.00    -0.056 NA
ATOM     13  C   UNL     1      -1.319  -1.002   0.824  0.00  0.00    +0.245 A 
ATOM     15  C   UNL     1       0.709  -0.596   0.793  0.00  0.00    +0.204 A 
ENDROOT
BRANCH  15  18
ATOM      6  N   UNL     1       4.356   0.127   0.725  0.00  0.00    -0.240 NA
ATOM     18  C   UNL     1       2.063  -0.529   0.326  0.00  0.00    +0.041 A 
ATOM     21  C   UNL     1       2.416  -1.027  -0.924  0.00  0.00    +0.016 A 
ATOM     22  C   UNL     1       3.062   0.033   1.105  0.00  0.00    +0.124 A 
ATOM     23  C   UNL     1       3.737  -0.949  -1.350  0.00  0.00    +0.044 A 
ATOM     24  C   UNL     1       4.661  -0.367  -0.496  0.00  0.00    +0.118 A 
BRANCH  24   7
ATOM      7  N   UNL     1       6.003  -0.296  -0.943  0.00  0.00    -0.332 N 
ATOM     25  C   UNL     1       7.047   0.279  -0.159  0.00  0.00    +0.127 C 
ATOM     26  H   UNL     1       6.255  -0.865  -1.744  0.00  0.00    +0.147 HD
ENDBRANCH  24   7
ENDBRANCH  15  18
BRANCH  13   8
ATOM      2  N   UNL     1      -3.337  -0.792  -0.618  0.00  0.00    -0.287 NA
ATOM      8  C   UNL     1      -2.762  -1.403   0.597  0.00  0.00    +0.146 C 
ATOM      9  C   UNL     1      -2.932  -2.920   0.391  0.00  0.00    +0.030 C 
ATOM     10  C   UNL     1      -3.665  -3.061  -0.936  0.00  0.00    +0.017 C 
ATOM     11  C   UNL     1      -4.355  -1.722  -1.106  0.00  0.00    +0.085 C 
BRANCH   2  12
ATOM     12  C   UNL     1      -3.877   0.542  -0.390  0.00  0.00    +0.121 C 
BRANCH  12  14
ATOM      5  N   UNL     1      -1.652   3.347   0.838  0.00  0.00    -0.263 NA
ATOM     14  C   UNL     1      -2.794   1.588  -0.363  0.00  0.00    -0.015 A 
ATOM     16  C   UNL     1      -1.954   1.778  -1.455  0.00  0.00    +0.008 A 
ATOM     17  C   UNL     1      -2.604   2.391   0.749  0.00  0.00    +0.115 A 
ATOM     19  C   UNL     1      -0.963   2.752  -1.401  0.00  0.00    +0.020 A 
ATOM     20  C   UNL     1      -0.854   3.503  -0.242  0.00  0.00    +0.111 A 
ENDBRANCH  12  14
ENDBRANCH   2  12
ENDBRANCH  13   8
TORSDOF 5
