REMARK  Name = 44716394
REMARK  6 active torsions:
REMARK  status: ('A' for Active; 'I' for Inactive)
REMARK    1  A    between atoms: N_3  and  C_14
REMARK    2  A    between atoms: N_4  and  C_15
REMARK    3  A    between atoms: N_5  and  C_21
REMARK    4  A    between atoms: N_6  and  C_22
REMARK    5  A    between atoms: C_8  and  C_14
REMARK    6  A    between atoms: C_9  and  C_15
REMARK                            x       y       z     vdW  Elec       q    Type
REMARK                         _______ _______ _______ _____ _____    ______ ____
ROOT
ATOM      2  N   UNL     1      -0.638  -2.881  -0.226  0.00  0.00    -0.298 NA
ATOM      7  C   UNL     1      -1.993  -1.058   1.042  0.00  0.00    -0.003 C 
ATOM      8  C   UNL     1      -2.767  -1.557  -0.199  0.00  0.00    +0.020 C 
ATOM      9  C   UNL     1       0.207  -1.675  -0.012  0.00  0.00    +0.074 C 
ATOM     10  C   UNL     1      -0.617  -0.523   0.605  0.00  0.00    +0.024 C 
ATOM     11  C   UNL     1      -1.859  -2.526  -0.989  0.00  0.00    +0.089 C 
ATOM     12  C   UNL     1      -1.741  -2.288   1.936  0.00  0.00    +0.019 C 
ATOM     13  C   UNL     1      -1.056  -3.387   1.104  0.00  0.00    +0.085 C 
ENDROOT
BRANCH   8  14
ATOM     14  C   UNL     1      -3.283  -0.423  -1.082  0.00  0.00    +0.089 C 
BRANCH  14   3
ATOM      3  N   UNL     1      -4.120   0.497  -0.314  0.00  0.00    -0.300 NA
ATOM      5  N   UNL     1      -6.425   2.207   0.030  0.00  0.00    -0.303 NA
ATOM     16  C   UNL     1      -4.205   1.803  -0.978  0.00  0.00    +0.100 C 
ATOM     17  C   UNL     1      -5.461  -0.064  -0.112  0.00  0.00    +0.100 C 
ATOM     18  C   UNL     1      -5.084   2.768  -0.174  0.00  0.00    +0.099 C 
ATOM     19  C   UNL     1      -6.340   0.900   0.693  0.00  0.00    +0.099 C 
ATOM     21  C   UNL     1      -7.261   3.126   0.800  0.00  0.00    +0.105 C 
ENDBRANCH  14   3
ENDBRANCH   8  14
BRANCH   9  15
ATOM     15  C   UNL     1       0.931  -1.237  -1.287  0.00  0.00    +0.124 C 
BRANCH  15   4
ATOM      1  O   UNL     1       3.684  -1.504  -0.544  0.00  0.00    -0.253 OA
ATOM      4  N   UNL     1       1.864  -0.158  -1.005  0.00  0.00    -0.298 N 
ATOM      6  N   UNL     1       3.844   0.835  -0.440  0.00  0.00    -0.269 N 
ATOM     20  C   UNL     1       3.192  -0.383  -0.649  0.00  0.00    +0.304 C 
ATOM     28  H   UNL     1       1.526   0.797  -1.067  0.00  0.00    +0.150 HD
ATOM     29  H   UNL     1       3.289   1.678  -0.569  0.00  0.00    +0.156 HD
BRANCH   6  22
ATOM     22  C   UNL     1       5.192   1.046  -0.067  0.00  0.00    +0.035 A 
ATOM     23  C   UNL     1       5.674   2.344   0.099  0.00  0.00    +0.023 A 
ATOM     24  C   UNL     1       6.039  -0.043   0.134  0.00  0.00    +0.023 A 
ATOM     25  C   UNL     1       7.003   2.553   0.466  0.00  0.00    +0.002 A 
ATOM     26  C   UNL     1       7.369   0.165   0.502  0.00  0.00    +0.002 A 
ATOM     27  C   UNL     1       7.851   1.464   0.668  0.00  0.00    +0.000 A 
ENDBRANCH   6  22
ENDBRANCH  15   4
ENDBRANCH   9  15
TORSDOF 5
