REMARK  Name = 7114630
REMARK  12 active torsions:
REMARK  status: ('A' for Active; 'I' for Inactive)
REMARK    1  A    between atoms: O_4  and  C_21
REMARK    2  A    between atoms: O_4  and  C_27
REMARK    3  A    between atoms: O_6  and  C_23
REMARK    4  A    between atoms: O_6  and  C_30
REMARK    5  A    between atoms: N_9  and  C_12
REMARK    6  A    between atoms: N_10  and  C_19
REMARK    7  A    between atoms: C_13  and  C_17
REMARK    8  A    between atoms: C_18  and  C_21
REMARK    9  A    between atoms: C_19  and  C_22
REMARK   10  A    between atoms: C_19  and  C_24
REMARK   11  A    between atoms: C_20  and  C_23
REMARK   12  A    between atoms: C_22  and  C_25
REMARK                            x       y       z     vdW  Elec       q    Type
REMARK                         _______ _______ _______ _____ _____    ______ ____
ROOT
ATOM      3  O   UNL     1       1.209   4.568  -1.042  0.00  0.00    -0.273 OA
ATOM      8  N   UNL     1       0.094   2.621  -0.420  0.00  0.00    -0.288 N 
ATOM     12  C   UNL     1      -2.421   1.153  -0.220  0.00  0.00    +0.077 C 
ATOM     13  C   UNL     1       0.078   1.333   0.294  0.00  0.00    +0.164 C 
ATOM     14  C   UNL     1      -1.309   0.950   0.813  0.00  0.00    +0.054 C 
ATOM     15  C   UNL     1      -2.357   2.566  -0.796  0.00  0.00    +0.041 C 
ATOM     16  C   UNL     1      -0.983   2.848  -1.390  0.00  0.00    +0.110 C 
ATOM     18  C   UNL     1       1.134   3.555  -0.342  0.00  0.00    +0.242 C 
ENDROOT
BRANCH  13  17
ATOM      2  O   UNL     1       0.966   0.591  -1.796  0.00  0.00    -0.274 OA
ATOM     10  N   UNL     1       0.690  -0.954  -0.077  0.00  0.00    -0.302 N 
ATOM     17  C   UNL     1       0.632   0.306  -0.649  0.00  0.00    +0.234 C 
ATOM     32  H   UNL     1       0.402  -1.079   0.888  0.00  0.00    +0.150 HD
BRANCH  10  19
ATOM     19  C   UNL     1       1.163  -2.122  -0.783  0.00  0.00    +0.163 C 
BRANCH  19  24
ATOM      7  O   UNL     1      -1.178  -2.691  -1.101  0.00  0.00    -0.274 OA
ATOM     11  N   UNL     1       0.315  -3.208  -2.769  0.00  0.00    -0.328 N 
ATOM     24  C   UNL     1      -0.027  -2.705  -1.531  0.00  0.00    +0.231 C 
ATOM     33  H   UNL     1      -0.388  -3.613  -3.378  0.00  0.00    +0.145 HD
ATOM     34  H   UNL     1       1.270  -3.211  -3.114  0.00  0.00    +0.145 HD
ENDBRANCH  19  24
BRANCH  19  22
ATOM     22  C   UNL     1       1.767  -3.168   0.162  0.00  0.00    +0.074 C 
BRANCH  22  25
ATOM      1  S   UNL     1       4.442  -3.936   0.273  0.00  0.00    -0.102 S 
ATOM     25  C   UNL     1       3.177  -2.822   0.577  0.00  0.00    -0.008 A 
ATOM     26  C   UNL     1       3.632  -1.681   1.199  0.00  0.00    +0.011 A 
ATOM     28  C   UNL     1       5.037  -1.721   1.430  0.00  0.00    +0.008 A 
ATOM     29  C   UNL     1       5.603  -2.892   0.975  0.00  0.00    +0.045 A 
ENDBRANCH  22  25
ENDBRANCH  19  22
ENDBRANCH  10  19
ENDBRANCH  13  17
BRANCH  12   9
ATOM      5  O   UNL     1      -3.822  -1.380  -0.084  0.00  0.00    -0.273 OA
ATOM      9  N   UNL     1      -3.716   0.900   0.364  0.00  0.00    -0.310 N 
ATOM     20  C   UNL     1      -4.309  -0.354   0.382  0.00  0.00    +0.239 C 
ATOM     31  H   UNL     1      -4.186   1.670   0.832  0.00  0.00    +0.149 HD
BRANCH  20  23
ATOM     23  C   UNL     1      -5.664  -0.324   1.058  0.00  0.00    +0.255 C 
BRANCH  23   6
ATOM      6  O   UNL     1      -6.240  -1.613   1.075  0.00  0.00    -0.374 OA
ATOM     30  C   UNL     1      -7.517  -1.614   1.707  0.00  0.00    +0.194 C 
ENDBRANCH  23   6
ENDBRANCH  20  23
ENDBRANCH  12   9
BRANCH  18  21
ATOM     21  C   UNL     1       2.214   3.287   0.678  0.00  0.00    +0.255 C 
BRANCH  21   4
ATOM      4  O   UNL     1       3.154   4.324   0.548  0.00  0.00    -0.374 OA
ATOM     27  C   UNL     1       4.237   4.184   1.467  0.00  0.00    +0.194 C 
ENDBRANCH  21   4
ENDBRANCH  18  21
TORSDOF 10
