REMARK  Name = 75367798
REMARK  7 active torsions:
REMARK  status: ('A' for Active; 'I' for Inactive)
REMARK    1  A    between atoms: O_2  and  C_6
REMARK    2  A    between atoms: O_2  and  C_12
REMARK    3  A    between atoms: O_3  and  C_18
REMARK    4  A    between atoms: O_3  and  C_24
REMARK    5  A    between atoms: N_4  and  C_9
REMARK    6  A    between atoms: C_9  and  C_11
REMARK    7  A    between atoms: C_12  and  C_15
REMARK                            x       y       z     vdW  Elec       q    Type
REMARK                         _______ _______ _______ _____ _____    ______ ____
ROOT
ATOM      1  O   UNL     1      -0.679  -4.162  -0.915  0.00  0.00    -0.376 OA
ATOM      4  N   UNL     1       1.321  -2.160   0.397  0.00  0.00    -0.293 NA
ATOM      5  C   UNL     1       0.107  -1.338   0.452  0.00  0.00    +0.118 C 
ATOM      6  C   UNL     1      -1.204  -1.961  -0.055  0.00  0.00    +0.158 C 
ATOM      7  C   UNL     1       1.104  -3.577   0.693  0.00  0.00    +0.113 C 
ATOM      8  C   UNL     1      -1.047  -2.838  -1.289  0.00  0.00    +0.192 C 
ATOM     10  C   UNL     1       0.693  -4.319  -0.580  0.00  0.00    +0.175 C 
ENDROOT
BRANCH   6   2
ATOM      2  O   UNL     1      -2.103  -0.899  -0.380  0.00  0.00    -0.368 OA
BRANCH   2  12
ATOM     12  C   UNL     1      -2.730  -0.381   0.782  0.00  0.00    +0.195 C 
BRANCH  12  15
ATOM     15  C   UNL     1      -3.660   0.727   0.385  0.00  0.00    -0.022 A 
ATOM     19  C   UNL     1      -3.196   2.041   0.327  0.00  0.00    +0.006 A 
ATOM     20  C   UNL     1      -4.989   0.443   0.072  0.00  0.00    +0.006 A 
ATOM     21  C   UNL     1      -4.061   3.071  -0.043  0.00  0.00    +0.000 A 
ATOM     22  C   UNL     1      -5.854   1.472  -0.298  0.00  0.00    +0.000 A 
ATOM     23  C   UNL     1      -5.390   2.787  -0.356  0.00  0.00    +0.000 A 
ENDBRANCH  12  15
ENDBRANCH   2  12
ENDBRANCH   6   2
BRANCH   4   9
ATOM      9  C   UNL     1       2.356  -1.586   1.257  0.00  0.00    +0.119 C 
BRANCH   9  11
ATOM     11  C   UNL     1       2.929  -0.321   0.676  0.00  0.00    -0.033 A 
ATOM     13  C   UNL     1       2.551   0.918   1.195  0.00  0.00    +0.008 A 
ATOM     14  C   UNL     1       3.836  -0.387  -0.382  0.00  0.00    +0.008 A 
ATOM     16  C   UNL     1       3.081   2.091   0.656  0.00  0.00    +0.046 A 
ATOM     17  C   UNL     1       4.366   0.786  -0.920  0.00  0.00    +0.046 A 
ATOM     18  C   UNL     1       3.989   2.025  -0.401  0.00  0.00    +0.120 A 
BRANCH  18   3
ATOM      3  O   UNL     1       4.506   3.168  -0.927  0.00  0.00    -0.495 OA
ATOM     24  C   UNL     1       4.077   4.400  -0.348  0.00  0.00    +0.277 C 
ENDBRANCH  18   3
ENDBRANCH   9  11
ENDBRANCH   4   9
TORSDOF 6
