REMARK  Name = 75536603
REMARK  9 active torsions:
REMARK  status: ('A' for Active; 'I' for Inactive)
REMARK    1  A    between atoms: O_3  and  C_10
REMARK    2  A    between atoms: O_5  and  C_24
REMARK    3  A    between atoms: N_7  and  C_9
REMARK    4  A    between atoms: N_7  and  C_14
REMARK    5  A    between atoms: N_8  and  C_13
REMARK    6  A    between atoms: C_11  and  C_13
REMARK    7  A    between atoms: C_14  and  C_15
REMARK    8  A    between atoms: C_16  and  C_19
REMARK    9  A    between atoms: C_22  and  C_24
REMARK                            x       y       z     vdW  Elec       q    Type
REMARK                         _______ _______ _______ _____ _____    ______ ____
ROOT
ATOM      2  O   UNL     1       1.784  -0.977  -0.114  0.00  0.00    -0.371 OA
ATOM      9  C   UNL     1      -0.237   0.242  -0.380  0.00  0.00    +0.111 C 
ATOM     10  C   UNL     1       0.667   0.988   0.583  0.00  0.00    +0.164 C 
ATOM     11  C   UNL     1       2.025   0.399   0.227  0.00  0.00    +0.165 C 
ATOM     12  C   UNL     1       0.376  -1.149  -0.353  0.00  0.00    +0.181 C 
ENDROOT
BRANCH  10   3
ATOM      3  O   UNL     1       0.633   2.389   0.391  0.00  0.00    -0.388 OA
ATOM     28  H   UNL     1       0.868   2.576  -0.534  0.00  0.00    +0.210 HD
ENDBRANCH  10   3
BRANCH   9   7
ATOM      7  N   UNL     1      -1.638   0.250   0.010  0.00  0.00    -0.305 NA
ATOM     27  H   UNL     1      -1.901   1.196   0.286  0.00  0.00    +0.123 HD
BRANCH   7  14
ATOM     14  C   UNL     1      -2.492  -0.174  -1.093  0.00  0.00    +0.116 C 
BRANCH  14  15
ATOM     15  C   UNL     1      -3.946  -0.187  -0.703  0.00  0.00    -0.034 A 
ATOM     17  C   UNL     1      -4.446  -1.222   0.088  0.00  0.00    +0.006 A 
ATOM     18  C   UNL     1      -4.794   0.834  -1.132  0.00  0.00    +0.006 A 
ATOM     20  C   UNL     1      -5.793  -1.235   0.450  0.00  0.00    +0.015 A 
ATOM     21  C   UNL     1      -6.141   0.821  -0.770  0.00  0.00    +0.015 A 
ATOM     22  C   UNL     1      -6.640  -0.213   0.021  0.00  0.00    +0.059 A 
BRANCH  22  24
ATOM      6  O   UNL     1      -8.592  -1.089   1.094  0.00  0.00    -0.245 OA
ATOM     24  C   UNL     1      -8.045  -0.226   0.399  0.00  0.00    +0.337 C 
BRANCH  24   5
ATOM      5  O   UNL     1      -8.728   0.840  -0.101  0.00  0.00    -0.477 OA
ATOM     30  H   UNL     1      -9.674   0.822   0.159  0.00  0.00    +0.295 HD
ENDBRANCH  24   5
ENDBRANCH  22  24
ENDBRANCH  14  15
ENDBRANCH   7  14
ENDBRANCH   9   7
BRANCH  11  13
ATOM     13  C   UNL     1       3.031   0.478   1.361  0.00  0.00    +0.138 C 
BRANCH  13   8
ATOM      4  O   UNL     1       5.237   1.855   0.145  0.00  0.00    -0.270 OA
ATOM      8  N   UNL     1       4.292  -0.092   0.982  0.00  0.00    -0.308 N 
ATOM     16  C   UNL     1       5.309   0.655   0.395  0.00  0.00    +0.251 C 
ATOM     29  H   UNL     1       4.417  -1.085   1.146  0.00  0.00    +0.149 HD
BRANCH  16  19
ATOM      1  S   UNL     1       7.845   0.757  -0.690  0.00  0.00    -0.092 S 
ATOM     19  C   UNL     1       6.545  -0.088   0.036  0.00  0.00    +0.074 A 
ATOM     23  C   UNL     1       6.828  -1.426   0.205  0.00  0.00    +0.021 A 
ATOM     25  C   UNL     1       8.129  -1.761  -0.268  0.00  0.00    +0.008 A 
ATOM     26  C   UNL     1       8.791  -0.667  -0.781  0.00  0.00    +0.046 A 
ENDBRANCH  16  19
ENDBRANCH  13   8
ENDBRANCH  11  13
TORSDOF 9
