REMARK  Name = 45360474
REMARK  7 active torsions:
REMARK  status: ('A' for Active; 'I' for Inactive)
REMARK    1  A    between atoms: N_2  and  C_13
REMARK    2  A    between atoms: N_2  and  C_15
REMARK    3  A    between atoms: N_4  and  C_23
REMARK    4  A    between atoms: C_7  and  C_13
REMARK    5  A    between atoms: C_8  and  C_14
REMARK    6  A    between atoms: C_21  and  C_24
REMARK    7  A    between atoms: C_22  and  C_25
REMARK                            x       y       z     vdW  Elec       q    Type
REMARK                         _______ _______ _______ _____ _____    ______ ____
ROOT
ATOM      1  N   UNL     1      -1.027  -2.902   1.620  0.00  0.00    -0.298 NA
ATOM      6  C   UNL     1      -0.146  -3.239  -0.807  0.00  0.00    +0.002 C 
ATOM      7  C   UNL     1      -2.045  -2.437   0.641  0.00  0.00    +0.071 C 
ATOM      8  C   UNL     1       0.915  -2.506   0.059  0.00  0.00    +0.055 C 
ATOM      9  C   UNL     1      -1.463  -2.435  -0.789  0.00  0.00    +0.024 C 
ATOM     10  C   UNL     1      -0.429  -4.590  -0.116  0.00  0.00    +0.019 C 
ATOM     11  C   UNL     1       0.245  -2.164   1.421  0.00  0.00    +0.094 C 
ATOM     12  C   UNL     1      -0.773  -4.340   1.363  0.00  0.00    +0.085 C 
ENDROOT
BRANCH   8  14
ATOM      3  N   UNL     1       1.286  -0.963  -1.802  0.00  0.00    -0.237 NA
ATOM      5  N   UNL     1       2.896   0.826  -1.686  0.00  0.00    -0.232 NA
ATOM     14  C   UNL     1       1.635  -1.310  -0.546  0.00  0.00    +0.050 A 
ATOM     18  C   UNL     1       2.593  -0.646   0.194  0.00  0.00    +0.052 A 
ATOM     21  C   UNL     1       3.196   0.425  -0.433  0.00  0.00    +0.075 A 
ATOM     22  C   UNL     1       1.946   0.098  -2.304  0.00  0.00    +0.127 A 
ATOM     25  C   UNL     1       1.588   0.510  -3.691  0.00  0.00    +0.088 C 
BRANCH  21  24
ATOM     24  C   UNL     1       4.215   1.201   0.232  0.00  0.00    +0.000 A 
ATOM     26  C   UNL     1       3.920   1.863   1.424  0.00  0.00    +0.010 A 
ATOM     27  C   UNL     1       5.494   1.290  -0.317  0.00  0.00    +0.010 A 
ATOM     28  C   UNL     1       4.904   2.613   2.067  0.00  0.00    +0.001 A 
ATOM     29  C   UNL     1       6.478   2.041   0.327  0.00  0.00    +0.001 A 
ATOM     30  C   UNL     1       6.183   2.702   1.519  0.00  0.00    +0.000 A 
ENDBRANCH  21  24
ENDBRANCH   8  14
BRANCH   7  13
ATOM     13  C   UNL     1      -2.637  -1.078   1.018  0.00  0.00    +0.100 C 
BRANCH  13   2
ATOM      2  N   UNL     1      -3.727  -0.724   0.123  0.00  0.00    -0.312 NA
ATOM     31  H   UNL     1      -4.442  -1.450   0.170  0.00  0.00    +0.122 HD
BRANCH   2  15
ATOM      4  N   UNL     1      -5.413   3.152  -0.317  0.00  0.00    -0.305 NA
ATOM     15  C   UNL     1      -4.310   0.565   0.489  0.00  0.00    +0.056 C 
ATOM     16  C   UNL     1      -5.710   0.703  -0.113  0.00  0.00    +0.034 C 
ATOM     17  C   UNL     1      -3.422   1.721   0.020  0.00  0.00    +0.034 C 
ATOM     19  C   UNL     1      -6.297   2.087   0.176  0.00  0.00    +0.085 C 
ATOM     20  C   UNL     1      -4.084   3.071   0.305  0.00  0.00    +0.085 C 
ATOM     23  C   UNL     1      -6.011   4.465  -0.078  0.00  0.00    +0.104 C 
ENDBRANCH   2  15
ENDBRANCH  13   2
ENDBRANCH   7  13
TORSDOF 5
