REMARK  Name = 45784205
REMARK  3 active torsions:
REMARK  status: ('A' for Active; 'I' for Inactive)
REMARK    1  A    between atoms: N_3  and  C_9
REMARK    2  A    between atoms: C_5  and  C_10
REMARK    3  A    between atoms: C_9  and  C_11
REMARK                            x       y       z     vdW  Elec       q    Type
REMARK                         _______ _______ _______ _____ _____    ______ ____
ROOT
ATOM      3  N   UNL     1      -1.497  -0.128  -0.015  0.00  0.00    -0.297 NA
ATOM      5  C   UNL     1       0.711  -0.555   0.650  0.00  0.00    +0.090 C 
ATOM      6  C   UNL     1       0.040   0.387   1.666  0.00  0.00    +0.029 C 
ATOM      7  C   UNL     1      -0.202  -0.511  -0.582  0.00  0.00    +0.097 C 
ATOM      8  C   UNL     1      -1.189   0.929   0.948  0.00  0.00    +0.085 C 
ENDROOT
BRANCH   5  10
ATOM      2  O   UNL     1       3.063  -1.195   0.607  0.00  0.00    -0.439 OA
ATOM      4  N   UNL     1       2.637   0.886  -0.183  0.00  0.00    -0.213 NA
ATOM     10  C   UNL     1       2.150  -0.222   0.330  0.00  0.00    +0.201 A 
ATOM     12  C   UNL     1       4.250  -0.638   0.228  0.00  0.00    +0.155 A 
ATOM     13  C   UNL     1       3.986   0.636  -0.255  0.00  0.00    +0.110 A 
ATOM     16  C   UNL     1       5.514  -1.211   0.298  0.00  0.00    +0.048 A 
ATOM     17  C   UNL     1       5.053   1.422  -0.712  0.00  0.00    +0.031 A 
ATOM     20  C   UNL     1       6.567  -0.413  -0.162  0.00  0.00    +0.004 A 
ATOM     21  C   UNL     1       6.344   0.877  -0.657  0.00  0.00    +0.002 A 
ENDBRANCH   5  10
BRANCH   3   9
ATOM      9  C   UNL     1      -2.442   0.307  -1.033  0.00  0.00    +0.122 C 
BRANCH   9  11
ATOM      1  F   UNL     1      -3.933  -2.085  -0.751  0.00  0.00    -0.205 F 
ATOM     11  C   UNL     1      -3.861   0.277  -0.529  0.00  0.00    +0.002 A 
ATOM     14  C   UNL     1      -4.537  -0.937  -0.415  0.00  0.00    +0.128 A 
ATOM     15  C   UNL     1      -4.498   1.467  -0.177  0.00  0.00    +0.008 A 
ATOM     18  C   UNL     1      -5.852  -0.962   0.051  0.00  0.00    +0.038 A 
ATOM     19  C   UNL     1      -5.813   1.442   0.289  0.00  0.00    +0.000 A 
ATOM     22  C   UNL     1      -6.489   0.228   0.404  0.00  0.00    +0.003 A 
ENDBRANCH   9  11
ENDBRANCH   3   9
TORSDOF 3
