REMARK  Name = 25313090
REMARK  8 active torsions:
REMARK  status: ('A' for Active; 'I' for Inactive)
REMARK    1  A    between atoms: O_2  and  C_23
REMARK    2  A    between atoms: N_5  and  C_18
REMARK    3  A    between atoms: N_6  and  C_24
REMARK    4  A    between atoms: C_7  and  C_15
REMARK    5  A    between atoms: C_8  and  C_17
REMARK    6  A    between atoms: C_9  and  C_16
REMARK    7  A    between atoms: C_15  and  C_18
REMARK    8  A    between atoms: C_17  and  C_23
REMARK                            x       y       z     vdW  Elec       q    Type
REMARK                         _______ _______ _______ _____ _____    ______ ____
ROOT
ATOM      1  O   UNL     1       2.764   3.428   1.645  0.00  0.00    -0.275 OA
ATOM      4  N   UNL     1       3.249   1.766   0.097  0.00  0.00    -0.301 N 
ATOM      7  C   UNL     1       2.799  -0.442  -0.951  0.00  0.00    +0.011 C 
ATOM      8  C   UNL     1       4.003  -1.019  -0.164  0.00  0.00    +0.006 C 
ATOM     10  C   UNL     1       2.994   1.069  -1.171  0.00  0.00    +0.111 C 
ATOM     11  C   UNL     1       4.265  -0.229   1.129  0.00  0.00    +0.023 C 
ATOM     14  C   UNL     1       4.400   1.266   0.848  0.00  0.00    +0.108 C 
ATOM     16  C   UNL     1       2.513   2.843   0.589  0.00  0.00    +0.219 C 
ENDROOT
BRANCH  16   9
ATOM      9  C   UNL     1       1.340   3.296  -0.243  0.00  0.00    +0.075 C 
ATOM     12  C   UNL     1       1.573   4.264  -1.367  0.00  0.00    +0.013 C 
ATOM     13  C   UNL     1       0.864   4.715  -0.123  0.00  0.00    +0.013 C 
ENDBRANCH  16   9
BRANCH   7  15
ATOM     15  C   UNL     1       1.439  -0.714  -0.296  0.00  0.00    +0.020 C 
BRANCH  15  18
ATOM     18  C   UNL     1       0.327  -0.716  -1.335  0.00  0.00    +0.085 C 
BRANCH  18   5
ATOM      5  N   UNL     1      -0.960  -0.959  -0.684  0.00  0.00    -0.299 NA
ATOM      6  N   UNL     1      -3.754  -0.597  -0.215  0.00  0.00    -0.327 N 
ATOM     19  C   UNL     1      -1.452   0.266  -0.041  0.00  0.00    +0.103 C 
ATOM     20  C   UNL     1      -1.946  -1.442  -1.658  0.00  0.00    +0.103 C 
ATOM     21  C   UNL     1      -2.771   0.010   0.692  0.00  0.00    +0.120 C 
ATOM     22  C   UNL     1      -3.282  -1.755  -0.980  0.00  0.00    +0.120 C 
BRANCH   6  24
ATOM     24  C   UNL     1      -5.109  -0.491   0.119  0.00  0.00    +0.030 A 
ATOM     25  C   UNL     1      -5.699   0.767   0.251  0.00  0.00    +0.023 A 
ATOM     26  C   UNL     1      -5.870  -1.642   0.318  0.00  0.00    +0.023 A 
ATOM     27  C   UNL     1      -7.050   0.872   0.581  0.00  0.00    +0.002 A 
ATOM     28  C   UNL     1      -7.222  -1.537   0.647  0.00  0.00    +0.002 A 
ATOM     29  C   UNL     1      -7.811  -0.280   0.779  0.00  0.00    +0.000 A 
ENDBRANCH   6  24
ENDBRANCH  18   5
ENDBRANCH  15  18
ENDBRANCH   7  15
BRANCH   8  17
ATOM     17  C   UNL     1       3.866  -2.512   0.135  0.00  0.00    +0.124 C 
BRANCH  17  23
ATOM      3  O   UNL     1       6.291  -2.597   0.370  0.00  0.00    -0.251 OA
ATOM     23  C   UNL     1       5.203  -3.153   0.386  0.00  0.00    +0.305 C 
BRANCH  23   2
ATOM      2  O   UNL     1       5.035  -4.476   0.641  0.00  0.00    -0.481 OA
ATOM     30  H   UNL     1       5.890  -4.927   0.811  0.00  0.00    +0.295 HD
ENDBRANCH  23   2
ENDBRANCH  17  23
ENDBRANCH   8  17
TORSDOF 8
