REMARK  Name = 7050141
REMARK  12 active torsions:
REMARK  status: ('A' for Active; 'I' for Inactive)
REMARK    1  A    between atoms: O_2  and  C_11
REMARK    2  A    between atoms: O_3  and  C_13
REMARK    3  A    between atoms: O_7  and  C_30
REMARK    4  A    between atoms: O_7  and  C_33
REMARK    5  A    between atoms: N_8  and  C_12
REMARK    6  A    between atoms: N_9  and  C_18
REMARK    7  A    between atoms: C_15  and  C_17
REMARK    8  A    between atoms: C_18  and  C_20
REMARK    9  A    between atoms: C_18  and  C_23
REMARK   10  A    between atoms: C_19  and  C_21
REMARK   11  A    between atoms: C_20  and  C_22
REMARK   12  A    between atoms: C_21  and  C_24
REMARK                            x       y       z     vdW  Elec       q    Type
REMARK                         _______ _______ _______ _____ _____    ______ ____
ROOT
ATOM     11  C   UNL     1      -0.956   3.675   0.217  0.00  0.00    +0.167 C 
ATOM     12  C   UNL     1      -1.118   2.172  -0.076  0.00  0.00    +0.127 C 
ATOM     13  C   UNL     1       0.422   4.188  -0.221  0.00  0.00    +0.149 C 
ATOM     14  C   UNL     1       1.568   3.392   0.426  0.00  0.00    +0.074 C 
ATOM     15  C   UNL     1       1.288   1.919   0.529  0.00  0.00    +0.015 C 
ATOM     16  C   UNL     1       0.091   1.359   0.298  0.00  0.00    +0.006 C 
ENDROOT
BRANCH  15  17
ATOM      4  O   UNL     1       2.631   0.748   2.059  0.00  0.00    -0.271 OA
ATOM      9  N   UNL     1       3.100   0.576  -0.218  0.00  0.00    -0.300 N 
ATOM     17  C   UNL     1       2.396   1.028   0.884  0.00  0.00    +0.241 C 
ATOM     37  H   UNL     1       2.832   0.899  -1.144  0.00  0.00    +0.150 HD
BRANCH   9  18
ATOM     18  C   UNL     1       4.237  -0.311  -0.119  0.00  0.00    +0.163 C 
BRANCH  18  23
ATOM      6  O   UNL     1       5.392   1.251  -1.579  0.00  0.00    -0.274 OA
ATOM     10  N   UNL     1       6.599   0.172   0.051  0.00  0.00    -0.328 N 
ATOM     23  C   UNL     1       5.444   0.446  -0.652  0.00  0.00    +0.231 C 
ATOM     38  H   UNL     1       6.627  -0.492   0.817  0.00  0.00    +0.145 HD
ATOM     39  H   UNL     1       7.474   0.623  -0.192  0.00  0.00    +0.145 HD
ENDBRANCH  18  23
BRANCH  18  20
ATOM     20  C   UNL     1       4.029  -1.609  -0.909  0.00  0.00    +0.067 C 
BRANCH  20  22
ATOM     22  C   UNL     1       2.825  -2.390  -0.442  0.00  0.00    -0.045 A 
ATOM     25  C   UNL     1       2.975  -3.335   0.559  0.00  0.00    +0.007 A 
ATOM     26  C   UNL     1       1.591  -2.148  -1.026  0.00  0.00    +0.007 A 
ATOM     28  C   UNL     1       1.862  -4.058   0.990  0.00  0.00    +0.046 A 
ATOM     29  C   UNL     1       0.478  -2.870  -0.595  0.00  0.00    +0.046 A 
ATOM     30  C   UNL     1       0.614  -3.825   0.412  0.00  0.00    +0.120 A 
BRANCH  30   7
ATOM      7  O   UNL     1      -0.472  -4.530   0.834  0.00  0.00    -0.495 OA
ATOM     33  C   UNL     1      -1.718  -4.243   0.201  0.00  0.00    +0.277 C 
ENDBRANCH  30   7
ENDBRANCH  20  22
ENDBRANCH  18  20
ENDBRANCH   9  18
ENDBRANCH  15  17
BRANCH  12   8
ATOM      5  O   UNL     1      -3.804   2.054  -1.104  0.00  0.00    -0.275 OA
ATOM      8  N   UNL     1      -2.274   1.622   0.589  0.00  0.00    -0.306 N 
ATOM     19  C   UNL     1      -3.534   1.610   0.011  0.00  0.00    +0.218 C 
ATOM     34  H   UNL     1      -2.159   1.268   1.534  0.00  0.00    +0.149 HD
BRANCH  19  21
ATOM     21  C   UNL     1      -4.586   0.966   0.892  0.00  0.00    +0.138 C 
BRANCH  21  24
ATOM      1  S   UNL     1      -6.816  -0.256  -0.180  0.00  0.00    -0.101 S 
ATOM     24  C   UNL     1      -5.155  -0.232   0.184  0.00  0.00    -0.001 A 
ATOM     27  C   UNL     1      -4.492  -1.351  -0.224  0.00  0.00    +0.011 A 
ATOM     31  C   UNL     1      -5.375  -2.270  -0.861  0.00  0.00    +0.008 A 
ATOM     32  C   UNL     1      -6.668  -1.800  -0.905  0.00  0.00    +0.045 A 
ENDBRANCH  21  24
ENDBRANCH  19  21
ENDBRANCH  12   8
BRANCH  11   2
ATOM      2  O   UNL     1      -1.109   3.910   1.618  0.00  0.00    -0.387 OA
ATOM     35  H   UNL     1      -0.508   3.321   2.103  0.00  0.00    +0.210 HD
ENDBRANCH  11   2
BRANCH  13   3
ATOM      3  O   UNL     1       0.535   4.140  -1.642  0.00  0.00    -0.389 OA
ATOM     36  H   UNL     1       1.400   4.514  -1.881  0.00  0.00    +0.210 HD
ENDBRANCH  13   3
TORSDOF 11
