REMARK  Name = 38027434
REMARK  14 active torsions:
REMARK  status: ('A' for Active; 'I' for Inactive)
REMARK    1  A    between atoms: N_3  and  C_14
REMARK    2  A    between atoms: N_4  and  C_21
REMARK    3  A    between atoms: N_5  and  C_23
REMARK    4  A    between atoms: N_6  and  C_22
REMARK    5  A    between atoms: N_6  and  C_24
REMARK    6  A    between atoms: N_6  and  C_25
REMARK    7  A    between atoms: C_7  and  C_11
REMARK    8  A    between atoms: C_8  and  C_14
REMARK    9  A    between atoms: C_10  and  C_15
REMARK   10  A    between atoms: C_11  and  C_16
REMARK   11  A    between atoms: C_11  and  C_17
REMARK   12  A    between atoms: C_12  and  C_18
REMARK   13  A    between atoms: C_15  and  C_19
REMARK   14  A    between atoms: C_21  and  C_22
REMARK                            x       y       z     vdW  Elec       q    Type
REMARK                         _______ _______ _______ _____ _____    ______ ____
ROOT
ATOM      7  C   UNL     1       0.030   2.377   0.973  0.00  0.00    +0.000 C 
ATOM      8  C   UNL     1      -0.898   3.395   0.266  0.00  0.00    +0.032 C 
ATOM      9  C   UNL     1       1.482   2.562   0.507  0.00  0.00    +0.012 C 
ATOM     10  C   UNL     1       1.633   2.383  -1.016  0.00  0.00    +0.023 C 
ATOM     12  C   UNL     1       0.574   3.152  -1.780  0.00  0.00    -0.073 C 
ATOM     13  C   UNL     1      -0.544   3.608  -1.188  0.00  0.00    -0.022 C 
ATOM     18  C   UNL     1       0.851   3.424  -3.232  0.00  0.00    +0.039 C 
ENDROOT
BRANCH   7  11
ATOM     11  C   UNL     1      -0.045   2.503   2.498  0.00  0.00    -0.013 C 
ATOM     16  C   UNL     1       0.357   1.189   3.161  0.00  0.00    +0.007 C 
ATOM     17  C   UNL     1       0.842   3.646   2.982  0.00  0.00    +0.007 C 
ENDBRANCH   7  11
BRANCH   8  14
ATOM     14  C   UNL     1      -2.368   2.974   0.377  0.00  0.00    +0.113 C 
BRANCH  14   3
ATOM      2  O   UNL     1      -3.331   0.504   1.461  0.00  0.00    -0.253 OA
ATOM      3  N   UNL     1      -2.603   1.760  -0.341  0.00  0.00    -0.299 N 
ATOM      5  N   UNL     1      -3.212  -0.440  -0.685  0.00  0.00    -0.269 N 
ATOM     20  C   UNL     1      -3.079   0.580   0.260  0.00  0.00    +0.304 C 
ATOM     31  H   UNL     1      -2.486   1.763  -1.349  0.00  0.00    +0.150 HD
ATOM     33  H   UNL     1      -2.958  -0.210  -1.643  0.00  0.00    +0.156 HD
BRANCH   5  23
ATOM     23  C   UNL     1      -3.659  -1.766  -0.475  0.00  0.00    +0.035 A 
ATOM     26  C   UNL     1      -3.727  -2.657  -1.546  0.00  0.00    +0.023 A 
ATOM     27  C   UNL     1      -4.030  -2.182   0.803  0.00  0.00    +0.023 A 
ATOM     28  C   UNL     1      -4.167  -3.964  -1.339  0.00  0.00    +0.002 A 
ATOM     29  C   UNL     1      -4.470  -3.489   1.010  0.00  0.00    +0.002 A 
ATOM     30  C   UNL     1      -4.539  -4.380  -0.060  0.00  0.00    +0.000 A 
ENDBRANCH   5  23
ENDBRANCH  14   3
ENDBRANCH   8  14
BRANCH  10  15
ATOM     15  C   UNL     1       1.620   0.900  -1.402  0.00  0.00    +0.103 C 
BRANCH  15  19
ATOM      1  O   UNL     1       3.865   0.774  -0.508  0.00  0.00    -0.276 OA
ATOM      4  N   UNL     1       2.873  -1.136  -1.383  0.00  0.00    -0.314 N 
ATOM     19  C   UNL     1       2.913   0.207  -1.038  0.00  0.00    +0.214 C 
ATOM     32  H   UNL     1       2.032  -1.514  -1.812  0.00  0.00    +0.149 HD
BRANCH   4  21
ATOM     21  C   UNL     1       3.973  -2.044  -1.154  0.00  0.00    +0.119 C 
BRANCH  21  22
ATOM     22  C   UNL     1       3.867  -2.703   0.213  0.00  0.00    +0.102 C 
BRANCH  22   6
ATOM      6  N   UNL     1       4.970  -3.635   0.413  0.00  0.00    -0.307 NA
ATOM     24  C   UNL     1       4.631  -4.623   1.440  0.00  0.00    +0.104 C 
ATOM     25  C   UNL     1       6.191  -2.918   0.784  0.00  0.00    +0.104 C 
ENDBRANCH  22   6
ENDBRANCH  21  22
ENDBRANCH   4  21
ENDBRANCH  15  19
ENDBRANCH  10  15
TORSDOF 9
