REMARK  Name = 45784308
REMARK  5 active torsions:
REMARK  status: ('A' for Active; 'I' for Inactive)
REMARK    1  A    between atoms: O_1  and  C_18
REMARK    2  A    between atoms: O_1  and  C_20
REMARK    3  A    between atoms: N_2  and  C_8
REMARK    4  A    between atoms: C_5  and  C_8
REMARK    5  A    between atoms: C_9  and  C_13
REMARK                            x       y       z     vdW  Elec       q    Type
REMARK                         _______ _______ _______ _____ _____    ______ ____
ROOT
ATOM      3  N   UNL     1       1.298  -1.186   0.206  0.00  0.00    -0.341 N 
ATOM      4  N   UNL     1       0.682   0.949   0.267  0.00  0.00    -0.232 NA
ATOM     13  C   UNL     1       0.268  -0.296   0.338  0.00  0.00    +0.113 A 
ATOM     14  C   UNL     1       2.453  -0.467   0.038  0.00  0.00    +0.070 A 
ATOM     15  C   UNL     1       2.043   0.862   0.080  0.00  0.00    +0.089 A 
ATOM     16  C   UNL     1       3.782  -0.854  -0.141  0.00  0.00    +0.073 A 
ATOM     17  C   UNL     1       3.001   1.880  -0.064  0.00  0.00    +0.033 A 
ATOM     18  C   UNL     1       4.722   0.171  -0.283  0.00  0.00    +0.122 A 
ATOM     19  C   UNL     1       4.341   1.514  -0.245  0.00  0.00    +0.048 A 
ATOM     21  H   UNL     1       1.224  -2.195   0.228  0.00  0.00    +0.167 HD
ENDROOT
BRANCH  13   9
ATOM      2  N   UNL     1      -3.388  -0.187   0.123  0.00  0.00    -0.301 NA
ATOM      9  C   UNL     1      -1.154  -0.765   0.541  0.00  0.00    +0.070 C 
ATOM     10  C   UNL     1      -2.103  -0.296  -0.570  0.00  0.00    +0.095 C 
ATOM     11  C   UNL     1      -3.074   0.449   1.403  0.00  0.00    +0.085 C 
ATOM     12  C   UNL     1      -1.814  -0.285   1.845  0.00  0.00    +0.028 C 
BRANCH   2   8
ATOM      8  C   UNL     1      -4.371   0.566  -0.643  0.00  0.00    +0.088 C 
BRANCH   8   5
ATOM      5  C   UNL     1      -5.760   0.280  -0.174  0.00  0.00    +0.003 C 
ATOM      6  C   UNL     1      -6.892   0.336  -1.158  0.00  0.00    +0.005 C 
ATOM      7  C   UNL     1      -6.436  -0.986  -0.613  0.00  0.00    +0.005 C 
ENDBRANCH   8   5
ENDBRANCH   2   8
ENDBRANCH  13   9
BRANCH  18   1
ATOM      1  O   UNL     1       6.036  -0.148  -0.461  0.00  0.00    -0.495 OA
ATOM     20  C   UNL     1       6.366  -1.535  -0.491  0.00  0.00    +0.277 C 
ENDBRANCH  18   1
TORSDOF 4
