REMARK  Name = 45783505
REMARK  6 active torsions:
REMARK  status: ('A' for Active; 'I' for Inactive)
REMARK    1  A    between atoms: O_3  and  C_32
REMARK    2  A    between atoms: N_5  and  C_14
REMARK    3  A    between atoms: C_10  and  C_15
REMARK    4  A    between atoms: C_14  and  C_16
REMARK    5  A    between atoms: C_17  and  C_22
REMARK    6  A    between atoms: C_28  and  C_32
REMARK                            x       y       z     vdW  Elec       q    Type
REMARK                         _______ _______ _______ _____ _____    ______ ____
ROOT
ATOM      1  O   UNL     1      -2.479  -1.677   1.978  0.00  0.00    -0.336 OA
ATOM      6  N   UNL     1      -1.647  -1.239  -0.055  0.00  0.00    -0.190 NA
ATOM      8  N   UNL     1      -1.090  -1.598   2.135  0.00  0.00    -0.056 NA
ATOM     15  C   UNL     1      -2.722  -1.454   0.659  0.00  0.00    +0.245 A 
ATOM     17  C   UNL     1      -0.670  -1.337   0.893  0.00  0.00    +0.204 A 
ENDROOT
BRANCH  17  22
ATOM      2  O   UNL     1       7.481  -0.265  -0.646  0.00  0.00    -0.377 OA
ATOM      7  N   UNL     1       4.729  -0.708  -0.284  0.00  0.00    -0.311 N 
ATOM      9  N   UNL     1       3.020  -1.128   1.299  0.00  0.00    -0.240 NA
ATOM     20  C   UNL     1       5.207   0.557  -0.854  0.00  0.00    +0.134 C 
ATOM     21  C   UNL     1       5.712  -1.440   0.526  0.00  0.00    +0.134 C 
ATOM     22  C   UNL     1       0.717  -1.171   0.566  0.00  0.00    +0.041 A 
ATOM     23  C   UNL     1       6.548   0.336  -1.545  0.00  0.00    +0.178 C 
ATOM     24  C   UNL     1       7.026  -1.555  -0.239  0.00  0.00    +0.178 C 
ATOM     25  C   UNL     1       3.373  -0.866   0.020  0.00  0.00    +0.121 A 
ATOM     29  C   UNL     1       1.118  -0.902  -0.737  0.00  0.00    +0.016 A 
ATOM     30  C   UNL     1       2.470  -0.745  -1.024  0.00  0.00    +0.044 A 
ATOM     31  C   UNL     1       1.698  -1.273   1.539  0.00  0.00    +0.124 A 
ENDBRANCH  17  22
BRANCH  15  10
ATOM      5  N   UNL     1      -4.428  -0.648  -0.963  0.00  0.00    -0.287 NA
ATOM     10  C   UNL     1      -4.173  -1.486   0.226  0.00  0.00    +0.146 C 
ATOM     11  C   UNL     1      -4.641  -2.895  -0.181  0.00  0.00    +0.030 C 
ATOM     12  C   UNL     1      -5.199  -2.739  -1.588  0.00  0.00    +0.017 C 
ATOM     13  C   UNL     1      -5.549  -1.267  -1.671  0.00  0.00    +0.085 C 
BRANCH   5  14
ATOM     14  C   UNL     1      -4.689   0.748  -0.637  0.00  0.00    +0.120 C 
BRANCH  14  16
ATOM     16  C   UNL     1      -3.417   1.506  -0.363  0.00  0.00    -0.033 A 
ATOM     18  C   UNL     1      -3.232   2.133   0.870  0.00  0.00    +0.006 A 
ATOM     19  C   UNL     1      -2.425   1.583  -1.340  0.00  0.00    +0.006 A 
ATOM     26  C   UNL     1      -2.054   2.836   1.124  0.00  0.00    +0.015 A 
ATOM     27  C   UNL     1      -1.248   2.286  -1.085  0.00  0.00    +0.015 A 
ATOM     28  C   UNL     1      -1.062   2.912   0.147  0.00  0.00    +0.059 A 
BRANCH  28  32
ATOM      4  O   UNL     1       0.435   4.234   1.464  0.00  0.00    -0.245 OA
ATOM     32  C   UNL     1       0.166   3.644   0.412  0.00  0.00    +0.337 C 
BRANCH  32   3
ATOM      3  O   UNL     1       1.025   3.619  -0.643  0.00  0.00    -0.477 OA
ATOM     33  H   UNL     1       1.851   4.114  -0.454  0.00  0.00    +0.295 HD
ENDBRANCH  32   3
ENDBRANCH  28  32
ENDBRANCH  14  16
ENDBRANCH   5  14
ENDBRANCH  15  10
TORSDOF 6
