REMARK  Name = 45361050
REMARK  8 active torsions:
REMARK  status: ('A' for Active; 'I' for Inactive)
REMARK    1  A    between atoms: N_3  and  C_16
REMARK    2  A    between atoms: N_4  and  C_18
REMARK    3  A    between atoms: N_6  and  C_24
REMARK    4  A    between atoms: N_8  and  C_29
REMARK    5  A    between atoms: C_13  and  C_17
REMARK    6  A    between atoms: C_16  and  C_19
REMARK    7  A    between atoms: C_17  and  C_20
REMARK    8  A    between atoms: C_20  and  C_21
REMARK                            x       y       z     vdW  Elec       q    Type
REMARK                         _______ _______ _______ _____ _____    ______ ____
ROOT
ATOM      1  O   UNL     1       1.356  -1.944   0.081  0.00  0.00    -0.274 OA
ATOM      3  N   UNL     1       2.756   0.357   0.275  0.00  0.00    -0.283 NA
ATOM      4  N   UNL     1      -0.660   1.278  -0.662  0.00  0.00    -0.296 NA
ATOM      5  N   UNL     1      -0.564  -1.089   0.986  0.00  0.00    -0.312 N 
ATOM      9  C   UNL     1       0.664   1.543  -0.056  0.00  0.00    +0.084 C 
ATOM     10  C   UNL     1       1.357   0.399   0.741  0.00  0.00    +0.161 C 
ATOM     11  C   UNL     1       1.752   1.928  -1.076  0.00  0.00    +0.036 C 
ATOM     12  C   UNL     1       3.043   1.651  -0.335  0.00  0.00    +0.087 C 
ATOM     13  C   UNL     1      -1.740   0.987   0.321  0.00  0.00    +0.074 C 
ATOM     14  C   UNL     1       0.743  -0.985   0.550  0.00  0.00    +0.232 C 
ATOM     15  C   UNL     1      -1.337   0.039   1.467  0.00  0.00    +0.123 C 
ATOM     18  C   UNL     1      -1.061   2.382  -1.549  0.00  0.00    +0.105 C 
ATOM     35  H   UNL     1      -1.024  -1.990   0.909  0.00  0.00    +0.149 HD
ENDROOT
BRANCH   3  16
ATOM     16  C   UNL     1       3.706   0.025   1.328  0.00  0.00    +0.159 C 
BRANCH  16  19
ATOM      6  N   UNL     1       5.578  -1.104   0.084  0.00  0.00    -0.330 N 
ATOM      7  N   UNL     1       6.045   0.874   0.982  0.00  0.00    -0.231 NA
ATOM     19  C   UNL     1       5.118  -0.041   0.810  0.00  0.00    +0.125 A 
ATOM     22  C   UNL     1       6.889  -0.859  -0.234  0.00  0.00    +0.069 A 
ATOM     23  C   UNL     1       7.157   0.382   0.338  0.00  0.00    +0.089 A 
ATOM     24  C   UNL     1       4.820  -2.279  -0.285  0.00  0.00    +0.150 C 
ATOM     25  C   UNL     1       7.834  -1.593  -0.951  0.00  0.00    +0.028 A 
ATOM     26  C   UNL     1       8.440   0.938   0.196  0.00  0.00    +0.030 A 
ATOM     27  C   UNL     1       9.105  -1.024  -1.082  0.00  0.00    +0.002 A 
ATOM     28  C   UNL     1       9.405   0.219  -0.519  0.00  0.00    +0.002 A 
ENDBRANCH  16  19
ENDBRANCH   3  16
BRANCH  13  17
ATOM     17  C   UNL     1      -2.962   0.366  -0.388  0.00  0.00    +0.029 C 
BRANCH  17  20
ATOM     20  C   UNL     1      -4.252   0.636   0.369  0.00  0.00    +0.098 C 
BRANCH  20  21
ATOM      2  O   UNL     1      -5.429  -0.649  -1.298  0.00  0.00    -0.275 OA
ATOM      8  N   UNL     1      -6.626   0.314   0.478  0.00  0.00    -0.285 N 
ATOM     21  C   UNL     1      -5.490   0.021  -0.272  0.00  0.00    +0.217 C 
ATOM     36  H   UNL     1      -6.501   0.876   1.317  0.00  0.00    +0.155 HD
BRANCH   8  29
ATOM     29  C   UNL     1      -7.960  -0.077   0.212  0.00  0.00    +0.033 A 
ATOM     30  C   UNL     1      -8.984   0.307   1.077  0.00  0.00    +0.023 A 
ATOM     31  C   UNL     1      -8.250  -0.846  -0.915  0.00  0.00    +0.023 A 
ATOM     32  C   UNL     1     -10.299  -0.078   0.816  0.00  0.00    +0.002 A 
ATOM     33  C   UNL     1      -9.565  -1.231  -1.177  0.00  0.00    +0.002 A 
ATOM     34  C   UNL     1     -10.589  -0.847  -0.311  0.00  0.00    +0.000 A 
ENDBRANCH   8  29
ENDBRANCH  20  21
ENDBRANCH  17  20
ENDBRANCH  13  17
TORSDOF 6
