REMARK  Name = 7687194
REMARK  2 active torsions:
REMARK  status: ('A' for Active; 'I' for Inactive)
REMARK    1  A    between atoms: N_5  and  C_23
REMARK    2  A    between atoms: C_15  and  C_20
REMARK                            x       y       z     vdW  Elec       q    Type
REMARK                         _______ _______ _______ _____ _____    ______ ____
ROOT
ATOM      1  O   UNL     1       0.791  -2.365   3.053  0.00  0.00    -0.268 OA
ATOM      2  O   UNL     1       2.692  -1.808  -1.438  0.00  0.00    -0.252 OA
ATOM      3  N   UNL     1      -0.504  -1.843   1.172  0.00  0.00    -0.311 N 
ATOM      4  N   UNL     1       0.417  -1.650  -1.831  0.00  0.00    -0.284 N 
ATOM      5  N   UNL     1       1.703   0.288  -1.441  0.00  0.00    -0.269 N 
ATOM      8  C   UNL     1      -0.816  -3.516  -0.744  0.00  0.00    +0.027 C 
ATOM      9  C   UNL     1      -1.844  -1.284  -0.885  0.00  0.00    +0.054 C 
ATOM     10  C   UNL     1      -2.130  -2.783  -0.976  0.00  0.00    +0.018 C 
ATOM     11  C   UNL     1      -0.350  -3.220   0.683  0.00  0.00    +0.130 C 
ATOM     12  C   UNL     1       0.233  -3.102  -1.793  0.00  0.00    +0.114 C 
ATOM     13  C   UNL     1      -0.836  -0.895  -1.991  0.00  0.00    +0.119 C 
ATOM     14  C   UNL     1      -1.294  -0.893   0.492  0.00  0.00    +0.034 A 
ATOM     15  C   UNL     1      -1.509   0.329   1.046  0.00  0.00    +0.005 A 
ATOM     16  C   UNL     1       0.103  -1.571   2.411  0.00  0.00    +0.252 A 
ATOM     17  C   UNL     1       1.688  -1.100  -1.557  0.00  0.00    +0.306 C 
ATOM     18  C   UNL     1      -0.897   0.645   2.322  0.00  0.00    +0.015 A 
ATOM     19  C   UNL     1      -0.125  -0.222   2.977  0.00  0.00    +0.071 A 
ATOM     30  H   UNL     1       1.011   0.826  -1.948  0.00  0.00    +0.156 HD
ENDROOT
BRANCH  15  20
ATOM      6  N   UNL     1      -2.489   3.207  -1.147  0.00  0.00    -0.243 NA
ATOM      7  N   UNL     1      -4.451   2.401  -0.005  0.00  0.00    -0.243 NA
ATOM     20  C   UNL     1      -2.326   1.360   0.370  0.00  0.00    +0.020 A 
ATOM     21  C   UNL     1      -1.774   2.255  -0.513  0.00  0.00    +0.122 A 
ATOM     22  C   UNL     1      -3.676   1.473   0.594  0.00  0.00    +0.122 A 
ATOM     26  C   UNL     1      -3.802   3.223  -0.851  0.00  0.00    +0.221 A 
ENDBRANCH  15  20
BRANCH   5  23
ATOM     23  C   UNL     1       2.626   1.074  -0.710  0.00  0.00    +0.035 A 
ATOM     24  C   UNL     1       2.548   2.463  -0.764  0.00  0.00    +0.023 A 
ATOM     25  C   UNL     1       3.606   0.453   0.060  0.00  0.00    +0.023 A 
ATOM     27  C   UNL     1       3.458   3.237  -0.044  0.00  0.00    +0.002 A 
ATOM     28  C   UNL     1       4.516   1.227   0.780  0.00  0.00    +0.002 A 
ATOM     29  C   UNL     1       4.441   2.619   0.729  0.00  0.00    +0.000 A 
ENDBRANCH   5  23
TORSDOF 2
