REMARK  Name = 7114634
REMARK  14 active torsions:
REMARK  status: ('A' for Active; 'I' for Inactive)
REMARK    1  A    between atoms: O_3  and  C_21
REMARK    2  A    between atoms: O_3  and  C_31
REMARK    3  A    between atoms: O_5  and  C_25
REMARK    4  A    between atoms: O_5  and  C_34
REMARK    5  A    between atoms: O_6  and  C_24
REMARK    6  A    between atoms: O_6  and  C_35
REMARK    7  A    between atoms: N_9  and  C_12
REMARK    8  A    between atoms: N_10  and  C_19
REMARK    9  A    between atoms: C_13  and  C_17
REMARK   10  A    between atoms: C_18  and  C_21
REMARK   11  A    between atoms: C_19  and  C_22
REMARK   12  A    between atoms: C_19  and  C_25
REMARK   13  A    between atoms: C_20  and  C_24
REMARK   14  A    between atoms: C_22  and  C_23
REMARK                            x       y       z     vdW  Elec       q    Type
REMARK                         _______ _______ _______ _____ _____    ______ ____
ROOT
ATOM      1  O   UNL     1      -2.094  -0.410   1.359  0.00  0.00    -0.274 OA
ATOM     10  N   UNL     1      -1.268  -1.162  -0.684  0.00  0.00    -0.301 N 
ATOM     17  C   UNL     1      -1.806  -0.223   0.180  0.00  0.00    +0.234 C 
ATOM     37  H   UNL     1      -1.192  -0.939  -1.671  0.00  0.00    +0.150 HD
ENDROOT
BRANCH  17  13
ATOM      2  O   UNL     1      -4.469   2.867   1.598  0.00  0.00    -0.273 OA
ATOM      8  N   UNL     1      -2.590   2.006   0.528  0.00  0.00    -0.288 N 
ATOM     12  C   UNL     1       0.275   2.198  -0.004  0.00  0.00    +0.077 C 
ATOM     13  C   UNL     1      -1.993   1.113  -0.479  0.00  0.00    +0.164 C 
ATOM     14  C   UNL     1      -0.686   1.653  -1.064  0.00  0.00    +0.054 C 
ATOM     15  C   UNL     1      -0.446   3.197   0.900  0.00  0.00    +0.041 C 
ATOM     16  C   UNL     1      -1.678   2.565   1.533  0.00  0.00    +0.110 C 
ATOM     18  C   UNL     1      -3.965   2.227   0.672  0.00  0.00    +0.242 C 
BRANCH  12   9
ATOM      4  O   UNL     1       2.968   2.336   1.055  0.00  0.00    -0.273 OA
ATOM      9  N   UNL     1       1.426   2.810  -0.621  0.00  0.00    -0.310 N 
ATOM     20  C   UNL     1       2.683   2.827  -0.034  0.00  0.00    +0.239 C 
ATOM     36  H   UNL     1       1.292   3.299  -1.502  0.00  0.00    +0.149 HD
BRANCH  20  24
ATOM     24  C   UNL     1       3.700   3.534  -0.905  0.00  0.00    +0.255 C 
BRANCH  24   6
ATOM      6  O   UNL     1       4.972   3.526  -0.293  0.00  0.00    -0.374 OA
ATOM     35  C   UNL     1       5.950   4.186  -1.091  0.00  0.00    +0.194 C 
ENDBRANCH  24   6
ENDBRANCH  20  24
ENDBRANCH  12   9
BRANCH  18  21
ATOM     21  C   UNL     1      -4.862   1.643  -0.391  0.00  0.00    +0.255 C 
BRANCH  21   3
ATOM      3  O   UNL     1      -6.181   1.959  -0.019  0.00  0.00    -0.374 OA
ATOM     31  C   UNL     1      -7.136   1.457  -0.953  0.00  0.00    +0.194 C 
ENDBRANCH  21   3
ENDBRANCH  18  21
ENDBRANCH  17  13
BRANCH  10  19
ATOM     19  C   UNL     1      -0.970  -2.520  -0.289  0.00  0.00    +0.186 C 
BRANCH  19  25
ATOM      7  O   UNL     1      -3.255  -3.051  -0.869  0.00  0.00    -0.249 OA
ATOM     25  C   UNL     1      -2.189  -3.428  -0.395  0.00  0.00    +0.328 C 
BRANCH  25   5
ATOM      5  O   UNL     1      -1.949  -4.671   0.109  0.00  0.00    -0.467 OA
ATOM     34  C   UNL     1      -3.051  -5.583   0.064  0.00  0.00    +0.280 C 
ENDBRANCH  25   5
ENDBRANCH  19  25
BRANCH  19  22
ATOM     22  C   UNL     1       0.237  -3.086  -1.052  0.00  0.00    +0.071 C 
BRANCH  22  23
ATOM     11  N   UNL     1       3.072  -0.757  -1.332  0.00  0.00    -0.360 N 
ATOM     23  C   UNL     1       1.496  -2.268  -0.933  0.00  0.00    -0.020 A 
ATOM     26  C   UNL     1       2.507  -2.408   0.058  0.00  0.00    +0.003 A 
ATOM     27  C   UNL     1       1.871  -1.244  -1.773  0.00  0.00    +0.087 A 
ATOM     28  C   UNL     1       3.485  -1.448  -0.216  0.00  0.00    +0.047 A 
ATOM     29  C   UNL     1       2.686  -3.262   1.164  0.00  0.00    +0.010 A 
ATOM     30  C   UNL     1       4.636  -1.300   0.565  0.00  0.00    +0.026 A 
ATOM     32  C   UNL     1       3.833  -3.125   1.954  0.00  0.00    +0.001 A 
ATOM     33  C   UNL     1       4.792  -2.158   1.657  0.00  0.00    +0.002 A 
ATOM     38  H   UNL     1       3.582   0.003  -1.762  0.00  0.00    +0.165 HD
ENDBRANCH  22  23
ENDBRANCH  19  22
ENDBRANCH  10  19
TORSDOF 11
