REMARK  Name = 9424479
REMARK  3 active torsions:
REMARK  status: ('A' for Active; 'I' for Inactive)
REMARK    1  A    between atoms: S_2  and  N_8
REMARK    2  A    between atoms: S_2  and  C_19
REMARK    3  A    between atoms: N_8  and  C_10
REMARK                            x       y       z     vdW  Elec       q    Type
REMARK                         _______ _______ _______ _____ _____    ______ ____
ROOT
ATOM      1 BR   UNL     1      -6.544  -1.142   1.091  0.00  0.00    -0.050 Br
ATOM      3  O   UNL     1       0.750   2.244  -0.849  0.00  0.00    -0.273 OA
ATOM      4  O   UNL     1      -1.786  -2.311  -1.041  0.00  0.00    -0.270 OA
ATOM      7  N   UNL     1      -0.182  -0.828  -0.256  0.00  0.00    -0.286 N 
ATOM      9  N   UNL     1      -1.485   1.796  -0.673  0.00  0.00    -0.283 N 
ATOM     10  C   UNL     1       2.604  -0.163   0.264  0.00  0.00    +0.080 C 
ATOM     11  C   UNL     1       0.113   0.367   0.527  0.00  0.00    +0.164 C 
ATOM     12  C   UNL     1       1.505   0.383   1.170  0.00  0.00    +0.052 C 
ATOM     13  C   UNL     1       2.209  -1.539  -0.254  0.00  0.00    +0.039 C 
ATOM     14  C   UNL     1       0.900  -1.453  -1.022  0.00  0.00    +0.110 C 
ATOM     15  C   UNL     1      -0.154   1.534  -0.407  0.00  0.00    +0.238 C 
ATOM     16  C   UNL     1      -1.492  -1.256  -0.478  0.00  0.00    +0.249 C 
ATOM     17  C   UNL     1      -2.612  -0.362  -0.080  0.00  0.00    +0.059 A 
ATOM     18  C   UNL     1      -2.610   1.029  -0.292  0.00  0.00    +0.046 A 
ATOM     20  C   UNL     1      -3.793  -0.999   0.337  0.00  0.00    +0.030 A 
ATOM     21  C   UNL     1      -3.813   1.739  -0.145  0.00  0.00    +0.025 A 
ATOM     22  C   UNL     1      -4.966  -0.269   0.526  0.00  0.00    +0.019 A 
ATOM     23  C   UNL     1      -4.979   1.097   0.272  0.00  0.00    +0.017 A 
ATOM     25  H   UNL     1      -1.681   2.696  -1.104  0.00  0.00    +0.155 HD
ENDROOT
BRANCH  10   8
ATOM      8  N   UNL     1       3.869  -0.272   1.031  0.00  0.00    -0.192 NA
ATOM     24  H   UNL     1       3.827  -0.048   2.033  0.00  0.00    +0.148 HD
BRANCH   8   2
ATOM      2  S   UNL     1       5.349  -0.098   0.207  0.00  0.00    +0.027 S 
ATOM      5  O   UNL     1       5.214  -0.565  -1.159  0.00  0.00    -0.158 OA
ATOM      6  O   UNL     1       6.405  -0.603   1.063  0.00  0.00    -0.158 OA
ATOM     19  C   UNL     1       5.497   1.673   0.168  0.00  0.00    +0.214 C 
ENDBRANCH   8   2
ENDBRANCH  10   8
TORSDOF 2
