REMARK  Name = 28963210
REMARK  9 active torsions:
REMARK  status: ('A' for Active; 'I' for Inactive)
REMARK    1  A    between atoms: S_1  and  N_6
REMARK    2  A    between atoms: S_1  and  C_25
REMARK    3  A    between atoms: O_2  and  C_11
REMARK    4  A    between atoms: N_6  and  C_15
REMARK    5  A    between atoms: C_8  and  C_18
REMARK    6  A    between atoms: C_10  and  C_20
REMARK    7  A    between atoms: C_13  and  C_19
REMARK    8  A    between atoms: C_19  and  C_21
REMARK    9  A    between atoms: C_19  and  C_22
REMARK                            x       y       z     vdW  Elec       q    Type
REMARK                         _______ _______ _______ _____ _____    ______ ____
ROOT
ATOM      8  C   UNL     1      -1.013  -1.543   0.881  0.00  0.00    -0.027 C 
ATOM      9  C   UNL     1      -1.040  -0.321  -0.097  0.00  0.00    +0.028 C 
ATOM     10  C   UNL     1      -2.454  -0.171  -0.768  0.00  0.00    +0.011 C 
ATOM     11  C   UNL     1       0.167  -0.360  -1.079  0.00  0.00    +0.122 C 
ATOM     12  C   UNL     1       0.352  -1.595   1.607  0.00  0.00    +0.007 C 
ATOM     13  C   UNL     1       1.522  -0.519  -0.353  0.00  0.00    +0.029 C 
ATOM     14  C   UNL     1      -2.109  -1.353   1.956  0.00  0.00    +0.008 C 
ATOM     15  C   UNL     1      -3.551  -0.057   0.325  0.00  0.00    +0.079 C 
ATOM     16  C   UNL     1       1.532  -1.675   0.647  0.00  0.00    +0.007 C 
ATOM     17  C   UNL     1      -3.500  -1.176   1.364  0.00  0.00    +0.021 C 
ATOM     18  C   UNL     1      -1.242  -2.892   0.152  0.00  0.00    +0.011 C 
ATOM     20  C   UNL     1      -2.554   1.029  -1.723  0.00  0.00    +0.009 C 
ENDROOT
BRANCH  11   2
ATOM      2  O   UNL     1       0.233   0.871  -1.801  0.00  0.00    -0.391 OA
ATOM     30  H   UNL     1       0.348   1.592  -1.159  0.00  0.00    +0.210 HD
ENDBRANCH  11   2
BRANCH  15   6
ATOM      6  N   UNL     1      -4.907  -0.098  -0.288  0.00  0.00    -0.191 NA
ATOM     29  H   UNL     1      -5.275  -1.010  -0.580  0.00  0.00    +0.148 HD
BRANCH   6   1
ATOM      1  S   UNL     1      -5.936   1.240  -0.084  0.00  0.00    +0.027 S 
ATOM      4  O   UNL     1      -7.017   1.188  -1.049  0.00  0.00    -0.158 OA
ATOM      5  O   UNL     1      -5.113   2.426   0.045  0.00  0.00    -0.158 OA
ATOM     25  C   UNL     1      -6.619   0.891   1.521  0.00  0.00    +0.214 C 
ENDBRANCH   6   1
ENDBRANCH  15   6
BRANCH  13  19
ATOM     19  C   UNL     1       2.682  -0.688  -1.342  0.00  0.00    +0.078 C 
ATOM     21  C   UNL     1       2.501  -1.933  -2.191  0.00  0.00    +0.017 C 
BRANCH  19  22
ATOM      3  O   UNL     1       4.398  -1.883  -0.228  0.00  0.00    -0.275 OA
ATOM      7  N   UNL     1       4.605   0.431  -0.267  0.00  0.00    -0.301 N 
ATOM     22  C   UNL     1       3.971  -0.776  -0.563  0.00  0.00    +0.219 C 
ATOM     23  C   UNL     1       5.860   0.428   0.488  0.00  0.00    +0.108 C 
ATOM     24  C   UNL     1       4.144   1.759  -0.690  0.00  0.00    +0.108 C 
ATOM     26  C   UNL     1       5.763   1.338   1.710  0.00  0.00    +0.019 C 
ATOM     27  C   UNL     1       4.015   2.695   0.510  0.00  0.00    +0.019 C 
ATOM     28  C   UNL     1       5.311   2.744   1.318  0.00  0.00    +0.003 C 
ENDBRANCH  19  22
ENDBRANCH  13  19
TORSDOF 5
