REMARK  Name = 26762194
REMARK  8 active torsions:
REMARK  status: ('A' for Active; 'I' for Inactive)
REMARK    1  A    between atoms: N_6  and  C_11
REMARK    2  A    between atoms: N_8  and  C_33
REMARK    3  A    between atoms: N_8  and  C_34
REMARK    4  A    between atoms: N_8  and  C_35
REMARK    5  A    between atoms: C_10  and  C_15
REMARK    6  A    between atoms: C_15  and  C_17
REMARK    7  A    between atoms: C_17  and  C_18
REMARK    8  A    between atoms: C_19  and  C_23
REMARK                            x       y       z     vdW  Elec       q    Type
REMARK                         _______ _______ _______ _____ _____    ______ ____
ROOT
ATOM      1  O   UNL     1       1.978   4.895   0.377  0.00  0.00    -0.274 OA
ATOM      4  N   UNL     1      -0.535   2.270   0.321  0.00  0.00    -0.285 NA
ATOM      5  N   UNL     1       0.311   4.518  -1.125  0.00  0.00    -0.313 N 
ATOM      9  C   UNL     1       0.370   3.211   0.987  0.00  0.00    +0.145 C 
ATOM     10  C   UNL     1      -1.482   2.918  -0.581  0.00  0.00    +0.075 C 
ATOM     11  C   UNL     1       1.265   0.946   0.922  0.00  0.00    +0.089 C 
ATOM     12  C   UNL     1       1.447   2.307   1.599  0.00  0.00    +0.052 C 
ATOM     13  C   UNL     1       0.301   1.207  -0.228  0.00  0.00    +0.107 C 
ATOM     14  C   UNL     1      -0.762   3.711  -1.663  0.00  0.00    +0.123 C 
ATOM     16  C   UNL     1       0.976   4.253   0.050  0.00  0.00    +0.230 C 
ATOM     36  H   UNL     1       0.695   5.242  -1.725  0.00  0.00    +0.149 HD
ENDROOT
BRANCH  11   6
ATOM      3  O   UNL     1       2.953  -0.829   2.414  0.00  0.00    -0.270 OA
ATOM      6  N   UNL     1       2.504   0.369   0.479  0.00  0.00    -0.307 N 
ATOM     19  C   UNL     1       3.257  -0.483   1.275  0.00  0.00    +0.244 C 
ATOM     37  H   UNL     1       2.874   0.697  -0.407  0.00  0.00    +0.149 HD
BRANCH  19  23
ATOM     23  C   UNL     1       4.527  -0.975   0.682  0.00  0.00    +0.037 A 
ATOM     27  C   UNL     1       5.590  -1.335   1.510  0.00  0.00    +0.015 A 
ATOM     28  C   UNL     1       4.657  -1.074  -0.703  0.00  0.00    +0.015 A 
ATOM     31  C   UNL     1       6.783  -1.795   0.954  0.00  0.00    +0.024 A 
ATOM     32  C   UNL     1       5.851  -1.534  -1.260  0.00  0.00    +0.024 A 
ATOM     33  C   UNL     1       6.913  -1.895  -0.432  0.00  0.00    +0.029 A 
BRANCH  33   8
ATOM      8  N   UNL     1       8.119  -2.360  -0.996  0.00  0.00    -0.336 N 
ATOM     34  C   UNL     1       9.230  -2.738  -0.144  0.00  0.00    +0.129 C 
ATOM     35  C   UNL     1       8.261  -2.474  -2.434  0.00  0.00    +0.129 C 
ENDBRANCH  33   8
ENDBRANCH  19  23
ENDBRANCH  11   6
BRANCH  10  15
ATOM     15  C   UNL     1      -2.476   1.930  -1.194  0.00  0.00    +0.029 C 
BRANCH  15  17
ATOM     17  C   UNL     1      -3.265   1.171  -0.138  0.00  0.00    +0.098 C 
BRANCH  17  18
ATOM      2  O   UNL     1      -4.344   0.183  -2.003  0.00  0.00    -0.275 OA
ATOM      7  N   UNL     1      -5.031  -0.497   0.121  0.00  0.00    -0.271 N 
ATOM     18  C   UNL     1      -4.267   0.237  -0.776  0.00  0.00    +0.220 C 
ATOM     20  C   UNL     1      -4.936  -0.431   1.595  0.00  0.00    +0.118 C 
ATOM     21  C   UNL     1      -6.031  -1.433  -0.217  0.00  0.00    +0.039 A 
ATOM     22  C   UNL     1      -5.959  -1.414   2.174  0.00  0.00    +0.056 C 
ATOM     24  C   UNL     1      -6.587  -1.979   0.942  0.00  0.00    -0.024 A 
ATOM     25  C   UNL     1      -6.478  -1.830  -1.469  0.00  0.00    +0.024 A 
ATOM     26  C   UNL     1      -7.595  -2.929   0.880  0.00  0.00    +0.005 A 
ATOM     29  C   UNL     1      -7.495  -2.787  -1.541  0.00  0.00    +0.002 A 
ATOM     30  C   UNL     1      -8.050  -3.333  -0.375  0.00  0.00    +0.000 A 
ENDBRANCH  17  18
ENDBRANCH  15  17
ENDBRANCH  10  15
TORSDOF 6
