REMARK  Name = 75367088
REMARK  6 active torsions:
REMARK  status: ('A' for Active; 'I' for Inactive)
REMARK    1  A    between atoms: O_3  and  C_9
REMARK    2  A    between atoms: N_5  and  C_7
REMARK    3  A    between atoms: N_5  and  C_8
REMARK    4  A    between atoms: N_6  and  C_17
REMARK    5  A    between atoms: C_12  and  C_17
REMARK    6  A    between atoms: C_18  and  C_19
REMARK                            x       y       z     vdW  Elec       q    Type
REMARK                         _______ _______ _______ _____ _____    ______ ____
ROOT
ATOM      2  O   UNL     1      -0.412   0.434  -0.915  0.00  0.00    -0.371 OA
ATOM      7  C   UNL     1      -2.537  -0.335  -0.185  0.00  0.00    +0.111 C 
ATOM      9  C   UNL     1      -1.590  -1.517  -0.283  0.00  0.00    +0.164 C 
ATOM     12  C   UNL     1      -0.239  -0.816  -0.227  0.00  0.00    +0.165 C 
ATOM     13  C   UNL     1      -1.820   0.697  -1.041  0.00  0.00    +0.181 C 
ENDROOT
BRANCH   9   3
ATOM      3  O   UNL     1      -1.752  -2.436   0.779  0.00  0.00    -0.388 OA
ATOM     26  H   UNL     1      -1.638  -1.958   1.618  0.00  0.00    +0.210 HD
ENDBRANCH   9   3
BRANCH   7   5
ATOM      5  N   UNL     1      -3.882  -0.624  -0.655  0.00  0.00    -0.306 NA
ATOM     25  H   UNL     1      -4.188  -1.533  -0.308  0.00  0.00    +0.123 HD
BRANCH   5   8
ATOM      8  C   UNL     1      -4.816   0.413  -0.221  0.00  0.00    +0.054 C 
ATOM     10  C   UNL     1      -6.067   0.391  -1.107  0.00  0.00    +0.019 C 
ATOM     11  C   UNL     1      -5.179   0.203   1.253  0.00  0.00    +0.019 C 
ATOM     14  C   UNL     1      -7.101   1.412  -0.635  0.00  0.00    +0.002 C 
ATOM     15  C   UNL     1      -6.214   1.225   1.722  0.00  0.00    +0.002 C 
ATOM     16  C   UNL     1      -7.456   1.214   0.836  0.00  0.00    +0.000 C 
ENDBRANCH   5   8
ENDBRANCH   7   5
BRANCH  12  17
ATOM     17  C   UNL     1       0.877  -1.611  -0.878  0.00  0.00    +0.138 C 
BRANCH  17   6
ATOM      4  O   UNL     1       2.823  -1.794   1.225  0.00  0.00    -0.270 OA
ATOM      6  N   UNL     1       2.128  -0.912  -0.805  0.00  0.00    -0.309 N 
ATOM     18  C   UNL     1       3.014  -1.062   0.258  0.00  0.00    +0.244 C 
ATOM     27  H   UNL     1       2.315  -0.237  -1.539  0.00  0.00    +0.149 HD
BRANCH  18  19
ATOM      1  F   UNL     1       7.704   2.015   0.030  0.00  0.00    -0.205 F 
ATOM     19  C   UNL     1       4.255  -0.247   0.198  0.00  0.00    +0.037 A 
ATOM     20  C   UNL     1       4.905   0.120   1.375  0.00  0.00    +0.016 A 
ATOM     21  C   UNL     1       4.769   0.150  -1.037  0.00  0.00    +0.016 A 
ATOM     22  C   UNL     1       6.070   0.885   1.319  0.00  0.00    +0.039 A 
ATOM     23  C   UNL     1       5.935   0.914  -1.093  0.00  0.00    +0.039 A 
ATOM     24  C   UNL     1       6.585   1.282   0.085  0.00  0.00    +0.123 A 
ENDBRANCH  18  19
ENDBRANCH  17   6
ENDBRANCH  12  17
TORSDOF 6
