REMARK  Name = 51137120
REMARK  4 active torsions:
REMARK  status: ('A' for Active; 'I' for Inactive)
REMARK    1  A    between atoms: N_4  and  C_12
REMARK    2  A    between atoms: C_7  and  C_11
REMARK    3  A    between atoms: C_12  and  C_13
REMARK    4  A    between atoms: C_22  and  C_25
REMARK                            x       y       z     vdW  Elec       q    Type
REMARK                         _______ _______ _______ _____ _____    ______ ____
ROOT
ATOM      4  N   UNL     1      -0.324  -0.216  -0.287  0.00  0.00    -0.297 NA
ATOM      7  C   UNL     1       1.844  -0.849   0.343  0.00  0.00    +0.070 C 
ATOM      8  C   UNL     1       1.112  -0.245   1.554  0.00  0.00    +0.028 C 
ATOM      9  C   UNL     1       1.003  -0.428  -0.869  0.00  0.00    +0.096 C 
ATOM     10  C   UNL     1      -0.076   0.502   0.963  0.00  0.00    +0.085 C 
ENDROOT
BRANCH   7  11
ATOM      5  N   UNL     1       4.292  -1.392   0.230  0.00  0.00    -0.342 N 
ATOM      6  N   UNL     1       3.772   0.765   0.088  0.00  0.00    -0.232 NA
ATOM     11  C   UNL     1       3.298  -0.454   0.217  0.00  0.00    +0.113 A 
ATOM     14  C   UNL     1       5.489  -0.735   0.100  0.00  0.00    +0.066 A 
ATOM     15  C   UNL     1       5.138   0.610   0.013  0.00  0.00    +0.089 A 
ATOM     18  C   UNL     1       6.808  -1.187   0.052  0.00  0.00    +0.028 A 
ATOM     19  C   UNL     1       6.150   1.574  -0.130  0.00  0.00    +0.030 A 
ATOM     23  C   UNL     1       7.802  -0.214  -0.091  0.00  0.00    +0.002 A 
ATOM     24  C   UNL     1       7.481   1.143  -0.180  0.00  0.00    +0.002 A 
ATOM     26  H   UNL     1       4.172  -2.392   0.319  0.00  0.00    +0.167 HD
ENDBRANCH   7  11
BRANCH   4  12
ATOM     12  C   UNL     1      -1.212   0.515  -1.179  0.00  0.00    +0.119 C 
BRANCH  12  13
ATOM     13  C   UNL     1      -2.656   0.354  -0.788  0.00  0.00    -0.033 A 
ATOM     16  C   UNL     1      -3.330  -0.832  -1.081  0.00  0.00    +0.005 A 
ATOM     17  C   UNL     1      -3.322   1.390  -0.132  0.00  0.00    +0.005 A 
ATOM     20  C   UNL     1      -4.668  -0.982  -0.719  0.00  0.00    +0.012 A 
ATOM     21  C   UNL     1      -4.660   1.240   0.230  0.00  0.00    +0.012 A 
ATOM     22  C   UNL     1      -5.333   0.054  -0.063  0.00  0.00    +0.055 A 
BRANCH  22  25
ATOM      1  F   UNL     1      -6.980   0.000   1.672  0.00  0.00    -0.166 F 
ATOM      2  F   UNL     1      -7.271  -1.323  -0.029  0.00  0.00    -0.166 F 
ATOM      3  F   UNL     1      -7.594   0.817  -0.241  0.00  0.00    -0.166 F 
ATOM     25  C   UNL     1      -6.764  -0.107   0.327  0.00  0.00    +0.417 C 
ENDBRANCH  22  25
ENDBRANCH  12  13
ENDBRANCH   4  12
TORSDOF 4
