REMARK  Name = 56775490
REMARK  6 active torsions:
REMARK  status: ('A' for Active; 'I' for Inactive)
REMARK    1  A    between atoms: N_6  and  C_8
REMARK    2  A    between atoms: N_6  and  C_12
REMARK    3  A    between atoms: C_8  and  C_11
REMARK    4  A    between atoms: C_11  and  C_13
REMARK    5  A    between atoms: C_12  and  C_14
REMARK    6  A    between atoms: C_17  and  C_22
REMARK                            x       y       z     vdW  Elec       q    Type
REMARK                         _______ _______ _______ _____ _____    ______ ____
ROOT
ATOM      2  O   UNL     1       2.250   4.271   1.111  0.00  0.00    -0.376 OA
ATOM      8  C   UNL     1       1.401   2.680  -0.030  0.00  0.00    +0.072 C 
ATOM      9  C   UNL     1       2.634   3.575  -0.096  0.00  0.00    +0.184 C 
ATOM     10  C   UNL     1       1.015   3.522   1.180  0.00  0.00    +0.184 C 
ENDROOT
BRANCH   8   6
ATOM      6  N   UNL     1       1.808   1.351   0.430  0.00  0.00    -0.302 NA
ATOM     29  H   UNL     1       1.066   0.791   0.849  0.00  0.00    +0.123 HD
BRANCH   6  12
ATOM     12  C   UNL     1       2.407   0.618  -0.689  0.00  0.00    +0.120 C 
BRANCH  12  14
ATOM      4  O   UNL     1       1.780  -2.279  -0.669  0.00  0.00    -0.452 OA
ATOM      5  O   UNL     1       3.286  -4.011   0.064  0.00  0.00    -0.453 OA
ATOM     14  C   UNL     1       3.338  -0.450  -0.237  0.00  0.00    +0.012 A 
ATOM     16  C   UNL     1       2.977  -1.782  -0.255  0.00  0.00    +0.171 A 
ATOM     18  C   UNL     1       4.618  -0.132   0.226  0.00  0.00    +0.009 A 
ATOM     19  C   UNL     1       3.837  -2.771   0.164  0.00  0.00    +0.167 A 
ATOM     20  C   UNL     1       5.496  -1.143   0.654  0.00  0.00    +0.004 A 
ATOM     21  C   UNL     1       5.106  -2.483   0.624  0.00  0.00    +0.049 A 
ATOM     23  C   UNL     1       1.983  -3.692  -0.464  0.00  0.00    +0.466 C 
ENDBRANCH  12  14
ENDBRANCH   6  12
ENDBRANCH   8   6
BRANCH   8  11
ATOM     11  C   UNL     1       0.476   2.632  -1.207  0.00  0.00    +0.085 C 
BRANCH  11  13
ATOM      3  O   UNL     1      -2.933   2.169  -0.102  0.00  0.00    -0.354 OA
ATOM      7  N   UNL     1      -1.832   2.964  -0.393  0.00  0.00    -0.083 NA
ATOM     13  C   UNL     1      -0.887   2.112  -0.800  0.00  0.00    +0.086 A 
ATOM     15  C   UNL     1      -1.330   0.778  -0.786  0.00  0.00    +0.076 A 
ATOM     17  C   UNL     1      -2.622   0.869  -0.340  0.00  0.00    +0.167 A 
BRANCH  17  22
ATOM      1  F   UNL     1      -6.684  -2.803   0.645  0.00  0.00    -0.205 F 
ATOM     22  C   UNL     1      -3.669  -0.078  -0.085  0.00  0.00    +0.020 A 
ATOM     24  C   UNL     1      -3.447  -1.438  -0.302  0.00  0.00    +0.014 A 
ATOM     25  C   UNL     1      -4.909   0.361   0.379  0.00  0.00    +0.014 A 
ATOM     26  C   UNL     1      -4.465  -2.359  -0.055  0.00  0.00    +0.039 A 
ATOM     27  C   UNL     1      -5.927  -0.559   0.625  0.00  0.00    +0.039 A 
ATOM     28  C   UNL     1      -5.705  -1.919   0.408  0.00  0.00    +0.123 A 
ENDBRANCH  17  22
ENDBRANCH  11  13
ENDBRANCH   8  11
TORSDOF 6
