REMARK  Name = 25312713
REMARK  7 active torsions:
REMARK  status: ('A' for Active; 'I' for Inactive)
REMARK    1  A    between atoms: O_3  and  C_29
REMARK    2  A    between atoms: N_6  and  C_17
REMARK    3  A    between atoms: C_14  and  C_18
REMARK    4  A    between atoms: C_16  and  C_23
REMARK    5  A    between atoms: C_17  and  C_18
REMARK    6  A    between atoms: C_23  and  C_29
REMARK    7  A    between atoms: C_26  and  C_30
REMARK                            x       y       z     vdW  Elec       q    Type
REMARK                         _______ _______ _______ _____ _____    ______ ____
ROOT
ATOM      4  O   UNL     1       1.778  -3.376  -1.940  0.00  0.00    -0.269 OA
ATOM      8  N   UNL     1       2.709  -2.000  -0.292  0.00  0.00    -0.297 N 
ATOM     14  C   UNL     1       2.688   0.123   1.000  0.00  0.00    +0.011 C 
ATOM     16  C   UNL     1       3.875   0.616   0.133  0.00  0.00    +0.006 C 
ATOM     20  C   UNL     1       2.684  -1.416   1.056  0.00  0.00    +0.112 C 
ATOM     21  C   UNL     1       3.885  -0.058  -1.249  0.00  0.00    +0.023 C 
ATOM     22  C   UNL     1       3.835  -1.578  -1.123  0.00  0.00    +0.108 C 
ATOM     26  C   UNL     1       1.764  -2.889  -0.810  0.00  0.00    +0.253 C 
ENDROOT
BRANCH  26  30
ATOM      1  S   UNL     1      -0.955  -2.948  -0.445  0.00  0.00    -0.092 S 
ATOM     30  C   UNL     1       0.648  -3.289   0.053  0.00  0.00    +0.074 A 
ATOM     31  C   UNL     1       0.685  -3.933   1.270  0.00  0.00    +0.021 A 
ATOM     32  C   UNL     1      -0.619  -4.149   1.801  0.00  0.00    +0.008 A 
ATOM     33  C   UNL     1      -1.604  -3.663   0.970  0.00  0.00    +0.046 A 
ENDBRANCH  26  30
BRANCH  14  18
ATOM     18  C   UNL     1       1.321   0.642   0.537  0.00  0.00    +0.020 C 
BRANCH  18  17
ATOM     17  C   UNL     1       0.324   0.686   1.691  0.00  0.00    +0.085 C 
BRANCH  17   6
ATOM      2  O   UNL     1      -3.371   1.350  -3.186  0.00  0.00    -0.268 OA
ATOM      6  N   UNL     1      -0.975   1.164   1.222  0.00  0.00    -0.301 NA
ATOM      7  N   UNL     1      -3.400   1.336  -0.844  0.00  0.00    -0.312 N 
ATOM      9  C   UNL     1      -2.334   3.173   0.588  0.00  0.00    +0.024 C 
ATOM     10  C   UNL     1      -3.430   1.270   1.673  0.00  0.00    +0.050 C 
ATOM     11  C   UNL     1      -3.404   2.794   1.605  0.00  0.00    +0.017 C 
ATOM     12  C   UNL     1      -0.963   2.619   1.032  0.00  0.00    +0.089 C 
ATOM     13  C   UNL     1      -2.050   0.749   2.135  0.00  0.00    +0.094 C 
ATOM     15  C   UNL     1      -2.759   2.657  -0.794  0.00  0.00    +0.130 C 
ATOM     19  C   UNL     1      -3.797   0.677   0.325  0.00  0.00    +0.026 A 
ATOM     24  C   UNL     1      -4.480  -0.478   0.250  0.00  0.00    +0.022 A 
ATOM     25  C   UNL     1      -3.679   0.814  -2.121  0.00  0.00    +0.251 A 
ATOM     27  C   UNL     1      -4.793  -1.065  -1.022  0.00  0.00    +0.007 A 
ATOM     28  C   UNL     1      -4.417  -0.479  -2.161  0.00  0.00    +0.070 A 
ENDBRANCH  17   6
ENDBRANCH  18  17
ENDBRANCH  14  18
BRANCH  16  23
ATOM     23  C   UNL     1       3.924   2.137  -0.009  0.00  0.00    +0.124 C 
BRANCH  23  29
ATOM      5  O   UNL     1       6.298   1.924  -0.520  0.00  0.00    -0.251 OA
ATOM     29  C   UNL     1       5.306   2.618  -0.356  0.00  0.00    +0.305 C 
BRANCH  29   3
ATOM      3  O   UNL     1       5.304   3.972  -0.468  0.00  0.00    -0.481 OA
ATOM     34  H   UNL     1       6.193   4.321  -0.694  0.00  0.00    +0.295 HD
ENDBRANCH  29   3
ENDBRANCH  23  29
ENDBRANCH  16  23
TORSDOF 7
