REMARK  Name = 51137965
REMARK  6 active torsions:
REMARK  status: ('A' for Active; 'I' for Inactive)
REMARK    1  A    between atoms: N_4  and  C_26
REMARK    2  A    between atoms: C_6  and  C_10
REMARK    3  A    between atoms: C_7  and  C_13
REMARK    4  A    between atoms: C_10  and  C_14
REMARK    5  A    between atoms: C_14  and  C_23
REMARK    6  A    between atoms: C_14  and  C_24
REMARK                            x       y       z     vdW  Elec       q    Type
REMARK                         _______ _______ _______ _____ _____    ______ ____
ROOT
ATOM      2  N   UNL     1       0.412   1.029   0.767  0.00  0.00    -0.299 NA
ATOM      5  N   UNL     1       3.210  -3.165   0.474  0.00  0.00    -0.360 N 
ATOM      6  C   UNL     1       1.378   1.270  -0.313  0.00  0.00    +0.085 C 
ATOM      7  C   UNL     1      -0.410  -0.160   0.593  0.00  0.00    +0.145 C 
ATOM      8  C   UNL     1       0.154  -1.350   1.366  0.00  0.00    +0.065 C 
ATOM      9  C   UNL     1       2.471   0.209  -0.482  0.00  0.00    -0.021 A 
ATOM     11  C   UNL     1       2.430  -1.105   0.066  0.00  0.00    +0.008 A 
ATOM     12  C   UNL     1       1.474  -1.828   0.861  0.00  0.00    -0.020 A 
ATOM     17  C   UNL     1       3.491  -1.986  -0.175  0.00  0.00    +0.047 A 
ATOM     20  C   UNL     1       1.998  -3.083   1.095  0.00  0.00    +0.087 A 
ATOM     21  C   UNL     1       3.584   0.508  -1.308  0.00  0.00    +0.006 A 
ATOM     22  C   UNL     1       4.602  -1.657  -0.953  0.00  0.00    +0.026 A 
ATOM     25  C   UNL     1       4.624  -0.393  -1.529  0.00  0.00    +0.002 A 
ATOM     27  H   UNL     1       0.874   1.028   1.675  0.00  0.00    +0.123 HD
ATOM     28  H   UNL     1       3.808  -3.980   0.476  0.00  0.00    +0.165 HD
ENDROOT
BRANCH   7  13
ATOM      1  O   UNL     1      -1.813   1.011   2.089  0.00  0.00    -0.274 OA
ATOM      3  N   UNL     1      -2.858  -0.411   0.579  0.00  0.00    -0.298 N 
ATOM      4  N   UNL     1      -5.164  -0.998  -1.017  0.00  0.00    -0.302 NA
ATOM     13  C   UNL     1      -1.749   0.202   1.160  0.00  0.00    +0.233 C 
ATOM     15  C   UNL     1      -2.808  -1.471  -0.432  0.00  0.00    +0.123 C 
ATOM     16  C   UNL     1      -4.201  -0.107   1.072  0.00  0.00    +0.123 C 
ATOM     18  C   UNL     1      -3.812  -1.208  -1.556  0.00  0.00    +0.103 C 
ATOM     19  C   UNL     1      -5.174   0.135  -0.081  0.00  0.00    +0.103 C 
ATOM     26  C   UNL     1      -6.121  -0.777  -2.101  0.00  0.00    +0.105 C 
ENDBRANCH   7  13
BRANCH   6  10
ATOM     10  C   UNL     1       1.953   2.667  -0.017  0.00  0.00    +0.026 C 
BRANCH  10  14
ATOM     14  C   UNL     1       0.994   3.800  -0.396  0.00  0.00    -0.015 C 
ATOM     23  C   UNL     1      -0.334   3.725   0.357  0.00  0.00    +0.007 C 
ATOM     24  C   UNL     1       1.670   5.145  -0.120  0.00  0.00    +0.007 C 
ENDBRANCH  10  14
ENDBRANCH   6  10
TORSDOF 3
