REMARK  Name = 11941470
REMARK  5 active torsions:
REMARK  status: ('A' for Active; 'I' for Inactive)
REMARK    1  A    between atoms: O_5  and  C_28
REMARK    2  A    between atoms: O_5  and  C_33
REMARK    3  A    between atoms: N_7  and  C_9
REMARK    4  A    between atoms: C_12  and  C_18
REMARK    5  A    between atoms: C_25  and  C_27
REMARK                            x       y       z     vdW  Elec       q    Type
REMARK                         _______ _______ _______ _____ _____    ______ ____
ROOT
ATOM      3  O   UNL     1       2.652   3.251   1.728  0.00  0.00    -0.273 OA
ATOM      4  O   UNL     1      -0.478   1.911  -2.293  0.00  0.00    -0.270 OA
ATOM      6  N   UNL     1       1.434   1.891  -1.015  0.00  0.00    -0.284 N 
ATOM      8  N   UNL     1       0.534   2.413   1.737  0.00  0.00    -0.283 N 
ATOM      9  C   UNL     1       3.651   1.536  -0.273  0.00  0.00    +0.104 C 
ATOM     10  C   UNL     1       2.180   1.481   0.160  0.00  0.00    +0.183 C 
ATOM     11  C   UNL     1       3.656   2.585  -1.387  0.00  0.00    +0.043 C 
ATOM     13  C   UNL     1       2.312   2.380  -2.068  0.00  0.00    +0.111 C 
ATOM     19  C   UNL     1       1.820   2.483   1.241  0.00  0.00    +0.240 C 
ATOM     20  C   UNL     1       0.085   1.698  -1.219  0.00  0.00    +0.249 C 
ATOM     21  C   UNL     1      -0.737   1.231  -0.072  0.00  0.00    +0.059 A 
ATOM     22  C   UNL     1      -0.553   1.651   1.256  0.00  0.00    +0.046 A 
ATOM     23  C   UNL     1      -1.862   0.454  -0.402  0.00  0.00    +0.023 A 
ATOM     24  C   UNL     1      -1.538   1.336   2.209  0.00  0.00    +0.024 A 
ATOM     25  C   UNL     1      -2.804   0.111   0.567  0.00  0.00    -0.014 A 
ATOM     26  C   UNL     1      -2.648   0.563   1.871  0.00  0.00    +0.010 A 
ATOM     35  H   UNL     1       0.375   2.912   2.608  0.00  0.00    +0.155 HD
ENDROOT
BRANCH  25  27
ATOM      1 CL   UNL     1      -4.868  -4.588   0.115  0.00  0.00    -0.084 Cl
ATOM     27  C   UNL     1      -3.952  -0.694   0.210  0.00  0.00    +0.025 A 
ATOM     28  C   UNL     1      -5.133  -0.099  -0.238  0.00  0.00    +0.128 A 
ATOM     29  C   UNL     1      -3.872  -2.083   0.319  0.00  0.00    +0.032 A 
ATOM     30  C   UNL     1      -6.230  -0.891  -0.577  0.00  0.00    +0.047 A 
ATOM     31  C   UNL     1      -4.969  -2.876  -0.020  0.00  0.00    +0.042 A 
ATOM     32  C   UNL     1      -6.148  -2.280  -0.468  0.00  0.00    +0.023 A 
BRANCH  28   5
ATOM      5  O   UNL     1      -5.242   1.255  -0.353  0.00  0.00    -0.495 OA
ATOM     33  C   UNL     1      -6.488   1.767  -0.820  0.00  0.00    +0.277 C 
ENDBRANCH  28   5
ENDBRANCH  25  27
BRANCH   9   7
ATOM      2  O   UNL     1       4.977  -0.564   1.230  0.00  0.00    -0.276 OA
ATOM      7  N   UNL     1       4.094   0.251  -0.763  0.00  0.00    -0.310 N 
ATOM     18  C   UNL     1       4.721  -0.690   0.036  0.00  0.00    +0.216 C 
ATOM     34  H   UNL     1       3.874   0.009  -1.725  0.00  0.00    +0.149 HD
BRANCH  18  12
ATOM     12  C   UNL     1       5.051  -1.943  -0.716  0.00  0.00    +0.075 C 
ATOM     14  C   UNL     1       3.896  -2.945  -0.615  0.00  0.00    +0.013 C 
ATOM     15  C   UNL     1       6.271  -2.634  -0.104  0.00  0.00    +0.013 C 
ATOM     16  C   UNL     1       4.500  -4.222  -0.041  0.00  0.00    +0.001 C 
ATOM     17  C   UNL     1       5.690  -3.738   0.768  0.00  0.00    +0.001 C 
ENDBRANCH  18  12
ENDBRANCH   9   7
TORSDOF 4
