REMARK  Name = 11941709
REMARK  4 active torsions:
REMARK  status: ('A' for Active; 'I' for Inactive)
REMARK    1  A    between atoms: S_1  and  N_5
REMARK    2  A    between atoms: S_1  and  C_18
REMARK    3  A    between atoms: C_16  and  C_19
REMARK    4  A    between atoms: C_20  and  C_23
REMARK                            x       y       z     vdW  Elec       q    Type
REMARK                         _______ _______ _______ _____ _____    ______ ____
ROOT
ATOM      4  O   UNL     1      -1.405   0.726  -1.899  0.00  0.00    -0.267 OA
ATOM      5  N   UNL     1       3.096  -0.387  -0.070  0.00  0.00    -0.180 NA
ATOM      6  N   UNL     1       0.346   1.129  -0.412  0.00  0.00    -0.311 N 
ATOM      7  C   UNL     1       2.690   1.806  -1.192  0.00  0.00    +0.025 C 
ATOM      8  C   UNL     1       2.226   1.561   1.207  0.00  0.00    +0.052 C 
ATOM      9  C   UNL     1       2.779   2.516   0.152  0.00  0.00    +0.017 C 
ATOM     10  C   UNL     1       3.524   0.514  -1.178  0.00  0.00    +0.114 C 
ATOM     11  C   UNL     1       3.097   0.293   1.260  0.00  0.00    +0.118 C 
ATOM     12  C   UNL     1       1.214   1.547  -1.522  0.00  0.00    +0.130 C 
ATOM     13  C   UNL     1       0.783   1.198   0.912  0.00  0.00    +0.026 A 
ATOM     14  C   UNL     1      -0.065   0.924   1.916  0.00  0.00    +0.022 A 
ATOM     15  C   UNL     1      -0.973   0.764  -0.746  0.00  0.00    +0.259 A 
ATOM     16  C   UNL     1      -1.891   0.426   0.399  0.00  0.00    +0.047 A 
ATOM     17  C   UNL     1      -1.419   0.527   1.651  0.00  0.00    +0.015 A 
ENDROOT
BRANCH  16  19
ATOM     19  C   UNL     1      -3.276  -0.014   0.163  0.00  0.00    -0.010 A 
ATOM     20  C   UNL     1      -3.594  -1.364  -0.001  0.00  0.00    -0.043 A 
ATOM     21  C   UNL     1      -4.288   0.948   0.105  0.00  0.00    +0.009 A 
ATOM     22  C   UNL     1      -4.915  -1.750  -0.223  0.00  0.00    +0.004 A 
ATOM     23  C   UNL     1      -2.540  -2.423   0.055  0.00  0.00    +0.044 C 
ATOM     24  C   UNL     1      -5.609   0.561  -0.118  0.00  0.00    +0.001 A 
ATOM     25  C   UNL     1      -5.923  -0.788  -0.282  0.00  0.00    +0.000 A 
ENDBRANCH  16  19
BRANCH   5   1
ATOM      1  S   UNL     1       3.765  -1.962  -0.096  0.00  0.00    +0.029 S 
ATOM      2  O   UNL     1       3.849  -2.410  -1.468  0.00  0.00    -0.158 OA
ATOM      3  O   UNL     1       3.122  -2.759   0.927  0.00  0.00    -0.158 OA
ATOM     18  C   UNL     1       5.408  -1.582   0.458  0.00  0.00    +0.215 C 
ENDBRANCH   5   1
TORSDOF 2
