REMARK  Name = 40777675
REMARK  11 active torsions:
REMARK  status: ('A' for Active; 'I' for Inactive)
REMARK    1  A    between atoms: O_5  and  C_20
REMARK    2  A    between atoms: N_7  and  C_18
REMARK    3  A    between atoms: N_8  and  C_29
REMARK    4  A    between atoms: C_10  and  C_15
REMARK    5  A    between atoms: C_10  and  C_16
REMARK    6  A    between atoms: C_15  and  C_17
REMARK    7  A    between atoms: C_16  and  C_20
REMARK    8  A    between atoms: C_21  and  C_24
REMARK    9  A    between atoms: C_25  and  C_27
REMARK   10  A    between atoms: C_26  and  C_28
REMARK   11  A    between atoms: C_34  and  C_35
REMARK                            x       y       z     vdW  Elec       q    Type
REMARK                         _______ _______ _______ _____ _____    ______ ____
ROOT
ATOM     18  C   UNL     1      -2.599   2.260  -0.157  0.00  0.00    +0.097 C 
ATOM     19  C   UNL     1      -1.413   1.449   0.373  0.00  0.00    +0.039 C 
ATOM     21  C   UNL     1      -0.401   1.369  -0.789  0.00  0.00    +0.047 C 
ATOM     22  C   UNL     1      -2.012   3.000  -1.312  0.00  0.00    -0.009 C 
ATOM     23  C   UNL     1      -0.812   2.523  -1.657  0.00  0.00    -0.021 C 
ENDROOT
BRANCH  21  24
ATOM      8  N   UNL     1       3.140   0.943   0.050  0.00  0.00    -0.236 N 
ATOM      9  N   UNL     1       2.969   2.133   0.651  0.00  0.00    -0.171 NA
ATOM     24  C   UNL     1       1.040   1.406  -0.332  0.00  0.00    +0.003 A 
ATOM     25  C   UNL     1       2.014   0.464  -0.554  0.00  0.00    +0.046 A 
ATOM     26  C   UNL     1       1.684   2.410   0.414  0.00  0.00    +0.064 A 
ATOM     27  C   UNL     1       1.967  -0.824  -1.276  0.00  0.00    +0.066 C 
ATOM     28  C   UNL     1       1.108   3.666   0.927  0.00  0.00    +0.068 C 
BRANCH   8  29
ATOM     29  C   UNL     1       4.389   0.322   0.087  0.00  0.00    +0.066 A 
ATOM     30  C   UNL     1       4.787  -0.509  -0.960  0.00  0.00    +0.028 A 
ATOM     31  C   UNL     1       5.237   0.529   1.175  0.00  0.00    +0.028 A 
ATOM     32  C   UNL     1       6.034  -1.133  -0.920  0.00  0.00    +0.014 A 
ATOM     33  C   UNL     1       6.484  -0.095   1.215  0.00  0.00    +0.014 A 
ATOM     34  C   UNL     1       6.883  -0.926   0.167  0.00  0.00    +0.055 A 
BRANCH  34  35
ATOM      1  F   UNL     1       9.264  -0.720   0.270  0.00  0.00    -0.166 F 
ATOM      2  F   UNL     1       8.449  -2.370  -0.888  0.00  0.00    -0.166 F 
ATOM      3  F   UNL     1       8.379  -2.421   1.285  0.00  0.00    -0.166 F 
ATOM     35  C   UNL     1       8.215  -1.594   0.210  0.00  0.00    +0.417 C 
ENDBRANCH  34  35
ENDBRANCH   8  29
ENDBRANCH  21  24
BRANCH  18   7
ATOM      4  O   UNL     1      -4.907   1.256   1.312  0.00  0.00    -0.276 OA
ATOM      7  N   UNL     1      -3.666   1.363  -0.650  0.00  0.00    -0.309 N 
ATOM     17  C   UNL     1      -4.727   0.942   0.138  0.00  0.00    +0.214 C 
ATOM     36  H   UNL     1      -3.593   1.025  -1.606  0.00  0.00    +0.149 HD
BRANCH  17  15
ATOM     15  C   UNL     1      -5.657   0.035  -0.638  0.00  0.00    +0.103 C 
BRANCH  15  10
ATOM     10  C   UNL     1      -6.337  -1.005   0.263  0.00  0.00    -0.011 C 
ATOM     11  C   UNL     1      -7.351  -1.847  -0.543  0.00  0.00    +0.008 C 
ATOM     12  C   UNL     1      -7.175  -0.301   1.358  0.00  0.00    +0.008 C 
ATOM     13  C   UNL     1      -8.718  -1.290  -0.172  0.00  0.00    +0.001 C 
ATOM     14  C   UNL     1      -8.555  -0.944   1.297  0.00  0.00    +0.001 C 
BRANCH  10  16
ATOM     16  C   UNL     1      -5.265  -1.907   0.886  0.00  0.00    +0.127 C 
BRANCH  16  20
ATOM      6  O   UNL     1      -4.856  -3.357  -1.030  0.00  0.00    -0.251 OA
ATOM     20  C   UNL     1      -4.448  -2.593  -0.169  0.00  0.00    +0.305 C 
BRANCH  20   5
ATOM      5  O   UNL     1      -3.145  -2.235  -0.033  0.00  0.00    -0.481 OA
ATOM     37  H   UNL     1      -2.576  -2.661  -0.709  0.00  0.00    +0.295 HD
ENDBRANCH  20   5
ENDBRANCH  16  20
ENDBRANCH  10  16
ENDBRANCH  15  10
ENDBRANCH  17  15
ENDBRANCH  18   7
TORSDOF 9
