REMARK  Name = 25338502
REMARK  7 active torsions:
REMARK  status: ('A' for Active; 'I' for Inactive)
REMARK    1  A    between atoms: O_3  and  C_27
REMARK    2  A    between atoms: O_3  and  C_29
REMARK    3  A    between atoms: N_4  and  C_15
REMARK    4  A    between atoms: N_5  and  C_10
REMARK    5  A    between atoms: N_7  and  C_19
REMARK    6  A    between atoms: C_11  and  C_14
REMARK    7  A    between atoms: C_17  and  C_18
REMARK                            x       y       z     vdW  Elec       q    Type
REMARK                         _______ _______ _______ _____ _____    ______ ____
ROOT
ATOM      4  N   UNL     1      -1.963   3.057   0.992  0.00  0.00    -0.293 NA
ATOM     10  C   UNL     1       0.051   3.150  -0.178  0.00  0.00    +0.090 C 
ATOM     11  C   UNL     1      -2.337   2.676  -0.383  0.00  0.00    +0.147 C 
ATOM     12  C   UNL     1      -0.996   2.583  -1.137  0.00  0.00    +0.052 C 
ATOM     13  C   UNL     1      -0.767   3.896   0.865  0.00  0.00    +0.107 C 
ATOM     15  C   UNL     1      -3.033   3.740   1.710  0.00  0.00    +0.105 C 
ENDROOT
BRANCH  10   5
ATOM      2  O   UNL     1       2.539   2.113  -1.146  0.00  0.00    -0.253 OA
ATOM      5  N   UNL     1       0.842   2.103   0.424  0.00  0.00    -0.295 N 
ATOM      7  N   UNL     1       2.589   0.638   0.679  0.00  0.00    -0.269 N 
ATOM     16  C   UNL     1       2.051   1.653  -0.116  0.00  0.00    +0.304 C 
ATOM     30  H   UNL     1       0.468   1.624   1.237  0.00  0.00    +0.151 HD
ATOM     31  H   UNL     1       2.056   0.373   1.504  0.00  0.00    +0.156 HD
BRANCH   7  19
ATOM     19  C   UNL     1       3.794  -0.076   0.479  0.00  0.00    +0.035 A 
ATOM     22  C   UNL     1       4.176  -1.067   1.383  0.00  0.00    +0.027 A 
ATOM     23  C   UNL     1       4.600   0.211  -0.623  0.00  0.00    +0.027 A 
ATOM     24  C   UNL     1       5.364  -1.771   1.186  0.00  0.00    +0.047 A 
ATOM     25  C   UNL     1       5.788  -0.493  -0.820  0.00  0.00    +0.047 A 
ATOM     27  C   UNL     1       6.170  -1.484   0.084  0.00  0.00    +0.120 A 
BRANCH  27   3
ATOM      3  O   UNL     1       7.329  -2.171  -0.108  0.00  0.00    -0.495 OA
ATOM     29  C   UNL     1       8.104  -1.827  -1.255  0.00  0.00    +0.277 C 
ENDBRANCH  27   3
ENDBRANCH   7  19
ENDBRANCH  10   5
BRANCH  11  14
ATOM      1  O   UNL     1      -4.355   1.470  -1.052  0.00  0.00    -0.336 OA
ATOM      6  N   UNL     1      -2.825   0.195  -0.027  0.00  0.00    -0.190 NA
ATOM      8  N   UNL     1      -4.895   0.179  -1.001  0.00  0.00    -0.056 NA
ATOM     14  C   UNL     1      -3.136   1.392  -0.457  0.00  0.00    +0.245 A 
ATOM     17  C   UNL     1      -3.935  -0.515  -0.383  0.00  0.00    +0.204 A 
BRANCH  17  18
ATOM      9  N   UNL     1      -5.359  -3.947  -0.246  0.00  0.00    -0.263 NA
ATOM     18  C   UNL     1      -4.052  -1.917  -0.107  0.00  0.00    +0.041 A 
ATOM     20  C   UNL     1      -3.033  -2.609   0.537  0.00  0.00    +0.014 A 
ATOM     21  C   UNL     1      -5.185  -2.626  -0.475  0.00  0.00    +0.122 A 
ATOM     26  C   UNL     1      -3.175  -3.969   0.791  0.00  0.00    +0.020 A 
ATOM     28  C   UNL     1      -4.347  -4.586   0.383  0.00  0.00    +0.111 A 
ENDBRANCH  17  18
ENDBRANCH  11  14
TORSDOF 5
