REMARK  Name = 71693480
REMARK  12 active torsions:
REMARK  status: ('A' for Active; 'I' for Inactive)
REMARK    1  A    between atoms: O_2  and  C_11
REMARK    2  A    between atoms: N_6  and  C_14
REMARK    3  A    between atoms: N_7  and  C_25
REMARK    4  A    between atoms: N_7  and  C_26
REMARK    5  A    between atoms: N_8  and  C_21
REMARK    6  A    between atoms: C_9  and  C_11
REMARK    7  A    between atoms: C_10  and  C_12
REMARK    8  A    between atoms: C_14  and  C_18
REMARK    9  A    between atoms: C_22  and  C_23
REMARK   10  A    between atoms: C_22  and  C_27
REMARK   11  A    between atoms: C_22  and  C_28
REMARK   12  A    between atoms: C_23  and  C_24
REMARK                            x       y       z     vdW  Elec       q    Type
REMARK                         _______ _______ _______ _____ _____    ______ ____
ROOT
ATOM      1  O   UNL     1       1.309   2.481   0.188  0.00  0.00    -0.361 OA
ATOM      3  O   UNL     1       4.859   2.341   0.455  0.00  0.00    -0.273 OA
ATOM      6  N   UNL     1       3.317   0.595   0.523  0.00  0.00    -0.283 N 
ATOM      9  C   UNL     1       1.895   0.174   0.507  0.00  0.00    +0.135 C 
ATOM     10  C   UNL     1       1.029   1.166  -0.293  0.00  0.00    +0.171 C 
ATOM     13  C   UNL     1       3.707   1.921   0.327  0.00  0.00    +0.242 C 
ATOM     15  C   UNL     1       2.621   2.867  -0.145  0.00  0.00    +0.256 C 
ENDROOT
BRANCH  10  12
ATOM     12  C   UNL     1      -0.463   0.949  -0.146  0.00  0.00    -0.017 A 
ATOM     16  C   UNL     1      -1.048   0.952   1.120  0.00  0.00    +0.008 A 
ATOM     17  C   UNL     1      -1.252   0.745  -1.278  0.00  0.00    +0.008 A 
ATOM     19  C   UNL     1      -2.421   0.753   1.255  0.00  0.00    +0.023 A 
ATOM     20  C   UNL     1      -2.626   0.545  -1.144  0.00  0.00    +0.023 A 
ATOM     21  C   UNL     1      -3.211   0.549   0.123  0.00  0.00    +0.033 A 
BRANCH  21   8
ATOM      5  O   UNL     1      -5.323   0.100  -1.961  0.00  0.00    -0.275 OA
ATOM      8  N   UNL     1      -4.585   0.350   0.258  0.00  0.00    -0.285 N 
ATOM     24  C   UNL     1      -5.535   0.131  -0.753  0.00  0.00    +0.217 C 
ATOM     30  H   UNL     1      -4.928   0.392   1.214  0.00  0.00    +0.155 HD
BRANCH  24  23
ATOM     23  C   UNL     1      -6.934  -0.039  -0.170  0.00  0.00    +0.099 C 
BRANCH  23  22
ATOM     22  C   UNL     1      -7.057  -1.207   0.821  0.00  0.00    -0.008 C 
ATOM     27  C   UNL     1      -6.702  -2.523   0.127  0.00  0.00    +0.008 C 
ATOM     28  C   UNL     1      -8.470  -1.296   1.404  0.00  0.00    +0.008 C 
ENDBRANCH  23  22
ENDBRANCH  24  23
ENDBRANCH  21   8
ENDBRANCH  10  12
BRANCH   9  11
ATOM     11  C   UNL     1       1.710  -1.255  -0.024  0.00  0.00    +0.181 C 
BRANCH  11   2
ATOM      2  O   UNL     1       2.090  -1.272  -1.385  0.00  0.00    -0.393 OA
ATOM     29  H   UNL     1       1.954  -2.178  -1.711  0.00  0.00    +0.209 HD
ENDBRANCH  11   2
ENDBRANCH   9  11
BRANCH   6  14
ATOM     14  C   UNL     1       4.312  -0.364   0.995  0.00  0.00    +0.204 C 
BRANCH  14  18
ATOM      4  O   UNL     1       4.741  -0.672  -1.344  0.00  0.00    -0.274 OA
ATOM      7  N   UNL     1       5.981  -1.970   0.127  0.00  0.00    -0.306 N 
ATOM     18  C   UNL     1       5.019  -1.003  -0.188  0.00  0.00    +0.232 C 
ATOM     25  C   UNL     1       6.292  -2.343   1.501  0.00  0.00    +0.131 C 
ATOM     26  C   UNL     1       6.745  -2.676  -0.899  0.00  0.00    +0.131 C 
ENDBRANCH  14  18
ENDBRANCH   6  14
TORSDOF 8
