REMARK  Name = 11912229
REMARK  10 active torsions:
REMARK  status: ('A' for Active; 'I' for Inactive)
REMARK    1  A    between atoms: N_4  and  C_17
REMARK    2  A    between atoms: N_5  and  C_18
REMARK    3  A    between atoms: N_5  and  C_19
REMARK    4  A    between atoms: C_7  and  C_13
REMARK    5  A    between atoms: C_8  and  C_12
REMARK    6  A    between atoms: C_12  and  C_14
REMARK    7  A    between atoms: C_13  and  C_16
REMARK    8  A    between atoms: C_17  and  C_20
REMARK    9  A    between atoms: C_17  and  C_21
REMARK   10  A    between atoms: C_18  and  C_22
REMARK                            x       y       z     vdW  Elec       q    Type
REMARK                         _______ _______ _______ _____ _____    ______ ____
ROOT
ATOM      1  O   UNL     1      -3.650  -2.099  -0.361  0.00  0.00    -0.253 OA
ATOM      3  N   UNL     1      -1.825  -0.997   0.550  0.00  0.00    -0.285 N 
ATOM      4  N   UNL     1      -3.942   0.044   0.399  0.00  0.00    -0.297 N 
ATOM      7  C   UNL     1       0.979  -0.499   0.030  0.00  0.00    +0.004 C 
ATOM      8  C   UNL     1      -0.003   0.668   0.316  0.00  0.00    +0.010 C 
ATOM      9  C   UNL     1       0.252  -1.730  -0.542  0.00  0.00    +0.023 C 
ATOM     10  C   UNL     1      -1.171   0.160   1.179  0.00  0.00    +0.113 C 
ATOM     11  C   UNL     1      -0.933  -2.136   0.332  0.00  0.00    +0.109 C 
ATOM     15  C   UNL     1      -3.172  -1.088   0.163  0.00  0.00    +0.302 C 
ATOM     23  H   UNL     1      -3.540   0.885   0.783  0.00  0.00    +0.150 HD
ENDROOT
BRANCH   4  17
ATOM     17  C   UNL     1      -5.344   0.107   0.048  0.00  0.00    +0.068 C 
ATOM     20  C   UNL     1      -6.100   0.999   1.026  0.00  0.00    +0.027 C 
ATOM     21  C   UNL     1      -5.509   0.596  -1.385  0.00  0.00    +0.027 C 
ENDBRANCH   4  17
BRANCH   8  12
ATOM     12  C   UNL     1      -0.531   1.362  -0.945  0.00  0.00    +0.002 C 
ATOM     14  C   UNL     1      -1.379   2.566  -0.592  0.00  0.00    +0.004 C 
ENDBRANCH   8  12
BRANCH   7  13
ATOM     13  C   UNL     1       2.146  -0.096  -0.871  0.00  0.00    +0.100 C 
BRANCH  13  16
ATOM      2  O   UNL     1       2.654   2.227  -0.566  0.00  0.00    -0.276 OA
ATOM      5  N   UNL     1       4.014   0.707   0.538  0.00  0.00    -0.291 N 
ATOM     16  C   UNL     1       2.948   1.059  -0.296  0.00  0.00    +0.216 C 
ATOM     19  C   UNL     1       4.877   1.700   1.166  0.00  0.00    +0.133 C 
BRANCH   5  18
ATOM     18  C   UNL     1       4.344  -0.684   0.843  0.00  0.00    +0.226 C 
BRANCH  18  22
ATOM      6  N   UNL     1       6.050  -1.646  -0.900  0.00  0.00    -0.195 NA
ATOM     22  C   UNL     1       5.295  -1.219  -0.130  0.00  0.00    +0.082 C 
ENDBRANCH  18  22
ENDBRANCH   5  18
ENDBRANCH  13  16
ENDBRANCH   7  13
TORSDOF 6
