REMARK  Name = 40777334
REMARK  9 active torsions:
REMARK  status: ('A' for Active; 'I' for Inactive)
REMARK    1  A    between atoms: N_4  and  C_13
REMARK    2  A    between atoms: C_6  and  C_10
REMARK    3  A    between atoms: C_7  and  C_11
REMARK    4  A    between atoms: C_10  and  C_16
REMARK    5  A    between atoms: C_11  and  C_20
REMARK    6  A    between atoms: C_22  and  C_23
REMARK    7  A    between atoms: C_22  and  C_24
REMARK    8  A    between atoms: C_22  and  C_25
REMARK    9  A    between atoms: C_22  and  C_26
REMARK                            x       y       z     vdW  Elec       q    Type
REMARK                         _______ _______ _______ _____ _____    ______ ____
ROOT
ATOM      3  N   UNL     1       2.511  -3.945   1.084  0.00  0.00    -0.316 NA
ATOM      6  C   UNL     1       1.365  -1.389   0.156  0.00  0.00    +0.004 C 
ATOM      7  C   UNL     1       0.560  -2.710   0.170  0.00  0.00    +0.012 C 
ATOM      8  C   UNL     1       2.493  -1.477   1.197  0.00  0.00    +0.019 C 
ATOM      9  C   UNL     1       1.479  -3.937   0.046  0.00  0.00    +0.085 C 
ATOM     12  C   UNL     1       3.338  -2.740   1.037  0.00  0.00    +0.081 C 
ATOM     27  H   UNL     1       3.104  -4.766   0.964  0.00  0.00    +0.122 HD
ENDROOT
BRANCH   6  10
ATOM     10  C   UNL     1       1.923  -1.014  -1.222  0.00  0.00    +0.099 C 
BRANCH  10  16
ATOM      1  O   UNL     1       3.874   0.392  -1.484  0.00  0.00    -0.276 OA
ATOM      4  N   UNL     1       1.866   1.343  -0.804  0.00  0.00    -0.312 N 
ATOM     16  C   UNL     1       2.685   0.294  -1.195  0.00  0.00    +0.214 C 
ATOM     28  H   UNL     1       0.892   1.158  -0.589  0.00  0.00    +0.149 HD
BRANCH   4  13
ATOM     13  C   UNL     1       2.331   2.708  -0.689  0.00  0.00    +0.073 C 
ATOM     14  C   UNL     1       1.214   3.701  -1.029  0.00  0.00    +0.022 C 
ATOM     15  C   UNL     1       2.909   2.977   0.704  0.00  0.00    +0.022 C 
ATOM     17  C   UNL     1       0.136   3.762   0.053  0.00  0.00    +0.002 C 
ATOM     18  C   UNL     1       1.828   3.039   1.783  0.00  0.00    +0.002 C 
ATOM     19  C   UNL     1       0.734   4.042   1.428  0.00  0.00    +0.000 C 
ENDBRANCH   4  13
ENDBRANCH  10  16
ENDBRANCH   6  10
BRANCH   7  11
ATOM     11  C   UNL     1      -0.540  -2.753  -0.891  0.00  0.00    +0.064 C 
BRANCH  11  20
ATOM      2  O   UNL     1      -3.653  -1.534   0.444  0.00  0.00    -0.359 OA
ATOM      5  N   UNL     1      -2.720  -2.539   0.221  0.00  0.00    -0.083 NA
ATOM     20  C   UNL     1      -1.738  -1.953  -0.470  0.00  0.00    +0.084 A 
ATOM     21  C   UNL     1      -1.994  -0.592  -0.711  0.00  0.00    +0.071 A 
ATOM     23  C   UNL     1      -3.209  -0.379  -0.116  0.00  0.00    +0.143 A 
BRANCH  23  22
ATOM     22  C   UNL     1      -4.079   0.795   0.027  0.00  0.00    +0.023 C 
ATOM     24  C   UNL     1      -3.931   1.788  -1.178  0.00  0.00    +0.019 C 
ATOM     25  C   UNL     1      -3.757   1.613   1.327  0.00  0.00    +0.019 C 
ATOM     26  C   UNL     1      -5.625   0.508   0.114  0.00  0.00    +0.019 C 
ENDBRANCH  23  22
ENDBRANCH  11  20
ENDBRANCH   7  11
TORSDOF 6
