REMARK  Name = 11911799
REMARK  7 active torsions:
REMARK  status: ('A' for Active; 'I' for Inactive)
REMARK    1  A    between atoms: O_4  and  C_21
REMARK    2  A    between atoms: O_4  and  C_24
REMARK    3  A    between atoms: N_6  and  C_12
REMARK    4  A    between atoms: N_7  and  C_13
REMARK    5  A    between atoms: N_7  and  C_16
REMARK    6  A    between atoms: C_16  and  C_19
REMARK    7  A    between atoms: C_18  and  C_21
REMARK                            x       y       z     vdW  Elec       q    Type
REMARK                         _______ _______ _______ _____ _____    ______ ____
ROOT
ATOM      1  O   UNL     1       0.640   0.411   1.481  0.00  0.00    -0.370 OA
ATOM      2  O   UNL     1       0.375   2.594  -0.983  0.00  0.00    -0.370 OA
ATOM     10  C   UNL     1      -0.140   1.313  -0.590  0.00  0.00    +0.175 C 
ATOM     11  C   UNL     1       0.996   0.575   0.102  0.00  0.00    +0.168 C 
ATOM     12  C   UNL     1      -1.221   1.480   0.463  0.00  0.00    +0.166 C 
ATOM     13  C   UNL     1       2.198   1.493  -0.025  0.00  0.00    +0.111 C 
ATOM     14  C   UNL     1      -0.471   1.267   1.773  0.00  0.00    +0.189 C 
ATOM     15  C   UNL     1       1.791   2.454  -1.119  0.00  0.00    +0.181 C 
ENDROOT
BRANCH  12   6
ATOM      6  N   UNL     1      -2.351   0.565   0.276  0.00  0.00    -0.243 N 
ATOM      8  N   UNL     1      -2.154  -0.760   0.245  0.00  0.00    -0.065 NA
ATOM      9  N   UNL     1      -3.342  -1.326   0.065  0.00  0.00    -0.123 NA
ATOM     17  C   UNL     1      -3.659   0.889   0.118  0.00  0.00    +0.145 A 
ATOM     18  C   UNL     1      -4.275  -0.330  -0.015  0.00  0.00    +0.189 A 
BRANCH  18  21
ATOM      5  O   UNL     1      -6.536   0.322  -0.283  0.00  0.00    -0.243 OA
ATOM     21  C   UNL     1      -5.669  -0.572  -0.208  0.00  0.00    +0.361 C 
BRANCH  21   4
ATOM      4  O   UNL     1      -6.009  -1.909  -0.309  0.00  0.00    -0.463 OA
ATOM     24  C   UNL     1      -7.392  -2.224  -0.504  0.00  0.00    +0.280 C 
ENDBRANCH  21   4
ENDBRANCH  18  21
ENDBRANCH  12   6
BRANCH  13   7
ATOM      7  N   UNL     1       3.403   0.737  -0.418  0.00  0.00    -0.302 NA
ATOM     25  H   UNL     1       4.162   1.397  -0.590  0.00  0.00    +0.123 HD
BRANCH   7  16
ATOM     16  C   UNL     1       3.790  -0.196   0.629  0.00  0.00    +0.156 C 
BRANCH  16  19
ATOM      3  O   UNL     1       6.090  -0.181  -0.066  0.00  0.00    -0.467 OA
ATOM     19  C   UNL     1       5.010  -0.943   0.197  0.00  0.00    +0.119 A 
ATOM     20  C   UNL     1       5.254  -2.266   0.011  0.00  0.00    +0.046 A 
ATOM     22  C   UNL     1       6.605  -2.343  -0.405  0.00  0.00    +0.041 A 
ATOM     23  C   UNL     1       7.069  -1.048  -0.435  0.00  0.00    +0.195 A 
ENDBRANCH  16  19
ENDBRANCH   7  16
ENDBRANCH  13   7
TORSDOF 6
