REMARK  Name = 75367641
REMARK  4 active torsions:
REMARK  status: ('A' for Active; 'I' for Inactive)
REMARK    1  A    between atoms: O_7  and  C_12
REMARK    2  A    between atoms: O_7  and  C_18
REMARK    3  A    between atoms: N_10  and  C_19
REMARK    4  A    between atoms: C_22  and  C_28
REMARK                            x       y       z     vdW  Elec       q    Type
REMARK                         _______ _______ _______ _____ _____    ______ ____
ROOT
ATOM      6  O   UNL     1       1.099   4.773   0.283  0.00  0.00    -0.375 OA
ATOM      8  O   UNL     1       3.971   1.265   0.027  0.00  0.00    -0.252 OA
ATOM      9  N   UNL     1       2.020   2.211  -0.780  0.00  0.00    -0.280 N 
ATOM     10  N   UNL     1       2.026  -0.008   0.023  0.00  0.00    -0.267 N 
ATOM     12  C   UNL     1      -0.234   2.705   0.194  0.00  0.00    +0.218 C 
ATOM     13  C   UNL     1       0.568   2.208  -1.011  0.00  0.00    +0.156 C 
ATOM     14  C   UNL     1       2.688   3.484  -1.063  0.00  0.00    +0.137 C 
ATOM     15  C   UNL     1       0.444   3.771   1.055  0.00  0.00    +0.206 C 
ATOM     16  C   UNL     1       2.482   4.491   0.061  0.00  0.00    +0.179 C 
ATOM     17  C   UNL     1       2.769   1.147  -0.225  0.00  0.00    +0.307 C 
ATOM     30  H   UNL     1       1.031   0.097   0.193  0.00  0.00    +0.156 HD
ENDROOT
BRANCH  10  19
ATOM      1  F   UNL     1       0.310  -2.138   0.562  0.00  0.00    -0.203 F 
ATOM      5  F   UNL     1       3.811  -5.259  -0.063  0.00  0.00    -0.205 F 
ATOM     19  C   UNL     1       2.480  -1.350   0.002  0.00  0.00    +0.070 A 
ATOM     23  C   UNL     1       1.595  -2.393   0.276  0.00  0.00    +0.147 A 
ATOM     24  C   UNL     1       3.815  -1.628  -0.295  0.00  0.00    +0.029 A 
ATOM     26  C   UNL     1       2.044  -3.713   0.254  0.00  0.00    +0.078 A 
ATOM     27  C   UNL     1       4.264  -2.948  -0.316  0.00  0.00    +0.040 A 
ATOM     29  C   UNL     1       3.379  -3.991  -0.042  0.00  0.00    +0.126 A 
ENDBRANCH  10  19
BRANCH  12   7
ATOM      7  O   UNL     1      -0.567   1.591   1.022  0.00  0.00    -0.469 OA
BRANCH   7  18
ATOM     11  N   UNL     1      -2.388   1.330  -0.391  0.00  0.00    -0.221 NA
ATOM     18  C   UNL     1      -1.698   0.896   0.688  0.00  0.00    +0.215 A 
ATOM     20  C   UNL     1      -2.068  -0.195   1.458  0.00  0.00    +0.068 A 
ATOM     21  C   UNL     1      -3.220  -0.884   1.098  0.00  0.00    +0.019 A 
ATOM     22  C   UNL     1      -3.957  -0.468  -0.005  0.00  0.00    +0.073 A 
ATOM     25  C   UNL     1      -3.502   0.635  -0.710  0.00  0.00    +0.127 A 
BRANCH  22  28
ATOM      2  F   UNL     1      -6.315  -0.401  -0.404  0.00  0.00    -0.166 F 
ATOM      3  F   UNL     1      -5.138  -1.701  -1.680  0.00  0.00    -0.166 F 
ATOM      4  F   UNL     1      -5.485  -2.245   0.396  0.00  0.00    -0.166 F 
ATOM     28  C   UNL     1      -5.194  -1.185  -0.415  0.00  0.00    +0.419 C 
ENDBRANCH  22  28
ENDBRANCH   7  18
ENDBRANCH  12   7
TORSDOF 4
