REMARK  Name = 28962378
REMARK  10 active torsions:
REMARK  status: ('A' for Active; 'I' for Inactive)
REMARK    1  A    between atoms: O_2  and  C_10
REMARK    2  A    between atoms: O_3  and  C_18
REMARK    3  A    between atoms: N_5  and  C_8
REMARK    4  A    between atoms: N_6  and  C_17
REMARK    5  A    between atoms: N_7  and  C_21
REMARK    6  A    between atoms: C_9  and  C_17
REMARK    7  A    between atoms: C_11  and  C_18
REMARK    8  A    between atoms: C_14  and  C_19
REMARK    9  A    between atoms: C_21  and  C_22
REMARK   10  A    between atoms: C_21  and  C_23
REMARK                            x       y       z     vdW  Elec       q    Type
REMARK                         _______ _______ _______ _____ _____    ______ ____
ROOT
ATOM      1  O   UNL     1       0.501   2.118   0.476  0.00  0.00    -0.365 OA
ATOM      8  C   UNL     1      -1.472   0.801   0.670  0.00  0.00    +0.118 C 
ATOM      9  C   UNL     1       0.054   0.745   0.530  0.00  0.00    +0.155 C 
ATOM     10  C   UNL     1      -1.825   2.139   0.039  0.00  0.00    +0.165 C 
ATOM     11  C   UNL     1      -0.647   2.988   0.502  0.00  0.00    +0.174 C 
ENDROOT
BRANCH   8   5
ATOM      5  N   UNL     1      -2.207  -0.341   0.153  0.00  0.00    -0.295 NA
ATOM     12  C   UNL     1      -3.611   0.018  -0.089  0.00  0.00    +0.085 C 
ATOM     13  C   UNL     1      -2.102  -1.480   1.075  0.00  0.00    +0.085 C 
ATOM     14  C   UNL     1      -4.295  -2.397   0.213  0.00  0.00    -0.012 C 
ATOM     15  C   UNL     1      -4.386  -1.158  -0.685  0.00  0.00    +0.018 C 
ATOM     16  C   UNL     1      -2.826  -2.708   0.519  0.00  0.00    +0.018 C 
ATOM     19  C   UNL     1      -4.986  -3.595  -0.434  0.00  0.00    +0.007 C 
ENDBRANCH   8   5
BRANCH  10   2
ATOM      2  O   UNL     1      -1.848   2.056  -1.380  0.00  0.00    -0.388 OA
ATOM     24  H   UNL     1      -2.180   2.905  -1.719  0.00  0.00    +0.210 HD
ENDBRANCH  10   2
BRANCH   9  17
ATOM     17  C   UNL     1       0.602   0.042  -0.707  0.00  0.00    +0.139 C 
BRANCH  17   6
ATOM      4  O   UNL     1       2.378  -1.929   0.427  0.00  0.00    -0.253 OA
ATOM      6  N   UNL     1       2.034   0.062  -0.720  0.00  0.00    -0.297 N 
ATOM      7  N   UNL     1       4.185  -0.668  -0.301  0.00  0.00    -0.297 N 
ATOM     20  C   UNL     1       2.828  -0.937  -0.145  0.00  0.00    +0.300 C 
ATOM     25  H   UNL     1       2.499   0.852  -1.158  0.00  0.00    +0.150 HD
ATOM     27  H   UNL     1       4.457   0.139  -0.855  0.00  0.00    +0.150 HD
BRANCH   7  21
ATOM     21  C   UNL     1       5.218  -1.542   0.202  0.00  0.00    +0.068 C 
ATOM     22  C   UNL     1       6.447  -0.735   0.602  0.00  0.00    +0.027 C 
ATOM     23  C   UNL     1       5.569  -2.606  -0.831  0.00  0.00    +0.027 C 
ENDBRANCH   7  21
ENDBRANCH  17   6
ENDBRANCH   9  17
BRANCH  11  18
ATOM     18  C   UNL     1      -0.360   4.220  -0.336  0.00  0.00    +0.190 C 
BRANCH  18   3
ATOM      3  O   UNL     1       0.749   4.907   0.222  0.00  0.00    -0.392 OA
ATOM     26  H   UNL     1       0.907   5.691  -0.330  0.00  0.00    +0.210 HD
ENDBRANCH  18   3
ENDBRANCH  11  18
TORSDOF 7
