REMARK  Name = 75537009
REMARK  4 active torsions:
REMARK  status: ('A' for Active; 'I' for Inactive)
REMARK    1  A    between atoms: O_3  and  C_25
REMARK    2  A    between atoms: O_3  and  C_26
REMARK    3  A    between atoms: N_4  and  C_8
REMARK    4  A    between atoms: C_19  and  C_20
REMARK                            x       y       z     vdW  Elec       q    Type
REMARK                         _______ _______ _______ _____ _____    ______ ____
ROOT
ATOM      1  O   UNL     1       3.604   2.478  -0.549  0.00  0.00    -0.252 OA
ATOM      2  O   UNL     1      -3.350   2.918  -0.042  0.00  0.00    -0.270 OA
ATOM      4  N   UNL     1       2.957   0.240  -0.183  0.00  0.00    -0.281 N 
ATOM      5  N   UNL     1       1.358   1.801  -0.420  0.00  0.00    -0.278 N 
ATOM      6  N   UNL     1      -1.303   1.871   0.377  0.00  0.00    -0.294 N 
ATOM      7  C   UNL     1       0.634   0.544  -0.333  0.00  0.00    +0.112 C 
ATOM      9  C   UNL     1       1.711  -0.471   0.040  0.00  0.00    +0.133 C 
ATOM     12  C   UNL     1      -0.508   0.663   0.671  0.00  0.00    +0.132 C 
ATOM     13  C   UNL     1       2.748   1.615  -0.406  0.00  0.00    +0.305 C 
ATOM     14  C   UNL     1       0.630   3.043  -0.611  0.00  0.00    +0.128 C 
ATOM     18  C   UNL     1      -0.534   3.124   0.375  0.00  0.00    +0.127 C 
ATOM     19  C   UNL     1      -2.682   1.906   0.160  0.00  0.00    +0.247 C 
ENDROOT
BRANCH   4   8
ATOM      8  C   UNL     1       4.240  -0.406  -0.048  0.00  0.00    +0.078 C 
ATOM     10  C   UNL     1       4.381  -1.047   1.336  0.00  0.00    +0.022 C 
ATOM     11  C   UNL     1       4.442  -1.436  -1.161  0.00  0.00    +0.022 C 
ATOM     15  C   UNL     1       5.710  -1.783   1.482  0.00  0.00    +0.002 C 
ATOM     16  C   UNL     1       5.771  -2.174  -1.012  0.00  0.00    +0.002 C 
ATOM     17  C   UNL     1       5.910  -2.808   0.369  0.00  0.00    +0.000 C 
ENDBRANCH   4   8
BRANCH  19  20
ATOM     20  C   UNL     1      -3.413   0.632   0.156  0.00  0.00    +0.037 A 
ATOM     21  C   UNL     1      -3.945   0.130   1.343  0.00  0.00    +0.016 A 
ATOM     22  C   UNL     1      -3.574  -0.076  -1.035  0.00  0.00    +0.016 A 
ATOM     23  C   UNL     1      -4.638  -1.080   1.340  0.00  0.00    +0.046 A 
ATOM     24  C   UNL     1      -4.268  -1.286  -1.038  0.00  0.00    +0.046 A 
ATOM     25  C   UNL     1      -4.800  -1.788   0.149  0.00  0.00    +0.120 A 
BRANCH  25   3
ATOM      3  O   UNL     1      -5.476  -2.970   0.146  0.00  0.00    -0.495 OA
ATOM     26  C   UNL     1      -5.604  -3.641  -1.106  0.00  0.00    +0.277 C 
ENDBRANCH  25   3
ENDBRANCH  19  20
TORSDOF 3
