REMARK  Name = 28959646
REMARK  11 active torsions:
REMARK  status: ('A' for Active; 'I' for Inactive)
REMARK    1  A    between atoms: O_2  and  C_23
REMARK    2  A    between atoms: O_5  and  C_30
REMARK    3  A    between atoms: O_5  and  C_31
REMARK    4  A    between atoms: N_6  and  C_14
REMARK    5  A    between atoms: C_9  and  C_11
REMARK    6  A    between atoms: C_10  and  C_16
REMARK    7  A    between atoms: C_11  and  C_14
REMARK    8  A    between atoms: C_16  and  C_23
REMARK    9  A    between atoms: C_17  and  C_22
REMARK   10  A    between atoms: C_21  and  C_24
REMARK   11  A    between atoms: C_24  and  C_25
REMARK                            x       y       z     vdW  Elec       q    Type
REMARK                         _______ _______ _______ _____ _____    ______ ____
ROOT
ATOM      1  O   UNL     1       1.300  -2.673   0.685  0.00  0.00    -0.275 OA
ATOM      7  N   UNL     1      -0.595  -2.118  -0.540  0.00  0.00    -0.301 N 
ATOM      9  C   UNL     1      -2.551  -0.655  -0.994  0.00  0.00    +0.011 C 
ATOM     10  C   UNL     1      -3.459  -1.730  -0.343  0.00  0.00    +0.006 C 
ATOM     12  C   UNL     1      -1.282  -1.317  -1.561  0.00  0.00    +0.111 C 
ATOM     13  C   UNL     1      -2.686  -2.578   0.682  0.00  0.00    +0.023 C 
ATOM     15  C   UNL     1      -1.415  -3.163   0.071  0.00  0.00    +0.108 C 
ATOM     21  C   UNL     1       0.738  -1.969  -0.157  0.00  0.00    +0.220 C 
ENDROOT
BRANCH   9  11
ATOM     11  C   UNL     1      -2.176   0.497  -0.053  0.00  0.00    +0.021 C 
BRANCH  11  14
ATOM     14  C   UNL     1      -1.862   1.761  -0.841  0.00  0.00    +0.085 C 
BRANCH  14   6
ATOM      6  N   UNL     1      -1.493   2.834   0.073  0.00  0.00    -0.291 NA
ATOM     17  C   UNL     1      -0.704   3.891  -0.569  0.00  0.00    +0.143 C 
ATOM     18  C   UNL     1      -2.663   3.487   0.660  0.00  0.00    +0.085 C 
ATOM     19  C   UNL     1      -1.059   5.179   0.174  0.00  0.00    +0.029 C 
ATOM     20  C   UNL     1      -2.059   4.752   1.238  0.00  0.00    +0.017 C 
BRANCH  17  22
ATOM      3  O   UNL     1       1.127   2.854   0.558  0.00  0.00    -0.274 OA
ATOM      8  N   UNL     1       1.563   4.056  -1.354  0.00  0.00    -0.328 N 
ATOM     22  C   UNL     1       0.737   3.536  -0.386  0.00  0.00    +0.228 C 
ATOM     32  H   UNL     1       1.215   4.627  -2.118  0.00  0.00    +0.145 HD
ATOM     33  H   UNL     1       2.563   3.886  -1.332  0.00  0.00    +0.145 HD
ENDBRANCH  17  22
ENDBRANCH  14   6
ENDBRANCH  11  14
ENDBRANCH   9  11
BRANCH  10  16
ATOM     16  C   UNL     1      -4.724  -1.146   0.285  0.00  0.00    +0.124 C 
BRANCH  16  23
ATOM      4  O   UNL     1      -5.738  -3.353   0.074  0.00  0.00    -0.251 OA
ATOM     23  C   UNL     1      -5.809  -2.181   0.411  0.00  0.00    +0.305 C 
BRANCH  23   2
ATOM      2  O   UNL     1      -6.913  -1.620   0.967  0.00  0.00    -0.481 OA
ATOM     34  H   UNL     1      -7.643  -2.269   1.065  0.00  0.00    +0.295 HD
ENDBRANCH  23   2
ENDBRANCH  16  23
ENDBRANCH  10  16
BRANCH  21  24
ATOM     24  C   UNL     1       1.515  -0.867  -0.832  0.00  0.00    +0.131 C 
BRANCH  24  25
ATOM     25  C   UNL     1       2.934  -0.853  -0.354  0.00  0.00    -0.038 A 
ATOM     26  C   UNL     1       3.289  -0.088   0.756  0.00  0.00    +0.007 A 
ATOM     27  C   UNL     1       3.901  -1.607  -1.020  0.00  0.00    +0.007 A 
ATOM     28  C   UNL     1       4.611  -0.076   1.201  0.00  0.00    +0.046 A 
ATOM     29  C   UNL     1       5.223  -1.595  -0.576  0.00  0.00    +0.046 A 
ATOM     30  C   UNL     1       5.578  -0.829   0.535  0.00  0.00    +0.120 A 
BRANCH  30   5
ATOM      5  O   UNL     1       6.868  -0.818   0.969  0.00  0.00    -0.495 OA
ATOM     31  C   UNL     1       7.805  -1.611   0.241  0.00  0.00    +0.277 C 
ENDBRANCH  30   5
ENDBRANCH  24  25
ENDBRANCH  21  24
TORSDOF 10
