REMARK  Name = 11882599
REMARK  13 active torsions:
REMARK  status: ('A' for Active; 'I' for Inactive)
REMARK    1  A    between atoms: S_1  and  N_12
REMARK    2  A    between atoms: S_1  and  C_32
REMARK    3  A    between atoms: N_11  and  C_27
REMARK    4  A    between atoms: N_12  and  C_17
REMARK    5  A    between atoms: N_13  and  C_31
REMARK    6  A    between atoms: N_13  and  C_36
REMARK    7  A    between atoms: C_15  and  C_21
REMARK    8  A    between atoms: C_16  and  C_28
REMARK    9  A    between atoms: C_21  and  C_27
REMARK   10  A    between atoms: C_27  and  C_30
REMARK   11  A    between atoms: C_29  and  C_31
REMARK   12  A    between atoms: C_31  and  C_33
REMARK   13  A    between atoms: C_37  and  C_40
REMARK                            x       y       z     vdW  Elec       q    Type
REMARK                         _______ _______ _______ _____ _____    ______ ____
ROOT
ATOM      6  O   UNL     1      -3.191  -3.446  -0.754  0.00  0.00    -0.274 OA
ATOM     10  N   UNL     1      -1.175  -2.452  -0.147  0.00  0.00    -0.289 N 
ATOM     16  C   UNL     1      -0.410  -1.555   0.736  0.00  0.00    +0.163 C 
ATOM     17  C   UNL     1       1.728  -2.380  -0.390  0.00  0.00    +0.080 C 
ATOM     20  C   UNL     1       1.046  -1.991   0.922  0.00  0.00    +0.052 C 
ATOM     22  C   UNL     1       0.886  -3.401  -1.149  0.00  0.00    +0.039 C 
ATOM     25  C   UNL     1      -0.518  -2.865  -1.393  0.00  0.00    +0.110 C 
ATOM     29  C   UNL     1      -2.514  -2.804   0.054  0.00  0.00    +0.233 C 
ENDROOT
BRANCH  16  28
ATOM      5  O   UNL     1      -0.080   0.091  -0.964  0.00  0.00    -0.274 OA
ATOM     11  N   UNL     1      -1.126   0.714   1.021  0.00  0.00    -0.302 N 
ATOM     28  C   UNL     1      -0.516  -0.176   0.153  0.00  0.00    +0.234 C 
ATOM     41  H   UNL     1      -1.408   0.404   1.945  0.00  0.00    +0.150 HD
BRANCH  11  27
ATOM     27  C   UNL     1      -1.329   2.110   0.707  0.00  0.00    +0.159 C 
BRANCH  27  30
ATOM      7  O   UNL     1      -0.337   2.653   2.858  0.00  0.00    -0.274 OA
ATOM     14  N   UNL     1      -0.019   4.106   1.108  0.00  0.00    -0.328 N 
ATOM     30  C   UNL     1      -0.513   2.952   1.680  0.00  0.00    +0.231 C 
ATOM     44  H   UNL     1       0.535   4.759   1.652  0.00  0.00    +0.145 HD
ATOM     45  H   UNL     1      -0.187   4.351   0.138  0.00  0.00    +0.145 HD
ENDBRANCH  27  30
BRANCH  27  21
ATOM     21  C   UNL     1      -2.812   2.491   0.692  0.00  0.00    +0.035 C 
BRANCH  21  15
ATOM     15  C   UNL     1      -3.667   1.643  -0.248  0.00  0.00    -0.009 C 
ATOM     18  C   UNL     1      -3.150   1.745  -1.690  0.00  0.00    +0.003 C 
ATOM     19  C   UNL     1      -5.141   2.062  -0.166  0.00  0.00    +0.003 C 
ATOM     23  C   UNL     1      -4.020   0.948  -2.659  0.00  0.00    +0.000 C 
ATOM     24  C   UNL     1      -6.008   1.264  -1.138  0.00  0.00    +0.000 C 
ATOM     26  C   UNL     1      -5.486   1.360  -2.568  0.00  0.00    +0.000 C 
ENDBRANCH  21  15
ENDBRANCH  27  21
ENDBRANCH  11  27
ENDBRANCH  16  28
BRANCH  17  12
ATOM     12  N   UNL     1       3.061  -2.961  -0.095  0.00  0.00    -0.187 NA
ATOM     42  H   UNL     1       3.123  -3.645   0.668  0.00  0.00    +0.148 HD
BRANCH  12   1
ATOM      1  S   UNL     1       4.459  -2.221  -0.711  0.00  0.00    +0.059 S 
ATOM      8  O   UNL     1       4.335  -2.075  -2.149  0.00  0.00    -0.153 OA
ATOM      9  O   UNL     1       5.622  -2.874  -0.142  0.00  0.00    -0.153 OA
BRANCH   1  32
ATOM     32  C   UNL     1       4.368  -0.610   0.010  0.00  0.00    +0.106 A 
ATOM     34  C   UNL     1       3.704   0.418  -0.659  0.00  0.00    +0.041 A 
ATOM     35  C   UNL     1       4.960  -0.366   1.249  0.00  0.00    +0.028 A 
ATOM     37  C   UNL     1       3.632   1.689  -0.090  0.00  0.00    +0.057 A 
ATOM     38  C   UNL     1       4.888   0.905   1.819  0.00  0.00    +0.002 A 
ATOM     39  C   UNL     1       4.224   1.933   1.149  0.00  0.00    +0.012 A 
BRANCH  37  40
ATOM      2  F   UNL     1       2.932   3.976  -0.131  0.00  0.00    -0.166 F 
ATOM      3  F   UNL     1       3.450   3.072  -2.033  0.00  0.00    -0.166 F 
ATOM      4  F   UNL     1       1.606   2.505  -1.030  0.00  0.00    -0.166 F 
ATOM     40  C   UNL     1       2.922   2.788  -0.806  0.00  0.00    +0.417 C 
ENDBRANCH  37  40
ENDBRANCH   1  32
ENDBRANCH  12   1
ENDBRANCH  17  12
BRANCH  29  31
ATOM     31  C   UNL     1      -3.145  -2.368   1.354  0.00  0.00    +0.137 C 
ATOM     33  C   UNL     1      -2.958  -3.443   2.405  0.00  0.00    +0.034 C 
BRANCH  31  13
ATOM     13  N   UNL     1      -4.554  -2.140   1.083  0.00  0.00    -0.309 NA
ATOM     36  C   UNL     1      -5.156  -1.298   2.109  0.00  0.00    +0.101 C 
ATOM     43  H   UNL     1      -4.655  -1.656   0.191  0.00  0.00    +0.122 HD
ENDBRANCH  31  13
ENDBRANCH  29  31
TORSDOF 11
