REMARK  Name = 25338464
REMARK  6 active torsions:
REMARK  status: ('A' for Active; 'I' for Inactive)
REMARK    1  A    between atoms: S_1  and  N_6
REMARK    2  A    between atoms: S_1  and  C_17
REMARK    3  A    between atoms: N_5  and  C_16
REMARK    4  A    between atoms: N_6  and  C_11
REMARK    5  A    between atoms: C_12  and  C_15
REMARK    6  A    between atoms: C_18  and  C_22
REMARK                            x       y       z     vdW  Elec       q    Type
REMARK                         _______ _______ _______ _____ _____    ______ ____
ROOT
ATOM      5  N   UNL     1       0.250   1.613  -1.193  0.00  0.00    -0.293 NA
ATOM     11  C   UNL     1      -1.005   1.294   0.745  0.00  0.00    +0.092 C 
ATOM     12  C   UNL     1       1.091   2.195  -0.130  0.00  0.00    +0.147 C 
ATOM     13  C   UNL     1       0.348   1.858   1.178  0.00  0.00    +0.050 C 
ATOM     14  C   UNL     1      -1.132   1.712  -0.712  0.00  0.00    +0.105 C 
ATOM     16  C   UNL     1       0.424   2.267  -2.485  0.00  0.00    +0.105 C 
ENDROOT
BRANCH  12  15
ATOM      2  O   UNL     1       3.494   2.618  -0.254  0.00  0.00    -0.336 OA
ATOM      7  N   UNL     1       2.956   0.454  -0.051  0.00  0.00    -0.190 NA
ATOM      8  N   UNL     1       4.705   1.915  -0.239  0.00  0.00    -0.056 NA
ATOM     15  C   UNL     1       2.515   1.683  -0.138  0.00  0.00    +0.245 A 
ATOM     18  C   UNL     1       4.305   0.646  -0.117  0.00  0.00    +0.202 A 
BRANCH  18  22
ATOM     10  N   UNL     1       7.022  -2.590   0.060  0.00  0.00    -0.263 NA
ATOM     22  C   UNL     1       5.226  -0.451  -0.057  0.00  0.00    +0.025 A 
ATOM     27  C   UNL     1       4.754  -1.753   0.072  0.00  0.00    +0.031 A 
ATOM     28  C   UNL     1       6.595  -0.218  -0.128  0.00  0.00    +0.031 A 
ATOM     30  C   UNL     1       5.685  -2.778   0.126  0.00  0.00    +0.111 A 
ATOM     31  C   UNL     1       7.444  -1.312  -0.065  0.00  0.00    +0.111 A 
ENDBRANCH  18  22
ENDBRANCH  12  15
BRANCH  11   6
ATOM      6  N   UNL     1      -1.052  -0.142   0.886  0.00  0.00    -0.186 NA
ATOM     32  H   UNL     1      -0.524  -0.711   0.213  0.00  0.00    +0.148 HD
BRANCH   6   1
ATOM      1  S   UNL     1      -2.238  -0.855   1.867  0.00  0.00    +0.061 S 
ATOM      3  O   UNL     1      -2.186  -0.270   3.193  0.00  0.00    -0.153 OA
ATOM      4  O   UNL     1      -2.176  -2.295   1.701  0.00  0.00    -0.153 OA
BRANCH   1  17
ATOM      9  N   UNL     1      -3.322  -1.706  -0.785  0.00  0.00    -0.253 NA
ATOM     17  C   UNL     1      -3.730  -0.311   1.091  0.00  0.00    +0.131 A 
ATOM     19  C   UNL     1      -4.101  -0.805  -0.157  0.00  0.00    +0.097 A 
ATOM     20  C   UNL     1      -4.514   0.624   1.770  0.00  0.00    +0.031 A 
ATOM     21  C   UNL     1      -5.302  -0.334  -0.727  0.00  0.00    +0.002 A 
ATOM     23  C   UNL     1      -5.696   1.084   1.203  0.00  0.00    +0.003 A 
ATOM     24  C   UNL     1      -6.091   0.607  -0.043  0.00  0.00    +0.010 A 
ATOM     25  C   UNL     1      -5.676  -0.831  -1.983  0.00  0.00    +0.011 A 
ATOM     26  C   UNL     1      -3.719  -2.161  -1.996  0.00  0.00    +0.111 A 
ATOM     29  C   UNL     1      -4.875  -1.759  -2.633  0.00  0.00    +0.020 A 
ENDBRANCH   1  17
ENDBRANCH   6   1
ENDBRANCH  11   6
TORSDOF 5
