REMARK  Name = 7142399
REMARK  6 active torsions:
REMARK  status: ('A' for Active; 'I' for Inactive)
REMARK    1  A    between atoms: O_4  and  C_20
REMARK    2  A    between atoms: O_4  and  C_26
REMARK    3  A    between atoms: O_5  and  C_29
REMARK    4  A    between atoms: O_5  and  C_30
REMARK    5  A    between atoms: C_17  and  C_20
REMARK    6  A    between atoms: C_21  and  C_23
REMARK                            x       y       z     vdW  Elec       q    Type
REMARK                         _______ _______ _______ _____ _____    ______ ____
ROOT
ATOM      1  O   UNL     1      -3.272  -2.083   0.085  0.00  0.00    -0.273 OA
ATOM      2  O   UNL     1       0.081   1.730   1.556  0.00  0.00    -0.270 OA
ATOM      3  O   UNL     1      -6.134  -0.142  -1.816  0.00  0.00    -0.273 OA
ATOM      6  N   UNL     1      -1.653   0.775   0.358  0.00  0.00    -0.283 N 
ATOM      7  N   UNL     1      -4.448   0.624  -0.411  0.00  0.00    -0.296 N 
ATOM      8  N   UNL     1      -1.008  -2.112   0.313  0.00  0.00    -0.283 N 
ATOM      9  C   UNL     1      -2.080  -0.134  -0.696  0.00  0.00    +0.180 C 
ATOM     10  C   UNL     1      -3.384   0.311  -1.369  0.00  0.00    +0.139 C 
ATOM     11  C   UNL     1      -2.621   1.772   0.817  0.00  0.00    +0.128 C 
ATOM     12  C   UNL     1      -4.035   1.212   0.866  0.00  0.00    +0.127 C 
ATOM     13  C   UNL     1      -2.192  -1.503  -0.044  0.00  0.00    +0.239 C 
ATOM     14  C   UNL     1      -0.337   0.845   0.807  0.00  0.00    +0.249 C 
ATOM     15  C   UNL     1       0.622  -0.214   0.395  0.00  0.00    +0.059 A 
ATOM     16  C   UNL     1       0.296  -1.575   0.277  0.00  0.00    +0.046 A 
ATOM     17  C   UNL     1      -5.776   0.353  -0.745  0.00  0.00    +0.241 C 
ATOM     18  C   UNL     1       1.969   0.182   0.299  0.00  0.00    +0.023 A 
ATOM     19  C   UNL     1       1.333  -2.514   0.136  0.00  0.00    +0.024 A 
ATOM     21  C   UNL     1       2.981  -0.758   0.110  0.00  0.00    -0.017 A 
ATOM     22  C   UNL     1       2.664  -2.108   0.043  0.00  0.00    +0.010 A 
ATOM     31  H   UNL     1      -1.076  -3.102   0.538  0.00  0.00    +0.155 HD
ENDROOT
BRANCH  21  23
ATOM     23  C   UNL     1       4.359  -0.330   0.009  0.00  0.00    -0.018 A 
ATOM     24  C   UNL     1       5.382  -1.164   0.460  0.00  0.00    +0.012 A 
ATOM     25  C   UNL     1       4.664   0.915  -0.538  0.00  0.00    +0.012 A 
ATOM     27  C   UNL     1       6.711  -0.752   0.363  0.00  0.00    +0.046 A 
ATOM     28  C   UNL     1       5.994   1.328  -0.635  0.00  0.00    +0.046 A 
ATOM     29  C   UNL     1       7.017   0.494  -0.185  0.00  0.00    +0.120 A 
BRANCH  29   5
ATOM      5  O   UNL     1       8.314   0.896  -0.280  0.00  0.00    -0.495 OA
ATOM     30  C   UNL     1       8.555   2.181  -0.850  0.00  0.00    +0.277 C 
ENDBRANCH  29   5
ENDBRANCH  21  23
BRANCH  17  20
ATOM     20  C   UNL     1      -6.809   0.707   0.296  0.00  0.00    +0.255 C 
BRANCH  20   4
ATOM      4  O   UNL     1      -8.062   0.388  -0.258  0.00  0.00    -0.374 OA
ATOM     26  C   UNL     1      -9.134   0.679   0.637  0.00  0.00    +0.194 C 
ENDBRANCH  20   4
ENDBRANCH  17  20
TORSDOF 4
