REMARK  Name = 25390802
REMARK  5 active torsions:
REMARK  status: ('A' for Active; 'I' for Inactive)
REMARK    1  A    between atoms: N_5  and  C_11
REMARK    2  A    between atoms: N_6  and  C_12
REMARK    3  A    between atoms: C_16  and  C_17
REMARK    4  A    between atoms: C_18  and  C_22
REMARK    5  A    between atoms: C_27  and  C_30
REMARK                            x       y       z     vdW  Elec       q    Type
REMARK                         _______ _______ _______ _____ _____    ______ ____
ROOT
ATOM      5  N   UNL     1       1.157  -3.427   0.131  0.00  0.00    -0.306 N 
ATOM      7  N   UNL     1      -0.864  -2.376  -0.326  0.00  0.00    -0.214 NA
ATOM      8  N   UNL     1      -0.062  -4.194  -1.691  0.00  0.00    -0.223 NA
ATOM     15  C   UNL     1       0.027  -3.329  -0.663  0.00  0.00    +0.216 A 
ATOM     18  C   UNL     1      -1.950  -2.307  -1.123  0.00  0.00    +0.076 A 
ATOM     20  C   UNL     1      -1.173  -4.068  -2.446  0.00  0.00    +0.116 A 
ATOM     21  C   UNL     1      -2.160  -3.134  -2.207  0.00  0.00    +0.048 A 
ATOM     36  H   UNL     1       1.856  -4.105  -0.149  0.00  0.00    +0.149 HD
ENDROOT
BRANCH   5  11
ATOM      2  O   UNL     1       3.742  -2.743   1.690  0.00  0.00    -0.370 OA
ATOM      3  O   UNL     1       1.857  -0.259   1.805  0.00  0.00    -0.370 OA
ATOM      9  C   UNL     1       2.065  -1.291   0.827  0.00  0.00    +0.171 C 
ATOM     10  C   UNL     1       3.547  -1.614   0.822  0.00  0.00    +0.171 C 
ATOM     11  C   UNL     1       1.409  -2.576   1.274  0.00  0.00    +0.130 C 
ATOM     12  C   UNL     1       4.194  -0.381   1.410  0.00  0.00    +0.130 C 
ATOM     13  C   UNL     1       2.467  -3.197   2.167  0.00  0.00    +0.185 C 
ATOM     14  C   UNL     1       3.124   0.126   2.360  0.00  0.00    +0.185 C 
BRANCH  12   6
ATOM      4  O   UNL     1       6.225   1.647   1.505  0.00  0.00    -0.270 OA
ATOM      6  N   UNL     1       4.488   0.593   0.386  0.00  0.00    -0.303 N 
ATOM     16  C   UNL     1       5.494   1.539   0.524  0.00  0.00    +0.251 C 
ATOM     37  H   UNL     1       3.893   0.601  -0.435  0.00  0.00    +0.149 HD
BRANCH  16  17
ATOM      1  S   UNL     1       6.871   3.688  -0.524  0.00  0.00    -0.092 S 
ATOM     17  C   UNL     1       5.654   2.487  -0.608  0.00  0.00    +0.074 A 
ATOM     19  C   UNL     1       4.937   2.559  -1.783  0.00  0.00    +0.021 A 
ATOM     23  C   UNL     1       5.394   3.614  -2.624  0.00  0.00    +0.008 A 
ATOM     24  C   UNL     1       6.442   4.308  -2.061  0.00  0.00    +0.046 A 
ENDBRANCH  16  17
ENDBRANCH  12   6
ENDBRANCH   5  11
BRANCH  18  22
ATOM     22  C   UNL     1      -2.908  -1.288  -0.766  0.00  0.00    +0.001 A 
ATOM     25  C   UNL     1      -4.217  -1.643  -0.440  0.00  0.00    +0.010 A 
ATOM     26  C   UNL     1      -2.525   0.054  -0.749  0.00  0.00    +0.010 A 
ATOM     27  C   UNL     1      -4.760   0.683  -0.081  0.00  0.00    -0.018 A 
ATOM     28  C   UNL     1      -5.143  -0.658  -0.098  0.00  0.00    +0.009 A 
ATOM     29  C   UNL     1      -3.451   1.039  -0.407  0.00  0.00    +0.009 A 
BRANCH  27  30
ATOM     30  C   UNL     1      -5.720   1.706   0.274  0.00  0.00    -0.018 A 
ATOM     31  C   UNL     1      -6.501   2.303  -0.716  0.00  0.00    +0.008 A 
ATOM     32  C   UNL     1      -5.866   2.094   1.606  0.00  0.00    +0.008 A 
ATOM     33  C   UNL     1      -7.428   3.288  -0.374  0.00  0.00    +0.001 A 
ATOM     34  C   UNL     1      -6.793   3.079   1.948  0.00  0.00    +0.001 A 
ATOM     35  C   UNL     1      -7.573   3.676   0.958  0.00  0.00    +0.000 A 
ENDBRANCH  27  30
ENDBRANCH  18  22
TORSDOF 5
