REMARK  Name = 40779523
REMARK  12 active torsions:
REMARK  status: ('A' for Active; 'I' for Inactive)
REMARK    1  A    between atoms: O_2  and  C_28
REMARK    2  A    between atoms: O_2  and  C_34
REMARK    3  A    between atoms: O_3  and  C_30
REMARK    4  A    between atoms: O_3  and  C_35
REMARK    5  A    between atoms: O_4  and  C_33
REMARK    6  A    between atoms: O_4  and  C_36
REMARK    7  A    between atoms: N_6  and  C_20
REMARK    8  A    between atoms: N_7  and  C_17
REMARK    9  A    between atoms: C_10  and  C_16
REMARK   10  A    between atoms: C_11  and  C_17
REMARK   11  A    between atoms: C_19  and  C_22
REMARK   12  A    between atoms: C_21  and  C_23
REMARK                            x       y       z     vdW  Elec       q    Type
REMARK                         _______ _______ _______ _____ _____    ______ ____
ROOT
ATOM      5  N   UNL     1       0.617   4.601   0.719  0.00  0.00    -0.297 NA
ATOM      9  C   UNL     1      -0.309   3.553  -1.478  0.00  0.00    +0.002 C 
ATOM     10  C   UNL     1      -1.416   3.600  -0.389  0.00  0.00    +0.055 C 
ATOM     11  C   UNL     1       1.534   3.533   0.240  0.00  0.00    +0.074 C 
ATOM     12  C   UNL     1       0.902   2.762  -0.940  0.00  0.00    +0.024 C 
ATOM     13  C   UNL     1       0.161   5.007  -1.699  0.00  0.00    +0.019 C 
ATOM     14  C   UNL     1      -0.741   4.045   0.940  0.00  0.00    +0.094 C 
ATOM     15  C   UNL     1       0.528   5.633  -0.343  0.00  0.00    +0.085 C 
ENDROOT
BRANCH  10  16
ATOM      6  N   UNL     1      -3.594   2.444   0.211  0.00  0.00    -0.270 N 
ATOM      8  N   UNL     1      -4.199   1.248   0.309  0.00  0.00    -0.171 NA
ATOM     16  C   UNL     1      -2.297   2.373  -0.207  0.00  0.00    +0.044 A 
ATOM     18  C   UNL     1      -2.036   1.038  -0.394  0.00  0.00    +0.053 A 
ATOM     19  C   UNL     1      -3.243   0.393  -0.062  0.00  0.00    +0.093 A 
ATOM     20  C   UNL     1      -4.335   3.639   0.543  0.00  0.00    +0.172 C 
BRANCH  19  22
ATOM     22  C   UNL     1      -3.498  -1.024  -0.090  0.00  0.00    +0.006 A 
ATOM     24  C   UNL     1      -2.460  -1.925   0.146  0.00  0.00    +0.059 A 
ATOM     25  C   UNL     1      -4.784  -1.495  -0.355  0.00  0.00    +0.014 A 
ATOM     28  C   UNL     1      -2.707  -3.297   0.117  0.00  0.00    +0.162 A 
ATOM     29  C   UNL     1      -5.031  -2.868  -0.383  0.00  0.00    +0.050 A 
ATOM     30  C   UNL     1      -3.993  -3.769  -0.147  0.00  0.00    +0.162 A 
BRANCH  28   2
ATOM      2  O   UNL     1      -1.685  -4.168   0.349  0.00  0.00    -0.491 OA
ATOM     34  C   UNL     1      -0.401  -3.604   0.612  0.00  0.00    +0.277 C 
ENDBRANCH  28   2
BRANCH  30   3
ATOM      3  O   UNL     1      -4.247  -5.107  -0.177  0.00  0.00    -0.491 OA
ATOM     35  C   UNL     1      -5.588  -5.505  -0.454  0.00  0.00    +0.277 C 
ENDBRANCH  30   3
ENDBRANCH  19  22
ENDBRANCH  10  16
BRANCH  11  17
ATOM     17  C   UNL     1       1.973   2.594   1.365  0.00  0.00    +0.123 C 
BRANCH  17   7
ATOM      1  O   UNL     1       1.725  -0.267   1.369  0.00  0.00    -0.270 OA
ATOM      7  N   UNL     1       2.941   1.652   0.895  0.00  0.00    -0.310 N 
ATOM     21  C   UNL     1       2.739   0.274   0.934  0.00  0.00    +0.244 C 
ATOM     37  H   UNL     1       3.837   2.028   0.604  0.00  0.00    +0.149 HD
BRANCH  21  23
ATOM     23  C   UNL     1       3.853  -0.571   0.432  0.00  0.00    +0.037 A 
ATOM     26  C   UNL     1       4.017  -1.869   0.916  0.00  0.00    +0.016 A 
ATOM     27  C   UNL     1       4.736  -0.066  -0.522  0.00  0.00    +0.016 A 
ATOM     31  C   UNL     1       5.063  -2.662   0.445  0.00  0.00    +0.046 A 
ATOM     32  C   UNL     1       5.783  -0.858  -0.993  0.00  0.00    +0.046 A 
ATOM     33  C   UNL     1       5.946  -2.157  -0.509  0.00  0.00    +0.120 A 
BRANCH  33   4
ATOM      4  O   UNL     1       6.968  -2.930  -0.969  0.00  0.00    -0.495 OA
ATOM     36  C   UNL     1       7.076  -4.248  -0.432  0.00  0.00    +0.277 C 
ENDBRANCH  33   4
ENDBRANCH  21  23
ENDBRANCH  17   7
ENDBRANCH  11  17
TORSDOF 8
