REMARK  Name = 11884020
REMARK  7 active torsions:
REMARK  status: ('A' for Active; 'I' for Inactive)
REMARK    1  A    between atoms: O_3  and  C_13
REMARK    2  A    between atoms: O_3  and  C_17
REMARK    3  A    between atoms: O_7  and  C_27
REMARK    4  A    between atoms: O_7  and  C_28
REMARK    5  A    between atoms: N_8  and  C_12
REMARK    6  A    between atoms: N_9  and  C_20
REMARK    7  A    between atoms: C_16  and  C_18
REMARK                            x       y       z     vdW  Elec       q    Type
REMARK                         _______ _______ _______ _____ _____    ______ ____
ROOT
ATOM      3  O   UNL     1      -0.468   2.145  -0.075  0.00  0.00    -0.442 OA
ENDROOT
BRANCH   3  13
ATOM      1  O   UNL     1      -2.844   1.430   1.168  0.00  0.00    -0.368 OA
ATOM      2  O   UNL     1      -3.713   2.679  -1.494  0.00  0.00    -0.368 OA
ATOM     10  C   UNL     1      -3.892   1.352  -0.958  0.00  0.00    +0.173 C 
ATOM     11  C   UNL     1      -2.629   1.014  -0.191  0.00  0.00    +0.192 C 
ATOM     12  C   UNL     1      -4.968   1.361   0.103  0.00  0.00    +0.130 C 
ATOM     13  C   UNL     1      -1.591   1.867  -0.879  0.00  0.00    +0.235 C 
ATOM     14  C   UNL     1      -4.210   1.844   1.327  0.00  0.00    +0.185 C 
ATOM     15  C   UNL     1      -2.375   3.116  -1.214  0.00  0.00    +0.207 C 
BRANCH  12   8
ATOM      4  O   UNL     1      -7.285   0.321  -1.125  0.00  0.00    -0.267 OA
ATOM      8  N   UNL     1      -5.512   0.041   0.309  0.00  0.00    -0.301 N 
ATOM     16  C   UNL     1      -6.666  -0.399  -0.339  0.00  0.00    +0.280 C 
ATOM     34  H   UNL     1      -5.006  -0.605   0.909  0.00  0.00    +0.150 HD
BRANCH  16  18
ATOM      6  O   UNL     1      -6.311  -2.504   0.808  0.00  0.00    -0.458 OA
ATOM     18  C   UNL     1      -7.076  -1.780  -0.051  0.00  0.00    +0.189 A 
ATOM     19  C   UNL     1      -8.138  -2.530  -0.501  0.00  0.00    +0.054 A 
ATOM     21  C   UNL     1      -8.018  -3.795   0.121  0.00  0.00    +0.042 A 
ATOM     22  C   UNL     1      -6.892  -3.729   0.907  0.00  0.00    +0.196 A 
ENDBRANCH  16  18
ENDBRANCH  12   8
ENDBRANCH   3  13
BRANCH   3  17
ATOM      5  O   UNL     1       0.614   0.332  -0.952  0.00  0.00    -0.226 OA
ATOM      9  N   UNL     1       1.620   1.703   0.657  0.00  0.00    -0.251 N 
ATOM     17  C   UNL     1       0.610   1.292  -0.192  0.00  0.00    +0.405 C 
ATOM     35  H   UNL     1       1.429   2.532   1.214  0.00  0.00    +0.158 HD
BRANCH   9  20
ATOM     20  C   UNL     1       2.890   1.113   0.848  0.00  0.00    +0.037 A 
ATOM     23  C   UNL     1       3.788   1.672   1.757  0.00  0.00    +0.027 A 
ATOM     24  C   UNL     1       3.244  -0.028   0.129  0.00  0.00    +0.027 A 
ATOM     25  C   UNL     1       5.042   1.089   1.947  0.00  0.00    +0.048 A 
ATOM     26  C   UNL     1       4.497  -0.611   0.319  0.00  0.00    +0.048 A 
ATOM     27  C   UNL     1       5.396  -0.052   1.228  0.00  0.00    +0.129 A 
BRANCH  27   7
ATOM      7  O   UNL     1       6.618  -0.622   1.414  0.00  0.00    -0.456 OA
BRANCH   7  28
ATOM     28  C   UNL     1       7.329  -1.003   0.289  0.00  0.00    +0.128 A 
ATOM     29  C   UNL     1       7.416  -0.143  -0.806  0.00  0.00    +0.046 A 
ATOM     30  C   UNL     1       7.957  -2.248   0.249  0.00  0.00    +0.046 A 
ATOM     31  C   UNL     1       8.132  -0.527  -1.940  0.00  0.00    +0.004 A 
ATOM     32  C   UNL     1       8.673  -2.632  -0.885  0.00  0.00    +0.004 A 
ATOM     33  C   UNL     1       8.761  -1.771  -1.979  0.00  0.00    +0.000 A 
ENDBRANCH   7  28
ENDBRANCH  27   7
ENDBRANCH   9  20
ENDBRANCH   3  17
TORSDOF 7
