REMARK  Name = 75366995
REMARK  13 active torsions:
REMARK  status: ('A' for Active; 'I' for Inactive)
REMARK    1  A    between atoms: O_2  and  C_9
REMARK    2  A    between atoms: O_5  and  C_24
REMARK    3  A    between atoms: O_5  and  C_25
REMARK    4  A    between atoms: N_6  and  C_13
REMARK    5  A    between atoms: C_8  and  C_13
REMARK    6  A    between atoms: C_10  and  C_14
REMARK    7  A    between atoms: C_14  and  C_15
REMARK    8  A    between atoms: C_16  and  C_17
REMARK    9  A    between atoms: C_16  and  C_18
REMARK   10  A    between atoms: C_16  and  C_19
REMARK   11  A    between atoms: C_18  and  C_22
REMARK   12  A    between atoms: C_19  and  C_23
REMARK   13  A    between atoms: C_21  and  C_24
REMARK                            x       y       z     vdW  Elec       q    Type
REMARK                         _______ _______ _______ _____ _____    ______ ____
ROOT
ATOM      1  O   UNL     1       3.126  -0.443   0.629  0.00  0.00    -0.369 OA
ATOM      8  C   UNL     1       3.700   0.806   0.220  0.00  0.00    +0.164 C 
ATOM      9  C   UNL     1       5.214   0.680   0.004  0.00  0.00    +0.145 C 
ATOM     10  C   UNL     1       3.378  -1.544  -0.246  0.00  0.00    +0.125 C 
ATOM     11  C   UNL     1       5.578  -0.511  -0.878  0.00  0.00    +0.036 C 
ATOM     12  C   UNL     1       4.880  -1.780  -0.397  0.00  0.00    +0.034 C 
ENDROOT
BRANCH   9   2
ATOM      2  O   UNL     1       5.847   0.493   1.273  0.00  0.00    -0.389 OA
ATOM     32  H   UNL     1       6.807   0.463   1.121  0.00  0.00    +0.210 HD
ENDBRANCH   9   2
BRANCH   8  13
ATOM     13  C   UNL     1       2.970   1.375  -0.994  0.00  0.00    +0.138 C 
BRANCH  13   6
ATOM      4  O   UNL     1       1.566   3.624   0.114  0.00  0.00    -0.276 OA
ATOM      6  N   UNL     1       1.549   1.476  -0.757  0.00  0.00    -0.313 N 
ATOM     17  C   UNL     1       0.958   2.608  -0.215  0.00  0.00    +0.216 C 
ATOM     31  H   UNL     1       0.974   0.668  -0.979  0.00  0.00    +0.149 HD
BRANCH  17  16
ATOM     16  C   UNL     1      -0.558   2.456  -0.049  0.00  0.00    +0.074 C 
BRANCH  16  18
ATOM     18  C   UNL     1      -0.878   1.768   1.294  0.00  0.00    +0.009 C 
ATOM     22  C   UNL     1      -0.461   2.556   2.529  0.00  0.00    +0.004 C 
ENDBRANCH  16  18
BRANCH  16  19
ATOM     19  C   UNL     1      -1.296   3.798  -0.199  0.00  0.00    +0.009 C 
ATOM     23  C   UNL     1      -1.032   4.459  -1.547  0.00  0.00    +0.004 C 
ENDBRANCH  16  19
ENDBRANCH  17  16
ENDBRANCH  13   6
ENDBRANCH   8  13
BRANCH  10  14
ATOM     14  C   UNL     1       2.694  -2.769   0.349  0.00  0.00    +0.090 C 
BRANCH  14  15
ATOM      3  O   UNL     1      -0.651  -3.147  -0.938  0.00  0.00    -0.356 OA
ATOM      7  N   UNL     1       0.724  -3.331  -1.014  0.00  0.00    -0.083 NA
ATOM     15  C   UNL     1       1.211  -2.759   0.091  0.00  0.00    +0.086 A 
ATOM     20  C   UNL     1       0.200  -2.203   0.894  0.00  0.00    +0.074 A 
ATOM     21  C   UNL     1      -0.951  -2.474   0.202  0.00  0.00    +0.175 A 
BRANCH  21  24
ATOM     24  C   UNL     1      -2.371  -2.193   0.443  0.00  0.00    +0.306 C 
BRANCH  24   5
ATOM      5  O   UNL     1      -2.817  -1.131  -0.404  0.00  0.00    -0.484 OA
BRANCH   5  25
ATOM     25  C   UNL     1      -4.110  -0.721  -0.237  0.00  0.00    +0.121 A 
ATOM     26  C   UNL     1      -4.918  -1.333   0.720  0.00  0.00    +0.045 A 
ATOM     27  C   UNL     1      -4.622   0.310  -1.025  0.00  0.00    +0.045 A 
ATOM     28  C   UNL     1      -6.238  -0.915   0.890  0.00  0.00    +0.004 A 
ATOM     29  C   UNL     1      -5.941   0.729  -0.855  0.00  0.00    +0.004 A 
ATOM     30  C   UNL     1      -6.750   0.116   0.103  0.00  0.00    +0.000 A 
ENDBRANCH   5  25
ENDBRANCH  24   5
ENDBRANCH  21  24
ENDBRANCH  14  15
ENDBRANCH  10  14
TORSDOF 11
