REMARK  Name = 51137845
REMARK  3 active torsions:
REMARK  status: ('A' for Active; 'I' for Inactive)
REMARK    1  A    between atoms: C_8  and  C_12
REMARK    2  A    between atoms: C_13  and  C_14
REMARK    3  A    between atoms: C_15  and  C_18
REMARK                            x       y       z     vdW  Elec       q    Type
REMARK                         _______ _______ _______ _____ _____    ______ ____
ROOT
ATOM      2  O   UNL     1       2.573  -0.037   2.483  0.00  0.00    -0.270 OA
ATOM      3  N   UNL     1       1.772   1.325   0.780  0.00  0.00    -0.297 N 
ATOM      8  C   UNL     1       0.397   2.683  -0.608  0.00  0.00    +0.095 C 
ATOM      9  C   UNL     1       0.648   3.399   0.729  0.00  0.00    +0.033 C 
ATOM     10  C   UNL     1       1.524   1.641  -0.627  0.00  0.00    +0.121 C 
ATOM     11  C   UNL     1       1.121   2.287   1.656  0.00  0.00    +0.109 C 
ATOM     13  C   UNL     1       2.452   0.229   1.289  0.00  0.00    +0.247 C 
ENDROOT
BRANCH  13  14
ATOM      6  N   UNL     1       4.230  -2.457  -1.509  0.00  0.00    -0.263 NA
ATOM     14  C   UNL     1       3.065  -0.697   0.324  0.00  0.00    +0.040 A 
ATOM     16  C   UNL     1       4.033  -0.241  -0.563  0.00  0.00    +0.033 A 
ATOM     17  C   UNL     1       2.679  -2.033   0.296  0.00  0.00    +0.033 A 
ATOM     19  C   UNL     1       4.580  -1.152  -1.452  0.00  0.00    +0.111 A 
ATOM     20  C   UNL     1       3.286  -2.864  -0.631  0.00  0.00    +0.111 A 
ENDBRANCH  13  14
BRANCH   8  12
ATOM      1  O   UNL     1      -1.233   0.881  -0.252  0.00  0.00    -0.420 OA
ATOM      4  N   UNL     1      -2.107   2.733  -1.155  0.00  0.00    -0.112 NA
ATOM      5  N   UNL     1      -3.123   1.807  -1.010  0.00  0.00    -0.107 NA
ATOM     12  C   UNL     1      -1.022   2.150  -0.700  0.00  0.00    +0.222 A 
ATOM     15  C   UNL     1      -2.567   0.743  -0.480  0.00  0.00    +0.250 A 
BRANCH  15  18
ATOM      7  N   UNL     1      -5.090  -1.941   0.031  0.00  0.00    -0.263 NA
ATOM     18  C   UNL     1      -3.139  -0.520  -0.111  0.00  0.00    +0.057 A 
ATOM     21  C   UNL     1      -2.356  -1.526   0.445  0.00  0.00    +0.016 A 
ATOM     22  C   UNL     1      -4.488  -0.775  -0.295  0.00  0.00    +0.124 A 
ATOM     23  C   UNL     1      -2.939  -2.740   0.793  0.00  0.00    +0.020 A 
ATOM     24  C   UNL     1      -4.297  -2.895   0.569  0.00  0.00    +0.111 A 
ENDBRANCH  15  18
ENDBRANCH   8  12
TORSDOF 3
