REMARK  Name = 38028361
REMARK  11 active torsions:
REMARK  status: ('A' for Active; 'I' for Inactive)
REMARK    1  A    between atoms: N_4  and  C_14
REMARK    2  A    between atoms: N_5  and  C_21
REMARK    3  A    between atoms: C_7  and  C_11
REMARK    4  A    between atoms: C_8  and  C_14
REMARK    5  A    between atoms: C_10  and  C_15
REMARK    6  A    between atoms: C_11  and  C_16
REMARK    7  A    between atoms: C_11  and  C_17
REMARK    8  A    between atoms: C_12  and  C_18
REMARK    9  A    between atoms: C_15  and  C_19
REMARK   10  A    between atoms: C_20  and  C_22
REMARK   11  A    between atoms: C_21  and  C_23
REMARK                            x       y       z     vdW  Elec       q    Type
REMARK                         _______ _______ _______ _____ _____    ______ ____
ROOT
ATOM      7  C   UNL     1      -0.469   2.117  -0.892  0.00  0.00    +0.000 C 
ATOM      8  C   UNL     1       0.704   3.125  -0.975  0.00  0.00    +0.032 C 
ATOM      9  C   UNL     1      -1.438   2.513   0.233  0.00  0.00    +0.012 C 
ATOM     10  C   UNL     1      -0.743   2.568   1.607  0.00  0.00    +0.023 C 
ATOM     12  C   UNL     1       0.568   3.326   1.545  0.00  0.00    -0.073 C 
ATOM     13  C   UNL     1       1.193   3.576   0.381  0.00  0.00    -0.022 C 
ATOM     18  C   UNL     1       1.122   3.828   2.849  0.00  0.00    +0.039 C 
ENDROOT
BRANCH   7  11
ATOM     11  C   UNL     1      -1.229   2.016  -2.218  0.00  0.00    -0.013 C 
ATOM     16  C   UNL     1      -1.937   0.669  -2.326  0.00  0.00    +0.007 C 
ATOM     17  C   UNL     1      -2.225   3.164  -2.349  0.00  0.00    +0.007 C 
ENDBRANCH   7  11
BRANCH   8  14
ATOM     14  C   UNL     1       1.876   2.544  -1.774  0.00  0.00    +0.112 C 
BRANCH  14   4
ATOM      3  O   UNL     1       2.078  -0.146  -2.757  0.00  0.00    -0.270 OA
ATOM      4  N   UNL     1       2.451   1.427  -1.092  0.00  0.00    -0.311 N 
ATOM     20  C   UNL     1       2.508   0.148  -1.645  0.00  0.00    +0.244 C 
ATOM     33  H   UNL     1       2.820   1.595  -0.163  0.00  0.00    +0.149 HD
BRANCH  20  22
ATOM      1  F   UNL     1       4.797  -3.856   1.557  0.00  0.00    -0.205 F 
ATOM     22  C   UNL     1       3.113  -0.911  -0.797  0.00  0.00    +0.037 A 
ATOM     24  C   UNL     1       2.736  -2.243  -0.970  0.00  0.00    +0.016 A 
ATOM     25  C   UNL     1       4.059  -0.575   0.171  0.00  0.00    +0.016 A 
ATOM     26  C   UNL     1       3.304  -3.238  -0.175  0.00  0.00    +0.039 A 
ATOM     27  C   UNL     1       4.628  -1.569   0.966  0.00  0.00    +0.039 A 
ATOM     29  C   UNL     1       4.250  -2.901   0.793  0.00  0.00    +0.123 A 
ENDBRANCH  20  22
ENDBRANCH  14   4
ENDBRANCH   8  14
BRANCH  10  15
ATOM     15  C   UNL     1      -0.538   1.162   2.180  0.00  0.00    +0.103 C 
BRANCH  15  19
ATOM      2  O   UNL     1      -2.932   0.890   2.398  0.00  0.00    -0.276 OA
ATOM      5  N   UNL     1      -1.592  -0.982   2.077  0.00  0.00    -0.310 N 
ATOM     19  C   UNL     1      -1.828   0.376   2.234  0.00  0.00    +0.214 C 
ATOM     34  H   UNL     1      -0.640  -1.312   1.945  0.00  0.00    +0.149 HD
BRANCH   5  21
ATOM     21  C   UNL     1      -2.643  -1.973   2.089  0.00  0.00    +0.159 C 
BRANCH  21  23
ATOM      6  N   UNL     1      -4.475  -2.025   0.495  0.00  0.00    -0.258 NA
ATOM     23  C   UNL     1      -3.161  -2.259   0.710  0.00  0.00    +0.058 A 
ATOM     28  C   UNL     1      -2.291  -2.737  -0.257  0.00  0.00    +0.025 A 
ATOM     30  C   UNL     1      -2.802  -2.990  -1.525  0.00  0.00    +0.003 A 
ATOM     31  C   UNL     1      -4.936  -2.283  -0.749  0.00  0.00    +0.111 A 
ATOM     32  C   UNL     1      -4.149  -2.762  -1.784  0.00  0.00    +0.020 A 
ENDBRANCH  21  23
ENDBRANCH   5  21
ENDBRANCH  15  19
ENDBRANCH  10  15
TORSDOF 8
