REMARK  Name = 40777469
REMARK  10 active torsions:
REMARK  status: ('A' for Active; 'I' for Inactive)
REMARK    1  A    between atoms: N_8  and  C_25
REMARK    2  A    between atoms: N_8  and  C_27
REMARK    3  A    between atoms: N_8  and  C_28
REMARK    4  A    between atoms: C_9  and  C_13
REMARK    5  A    between atoms: C_10  and  C_15
REMARK    6  A    between atoms: C_13  and  C_16
REMARK    7  A    between atoms: C_15  and  C_17
REMARK    8  A    between atoms: C_23  and  C_25
REMARK    9  A    between atoms: C_24  and  C_26
REMARK   10  A    between atoms: C_27  and  C_29
REMARK                            x       y       z     vdW  Elec       q    Type
REMARK                         _______ _______ _______ _____ _____    ______ ____
ROOT
ATOM      4  N   UNL     1      -0.735   2.635   0.359  0.00  0.00    -0.316 NA
ATOM      9  C   UNL     1       1.336   1.208  -1.183  0.00  0.00    +0.004 C 
ATOM     10  C   UNL     1      -0.016   0.560  -0.798  0.00  0.00    +0.012 C 
ATOM     11  C   UNL     1       1.170   2.736  -1.210  0.00  0.00    +0.019 C 
ATOM     12  C   UNL     1      -0.601   1.183   0.480  0.00  0.00    +0.085 C 
ATOM     14  C   UNL     1       0.546   3.278   0.076  0.00  0.00    +0.081 C 
ATOM     35  H   UNL     1      -1.118   3.012   1.226  0.00  0.00    +0.122 HD
ENDROOT
BRANCH   9  13
ATOM     13  C   UNL     1       2.503   0.801  -0.276  0.00  0.00    +0.100 C 
BRANCH  13  16
ATOM      1  O   UNL     1       3.804   1.469  -2.140  0.00  0.00    -0.276 OA
ATOM      3  O   UNL     1       8.365  -1.414   2.547  0.00  0.00    -0.276 OA
ATOM      5  N   UNL     1       4.971   0.743  -0.268  0.00  0.00    -0.298 N 
ATOM      6  N   UNL     1       7.196  -0.750   0.654  0.00  0.00    -0.299 N 
ATOM     16  C   UNL     1       3.813   1.038  -0.985  0.00  0.00    +0.216 C 
ATOM     18  C   UNL     1       6.284   0.942  -0.887  0.00  0.00    +0.126 C 
ATOM     19  C   UNL     1       5.018   0.300   1.131  0.00  0.00    +0.126 C 
ATOM     20  C   UNL     1       7.149  -0.307  -0.746  0.00  0.00    +0.126 C 
ATOM     21  C   UNL     1       5.883  -0.950   1.272  0.00  0.00    +0.126 C 
ATOM     24  C   UNL     1       8.354  -1.043   1.371  0.00  0.00    +0.213 C 
ATOM     26  C   UNL     1       9.661  -0.884   0.635  0.00  0.00    +0.109 C 
ENDBRANCH  13  16
ENDBRANCH   9  13
BRANCH  10  15
ATOM     15  C   UNL     1       0.066  -0.962  -0.666  0.00  0.00    +0.064 C 
BRANCH  15  17
ATOM      2  O   UNL     1      -2.968  -2.512  -1.830  0.00  0.00    -0.358 OA
ATOM      7  N   UNL     1      -1.706  -1.969  -2.038  0.00  0.00    -0.083 NA
ATOM     17  C   UNL     1      -1.285  -1.597  -0.826  0.00  0.00    +0.084 A 
ATOM     22  C   UNL     1      -2.230  -1.878   0.176  0.00  0.00    +0.072 A 
ATOM     23  C   UNL     1      -3.269  -2.452  -0.508  0.00  0.00    +0.151 A 
BRANCH  23  25
ATOM     25  C   UNL     1      -4.576  -2.988  -0.108  0.00  0.00    +0.161 C 
BRANCH  25   8
ATOM      8  N   UNL     1      -5.423  -2.004   0.537  0.00  0.00    -0.294 NA
ATOM     28  C   UNL     1      -6.477  -2.655   1.322  0.00  0.00    +0.105 C 
BRANCH   8  27
ATOM     27  C   UNL     1      -6.021  -1.099  -0.451  0.00  0.00    +0.119 C 
BRANCH  27  29
ATOM     29  C   UNL     1      -6.426   0.211   0.159  0.00  0.00    -0.033 A 
ATOM     30  C   UNL     1      -7.706   0.367   0.690  0.00  0.00    +0.005 A 
ATOM     31  C   UNL     1      -5.522   1.272   0.196  0.00  0.00    +0.005 A 
ATOM     32  C   UNL     1      -8.082   1.585   1.257  0.00  0.00    +0.000 A 
ATOM     33  C   UNL     1      -5.898   2.490   0.763  0.00  0.00    +0.000 A 
ATOM     34  C   UNL     1      -7.178   2.646   1.294  0.00  0.00    +0.000 A 
ENDBRANCH  27  29
ENDBRANCH   8  27
ENDBRANCH  25   8
ENDBRANCH  23  25
ENDBRANCH  15  17
ENDBRANCH  10  15
TORSDOF 8
