REMARK  Name = 45783523
REMARK  6 active torsions:
REMARK  status: ('A' for Active; 'I' for Inactive)
REMARK    1  A    between atoms: N_4  and  C_14
REMARK    2  A    between atoms: N_9  and  C_26
REMARK    3  A    between atoms: C_10  and  C_15
REMARK    4  A    between atoms: C_14  and  C_16
REMARK    5  A    between atoms: C_17  and  C_20
REMARK    6  A    between atoms: C_32  and  C_33
REMARK                            x       y       z     vdW  Elec       q    Type
REMARK                         _______ _______ _______ _____ _____    ______ ____
ROOT
ATOM      4  N   UNL     1      -4.553  -0.488  -0.959  0.00  0.00    -0.287 NA
ATOM     10  C   UNL     1      -4.339  -1.445   0.145  0.00  0.00    +0.146 C 
ATOM     11  C   UNL     1      -4.863  -2.788  -0.396  0.00  0.00    +0.030 C 
ATOM     12  C   UNL     1      -5.406  -2.474  -1.783  0.00  0.00    +0.017 C 
ATOM     13  C   UNL     1      -5.694  -0.988  -1.725  0.00  0.00    +0.085 C 
ENDROOT
BRANCH  10  15
ATOM      1  O   UNL     1      -2.665  -1.875   1.873  0.00  0.00    -0.336 OA
ATOM      5  N   UNL     1      -1.803  -1.279  -0.107  0.00  0.00    -0.190 NA
ATOM      6  N   UNL     1      -1.274  -1.871   2.039  0.00  0.00    -0.056 NA
ATOM     15  C   UNL     1      -2.891  -1.516   0.582  0.00  0.00    +0.245 A 
ATOM     17  C   UNL     1      -0.837  -1.510   0.829  0.00  0.00    +0.204 A 
BRANCH  17  20
ATOM      2  O   UNL     1       7.360  -0.639  -0.588  0.00  0.00    -0.377 OA
ATOM      7  N   UNL     1       4.590  -0.998  -0.275  0.00  0.00    -0.311 N 
ATOM      8  N   UNL     1       2.857  -1.495   1.258  0.00  0.00    -0.240 NA
ATOM     20  C   UNL     1       0.557  -1.371   0.521  0.00  0.00    +0.041 A 
ATOM     21  C   UNL     1       5.537  -1.845   0.463  0.00  0.00    +0.134 C 
ATOM     22  C   UNL     1       5.124   0.294  -0.720  0.00  0.00    +0.134 C 
ATOM     25  C   UNL     1       3.227  -1.128   0.011  0.00  0.00    +0.121 A 
ATOM     27  C   UNL     1       6.849  -1.942  -0.308  0.00  0.00    +0.178 C 
ATOM     28  C   UNL     1       6.459   0.084  -1.427  0.00  0.00    +0.178 C 
ATOM     29  C   UNL     1       0.977  -0.995  -0.750  0.00  0.00    +0.016 A 
ATOM     30  C   UNL     1       2.336  -0.869  -1.018  0.00  0.00    +0.044 A 
ATOM     31  C   UNL     1       1.528  -1.608   1.482  0.00  0.00    +0.124 A 
ENDBRANCH  17  20
ENDBRANCH  10  15
BRANCH   4  14
ATOM     14  C   UNL     1      -4.756   0.881  -0.500  0.00  0.00    +0.120 C 
BRANCH  14  16
ATOM     16  C   UNL     1      -3.456   1.555  -0.152  0.00  0.00    -0.033 A 
ATOM     18  C   UNL     1      -3.251   2.052   1.135  0.00  0.00    +0.007 A 
ATOM     19  C   UNL     1      -2.456   1.683  -1.117  0.00  0.00    +0.007 A 
ATOM     23  C   UNL     1      -2.047   2.678   1.458  0.00  0.00    +0.023 A 
ATOM     24  C   UNL     1      -1.252   2.308  -0.794  0.00  0.00    +0.023 A 
ATOM     26  C   UNL     1      -1.048   2.806   0.493  0.00  0.00    +0.033 A 
BRANCH  26   9
ATOM      3  O   UNL     1       1.392   3.335  -1.191  0.00  0.00    -0.276 OA
ATOM      9  N   UNL     1       0.157   3.432   0.815  0.00  0.00    -0.286 N 
ATOM     32  C   UNL     1       1.266   3.651  -0.012  0.00  0.00    +0.214 C 
ATOM     33  C   UNL     1       2.376   4.365   0.718  0.00  0.00    +0.109 C 
ATOM     34  H   UNL     1       0.230   3.766   1.774  0.00  0.00    +0.155 HD
ENDBRANCH  26   9
ENDBRANCH  14  16
ENDBRANCH   4  14
TORSDOF 5
