REMARK  Name = 45784224
REMARK  5 active torsions:
REMARK  status: ('A' for Active; 'I' for Inactive)
REMARK    1  A    between atoms: N_1  and  C_9
REMARK    2  A    between atoms: N_4  and  C_21
REMARK    3  A    between atoms: C_5  and  C_10
REMARK    4  A    between atoms: C_9  and  C_11
REMARK    5  A    between atoms: C_22  and  C_26
REMARK                            x       y       z     vdW  Elec       q    Type
REMARK                         _______ _______ _______ _____ _____    ______ ____
ROOT
ATOM      1  N   UNL     1      -1.017   0.130  -0.041  0.00  0.00    -0.297 NA
ATOM      5  C   UNL     1       1.146  -0.409   0.688  0.00  0.00    +0.070 C 
ATOM      6  C   UNL     1       0.261  -0.358  -0.565  0.00  0.00    +0.096 C 
ATOM      7  C   UNL     1       0.519   0.614   1.650  0.00  0.00    +0.028 C 
ATOM      8  C   UNL     1      -0.659   1.204   0.886  0.00  0.00    +0.085 C 
ENDROOT
BRANCH   5  10
ATOM      2  N   UNL     1       3.550  -1.131   0.676  0.00  0.00    -0.342 N 
ATOM      3  N   UNL     1       3.142   0.887  -0.163  0.00  0.00    -0.232 NA
ATOM     10  C   UNL     1       2.609  -0.182   0.385  0.00  0.00    +0.113 A 
ATOM     13  C   UNL     1       4.771  -0.641   0.289  0.00  0.00    +0.066 A 
ATOM     15  C   UNL     1       4.490   0.619  -0.231  0.00  0.00    +0.089 A 
ATOM     18  C   UNL     1       6.059  -1.176   0.348  0.00  0.00    +0.031 A 
ATOM     19  C   UNL     1       5.543   1.407  -0.727  0.00  0.00    +0.030 A 
ATOM     22  C   UNL     1       7.095  -0.378  -0.150  0.00  0.00    -0.048 A 
ATOM     24  C   UNL     1       6.844   0.890  -0.678  0.00  0.00    +0.005 A 
ATOM     26  C   UNL     1       8.496  -0.895  -0.115  0.00  0.00    +0.044 C 
ATOM     27  H   UNL     1       3.380  -2.033   1.100  0.00  0.00    +0.167 HD
ENDBRANCH   5  10
BRANCH   1   9
ATOM      9  C   UNL     1      -1.913   0.583  -1.095  0.00  0.00    +0.121 C 
BRANCH   9  11
ATOM      4  N   UNL     1      -5.284   1.472   0.082  0.00  0.00    -0.349 N 
ATOM     11  C   UNL     1      -3.340   0.664  -0.621  0.00  0.00    -0.008 A 
ATOM     12  C   UNL     1      -4.230  -0.428  -0.424  0.00  0.00    +0.004 A 
ATOM     14  C   UNL     1      -4.016   1.819  -0.302  0.00  0.00    +0.091 A 
ATOM     16  C   UNL     1      -5.442   0.106   0.017  0.00  0.00    +0.049 A 
ATOM     17  C   UNL     1      -4.121  -1.824  -0.580  0.00  0.00    +0.010 A 
ATOM     20  C   UNL     1      -6.555  -0.689   0.312  0.00  0.00    +0.026 A 
ATOM     21  C   UNL     1      -6.298   2.418   0.494  0.00  0.00    +0.149 C 
ATOM     23  C   UNL     1      -5.226  -2.632  -0.288  0.00  0.00    +0.001 A 
ATOM     25  C   UNL     1      -6.423  -2.071   0.151  0.00  0.00    +0.002 A 
ENDBRANCH   9  11
ENDBRANCH   1   9
TORSDOF 3
