REMARK  Name = 45361388
REMARK  12 active torsions:
REMARK  status: ('A' for Active; 'I' for Inactive)
REMARK    1  A    between atoms: O_1  and  C_11
REMARK    2  A    between atoms: O_4  and  C_31
REMARK    3  A    between atoms: O_4  and  C_36
REMARK    4  A    between atoms: N_5  and  C_15
REMARK    5  A    between atoms: N_6  and  C_25
REMARK    6  A    between atoms: C_8  and  C_18
REMARK    7  A    between atoms: C_10  and  C_20
REMARK    8  A    between atoms: C_14  and  C_19
REMARK    9  A    between atoms: C_19  and  C_21
REMARK   10  A    between atoms: C_19  and  C_22
REMARK   11  A    between atoms: C_23  and  C_24
REMARK   12  A    between atoms: C_25  and  C_28
REMARK                            x       y       z     vdW  Elec       q    Type
REMARK                         _______ _______ _______ _____ _____    ______ ____
ROOT
ATOM      8  C   UNL     1       0.593   0.447   1.178  0.00  0.00    -0.027 C 
ATOM      9  C   UNL     1       0.258  -0.458  -0.054  0.00  0.00    +0.028 C 
ATOM     10  C   UNL     1      -1.271  -0.816  -0.085  0.00  0.00    +0.012 C 
ATOM     11  C   UNL     1       1.231  -1.669  -0.144  0.00  0.00    +0.122 C 
ATOM     12  C   UNL     1       2.079   0.873   1.117  0.00  0.00    +0.007 C 
ATOM     13  C   UNL     1      -0.268   1.730   1.111  0.00  0.00    +0.009 C 
ATOM     14  C   UNL     1       2.717  -1.243  -0.100  0.00  0.00    +0.029 C 
ATOM     15  C   UNL     1      -2.128   0.481  -0.077  0.00  0.00    +0.076 C 
ATOM     16  C   UNL     1       3.035  -0.311   1.068  0.00  0.00    +0.007 C 
ATOM     17  C   UNL     1      -1.762   1.444   1.051  0.00  0.00    +0.023 C 
ATOM     18  C   UNL     1       0.336  -0.269   2.529  0.00  0.00    +0.011 C 
ATOM     20  C   UNL     1      -1.676  -1.682  -1.290  0.00  0.00    +0.010 C 
ENDROOT
BRANCH  15   5
ATOM      3  O   UNL     1      -4.270   2.008  -1.227  0.00  0.00    -0.270 OA
ATOM      5  N   UNL     1      -3.543   0.188   0.011  0.00  0.00    -0.308 N 
ATOM     23  C   UNL     1      -4.504   0.990  -0.580  0.00  0.00    +0.244 C 
ATOM     37  H   UNL     1      -3.816  -0.572   0.626  0.00  0.00    +0.149 HD
BRANCH  23  24
ATOM     24  C   UNL     1      -5.913   0.568  -0.375  0.00  0.00    +0.037 A 
ATOM     26  C   UNL     1      -6.936   1.516  -0.405  0.00  0.00    +0.016 A 
ATOM     27  C   UNL     1      -6.213  -0.776  -0.151  0.00  0.00    +0.016 A 
ATOM     29  C   UNL     1      -8.259   1.120  -0.209  0.00  0.00    +0.046 A 
ATOM     30  C   UNL     1      -7.536  -1.172   0.044  0.00  0.00    +0.046 A 
ATOM     31  C   UNL     1      -8.559  -0.224   0.015  0.00  0.00    +0.120 A 
BRANCH  31   4
ATOM      4  O   UNL     1      -9.851  -0.611   0.205  0.00  0.00    -0.495 OA
ATOM     36  C   UNL     1     -10.847   0.409   0.162  0.00  0.00    +0.277 C 
ENDBRANCH  31   4
ENDBRANCH  23  24
ENDBRANCH  15   5
BRANCH  11   1
ATOM      1  O   UNL     1       1.036  -2.345  -1.388  0.00  0.00    -0.391 OA
ATOM     38  H   UNL     1       1.214  -1.714  -2.106  0.00  0.00    +0.210 HD
ENDBRANCH  11   1
BRANCH  14  19
ATOM     19  C   UNL     1       3.655  -2.456  -0.059  0.00  0.00    +0.077 C 
ATOM     21  C   UNL     1       3.360  -3.306   1.172  0.00  0.00    +0.017 C 
BRANCH  19  22
ATOM      2  O   UNL     1       5.907  -2.270   0.814  0.00  0.00    -0.276 OA
ATOM      6  N   UNL     1       5.407  -1.228  -1.198  0.00  0.00    -0.311 N 
ATOM     22  C   UNL     1       5.107  -1.990  -0.078  0.00  0.00    +0.216 C 
ATOM     39  H   UNL     1       4.705  -1.086  -1.916  0.00  0.00    +0.149 HD
BRANCH   6  25
ATOM     25  C   UNL     1       6.719  -0.673  -1.437  0.00  0.00    +0.141 C 
BRANCH  25  28
ATOM      7  N   UNL     1       7.760   2.103   0.909  0.00  0.00    -0.263 NA
ATOM     28  C   UNL     1       6.866   0.698  -0.842  0.00  0.00    -0.012 A 
ATOM     32  C   UNL     1       6.277   1.806  -1.441  0.00  0.00    +0.008 A 
ATOM     33  C   UNL     1       7.591   0.898   0.321  0.00  0.00    +0.115 A 
ATOM     34  C   UNL     1       6.429   3.063  -0.866  0.00  0.00    +0.020 A 
ATOM     35  C   UNL     1       7.173   3.157   0.299  0.00  0.00    +0.111 A 
ENDBRANCH  25  28
ENDBRANCH   6  25
ENDBRANCH  19  22
ENDBRANCH  14  19
TORSDOF 8
