REMARK  Name = 7127914
REMARK  11 active torsions:
REMARK  status: ('A' for Active; 'I' for Inactive)
REMARK    1  A    between atoms: S_1  and  C_27
REMARK    2  A    between atoms: S_1  and  C_29
REMARK    3  A    between atoms: O_2  and  C_14
REMARK    4  A    between atoms: O_3  and  C_15
REMARK    5  A    between atoms: N_9  and  C_13
REMARK    6  A    between atoms: N_11  and  C_25
REMARK    7  A    between atoms: C_16  and  C_23
REMARK    8  A    between atoms: C_21  and  C_24
REMARK    9  A    between atoms: C_25  and  C_26
REMARK   10  A    between atoms: C_25  and  C_28
REMARK   11  A    between atoms: C_26  and  C_27
REMARK                            x       y       z     vdW  Elec       q    Type
REMARK                         _______ _______ _______ _____ _____    ______ ____
ROOT
ATOM     13  C   UNL     1       2.284  -0.841  -0.317  0.00  0.00    +0.127 C 
ATOM     14  C   UNL     1       2.049  -1.356   1.116  0.00  0.00    +0.167 C 
ATOM     15  C   UNL     1       0.670  -2.010   1.260  0.00  0.00    +0.149 C 
ATOM     17  C   UNL     1      -0.467  -1.062   0.841  0.00  0.00    +0.074 C 
ATOM     20  C   UNL     1       1.095  -0.119  -0.892  0.00  0.00    +0.006 C 
ATOM     21  C   UNL     1      -0.131  -0.221  -0.358  0.00  0.00    +0.015 C 
ENDROOT
BRANCH  13   9
ATOM      4  O   UNL     1       5.042  -1.609  -0.795  0.00  0.00    -0.274 OA
ATOM      9  N   UNL     1       3.435   0.026  -0.389  0.00  0.00    -0.305 N 
ATOM     23  C   UNL     1       4.720  -0.436  -0.623  0.00  0.00    +0.231 C 
ATOM     30  H   UNL     1       3.293   1.020  -0.234  0.00  0.00    +0.149 HD
BRANCH  23  16
ATOM     10  N   UNL     1       7.018   0.050  -0.936  0.00  0.00    -0.306 NA
ATOM     16  C   UNL     1       5.720   0.671  -0.674  0.00  0.00    +0.140 C 
ATOM     18  C   UNL     1       5.852   1.393   0.662  0.00  0.00    +0.029 C 
ATOM     19  C   UNL     1       7.271   1.097   1.121  0.00  0.00    +0.017 C 
ATOM     22  C   UNL     1       8.003   0.813  -0.174  0.00  0.00    +0.081 C 
ATOM     31  H   UNL     1       7.236   0.060  -1.931  0.00  0.00    +0.123 HD
ENDBRANCH  23  16
ENDBRANCH  13   9
BRANCH  21  24
ATOM      5  O   UNL     1      -1.194   0.754  -2.212  0.00  0.00    -0.271 OA
ATOM     11  N   UNL     1      -2.205   0.914  -0.118  0.00  0.00    -0.300 N 
ATOM     24  C   UNL     1      -1.215   0.525  -1.004  0.00  0.00    +0.241 C 
ATOM     34  H   UNL     1      -2.131   0.695   0.869  0.00  0.00    +0.150 HD
BRANCH  11  25
ATOM     25  C   UNL     1      -3.374   1.663  -0.520  0.00  0.00    +0.160 C 
BRANCH  25  28
ATOM      8  O   UNL     1      -3.186   2.566   1.727  0.00  0.00    -0.274 OA
ATOM     12  N   UNL     1      -4.769   3.451   0.318  0.00  0.00    -0.328 N 
ATOM     28  C   UNL     1      -3.753   2.575   0.637  0.00  0.00    +0.231 C 
ATOM     35  H   UNL     1      -5.201   3.480  -0.599  0.00  0.00    +0.145 HD
ATOM     36  H   UNL     1      -5.109   4.122   1.000  0.00  0.00    +0.145 HD
ENDBRANCH  25  28
BRANCH  25  26
ATOM     26  C   UNL     1      -4.545   0.747  -0.887  0.00  0.00    +0.054 C 
BRANCH  26  27
ATOM     27  C   UNL     1      -4.947  -0.168   0.263  0.00  0.00    +0.168 C 
BRANCH  27   1
ATOM      1  S   UNL     1      -6.280  -1.229  -0.199  0.00  0.00    -0.034 S 
ATOM      6  O   UNL     1      -7.443  -0.404  -0.476  0.00  0.00    -0.175 OA
ATOM      7  O   UNL     1      -5.789  -2.171  -1.190  0.00  0.00    -0.175 OA
ATOM     29  C   UNL     1      -6.612  -2.143   1.290  0.00  0.00    +0.194 C 
ENDBRANCH  27   1
ENDBRANCH  26  27
ENDBRANCH  25  26
ENDBRANCH  11  25
ENDBRANCH  21  24
BRANCH  14   2
ATOM      2  O   UNL     1       2.139  -0.267   2.038  0.00  0.00    -0.387 OA
ATOM     32  H   UNL     1       1.550   0.446   1.741  0.00  0.00    +0.210 HD
ENDBRANCH  14   2
BRANCH  15   3
ATOM      3  O   UNL     1       0.613  -3.211   0.491  0.00  0.00    -0.389 OA
ATOM     33  H   UNL     1       1.333  -3.788   0.798  0.00  0.00    +0.210 HD
ENDBRANCH  15   3
TORSDOF 10
