REMARK  Name = 11882114
REMARK  12 active torsions:
REMARK  status: ('A' for Active; 'I' for Inactive)
REMARK    1  A    between atoms: N_6  and  C_11
REMARK    2  A    between atoms: N_7  and  C_15
REMARK    3  A    between atoms: N_8  and  C_26
REMARK    4  A    between atoms: C_12  and  C_17
REMARK    5  A    between atoms: C_16  and  C_20
REMARK    6  A    between atoms: C_20  and  C_21
REMARK    7  A    between atoms: C_21  and  C_27
REMARK    8  A    between atoms: C_21  and  C_28
REMARK    9  A    between atoms: C_21  and  C_29
REMARK   10  A    between atoms: C_26  and  C_30
REMARK   11  A    between atoms: C_26  and  C_31
REMARK   12  A    between atoms: C_30  and  C_32
REMARK                            x       y       z     vdW  Elec       q    Type
REMARK                         _______ _______ _______ _____ _____    ______ ____
ROOT
ATOM      1  O   UNL     1       3.065  -1.986  -1.553  0.00  0.00    -0.276 OA
ATOM      5  N   UNL     1       1.668  -1.969   0.293  0.00  0.00    -0.288 N 
ATOM     11  C   UNL     1      -0.206  -0.653   0.910  0.00  0.00    +0.105 C 
ATOM     12  C   UNL     1       1.022  -0.694  -0.001  0.00  0.00    +0.182 C 
ATOM     13  C   UNL     1       0.204  -1.526   2.099  0.00  0.00    +0.043 C 
ATOM     14  C   UNL     1       1.089  -2.598   1.476  0.00  0.00    +0.110 C 
ATOM     16  C   UNL     1       2.596  -2.546  -0.560  0.00  0.00    +0.217 C 
ENDROOT
BRANCH  11   6
ATOM      3  O   UNL     1      -2.956  -0.007   1.444  0.00  0.00    -0.253 OA
ATOM      6  N   UNL     1      -1.366  -1.191   0.239  0.00  0.00    -0.294 N 
ATOM      7  N   UNL     1      -3.597  -1.482  -0.230  0.00  0.00    -0.297 N 
ATOM     25  C   UNL     1      -2.667  -0.818   0.565  0.00  0.00    +0.300 C 
ATOM     40  H   UNL     1      -1.232  -1.921  -0.454  0.00  0.00    +0.151 HD
ATOM     41  H   UNL     1      -3.254  -2.185  -0.877  0.00  0.00    +0.151 HD
BRANCH   7  15
ATOM     15  C   UNL     1      -5.025  -1.287  -0.109  0.00  0.00    +0.074 C 
ATOM     18  C   UNL     1      -5.625  -2.239   0.932  0.00  0.00    +0.022 C 
ATOM     19  C   UNL     1      -5.719  -1.440  -1.466  0.00  0.00    +0.022 C 
ATOM     22  C   UNL     1      -5.658  -3.688   0.448  0.00  0.00    +0.002 C 
ATOM     23  C   UNL     1      -5.752  -2.890  -1.946  0.00  0.00    +0.002 C 
ATOM     24  C   UNL     1      -6.363  -3.816  -0.899  0.00  0.00    +0.000 C 
ENDBRANCH   7  15
ENDBRANCH  11   6
BRANCH  12  17
ATOM      2  O   UNL     1       2.826   0.228   1.263  0.00  0.00    -0.274 OA
ATOM      8  N   UNL     1       1.856   1.512  -0.419  0.00  0.00    -0.302 N 
ATOM     17  C   UNL     1       2.008   0.377   0.359  0.00  0.00    +0.236 C 
ATOM     42  H   UNL     1       1.212   1.484  -1.203  0.00  0.00    +0.150 HD
BRANCH   8  26
ATOM     26  C   UNL     1       2.669   2.696  -0.257  0.00  0.00    +0.163 C 
BRANCH  26  31
ATOM      4  O   UNL     1       3.934   1.905  -2.175  0.00  0.00    -0.274 OA
ATOM      9  N   UNL     1       5.033   3.101  -0.552  0.00  0.00    -0.328 N 
ATOM     31  C   UNL     1       3.921   2.498  -1.099  0.00  0.00    +0.231 C 
ATOM     44  H   UNL     1       5.933   3.057  -1.020  0.00  0.00    +0.145 HD
ATOM     45  H   UNL     1       5.003   3.607   0.328  0.00  0.00    +0.145 HD
ENDBRANCH  26  31
BRANCH  26  30
ATOM     30  C   UNL     1       1.930   3.970  -0.686  0.00  0.00    +0.069 C 
BRANCH  30  32
ATOM     10  N   UNL     1      -0.748   4.907   1.652  0.00  0.00    -0.360 N 
ATOM     32  C   UNL     1       0.666   4.208   0.090  0.00  0.00    -0.020 A 
ATOM     33  C   UNL     1      -0.635   3.740  -0.246  0.00  0.00    +0.003 A 
ATOM     34  C   UNL     1       0.565   4.922   1.262  0.00  0.00    +0.087 A 
ATOM     35  C   UNL     1      -1.503   4.193   0.750  0.00  0.00    +0.047 A 
ATOM     36  C   UNL     1      -1.160   2.973  -1.305  0.00  0.00    +0.010 A 
ATOM     37  C   UNL     1      -2.875   3.916   0.739  0.00  0.00    +0.026 A 
ATOM     38  C   UNL     1      -2.530   2.688  -1.329  0.00  0.00    +0.001 A 
ATOM     39  C   UNL     1      -3.372   3.153  -0.321  0.00  0.00    +0.002 A 
ATOM     43  H   UNL     1      -1.110   5.356   2.482  0.00  0.00    +0.165 HD
ENDBRANCH  30  32
ENDBRANCH  26  30
ENDBRANCH   8  26
ENDBRANCH  12  17
BRANCH  16  20
ATOM     20  C   UNL     1       3.030  -3.945  -0.199  0.00  0.00    +0.102 C 
BRANCH  20  21
ATOM     21  C   UNL     1       4.535  -4.041   0.113  0.00  0.00    -0.029 C 
ATOM     27  C   UNL     1       4.834  -3.094   1.290  0.00  0.00    +0.011 C 
ATOM     28  C   UNL     1       4.926  -5.471   0.522  0.00  0.00    +0.011 C 
ATOM     29  C   UNL     1       5.381  -3.605  -1.095  0.00  0.00    +0.011 C 
ENDBRANCH  20  21
ENDBRANCH  16  20
TORSDOF 9
