REMARK  Name = 75536105
REMARK  9 active torsions:
REMARK  status: ('A' for Active; 'I' for Inactive)
REMARK    1  A    between atoms: O_4  and  C_10
REMARK    2  A    between atoms: O_5  and  C_12
REMARK    3  A    between atoms: O_6  and  C_20
REMARK    4  A    between atoms: O_6  and  C_27
REMARK    5  A    between atoms: N_7  and  C_8
REMARK    6  A    between atoms: N_7  and  C_14
REMARK    7  A    between atoms: C_9  and  C_13
REMARK    8  A    between atoms: C_14  and  C_17
REMARK    9  A    between atoms: C_23  and  C_26
REMARK                            x       y       z     vdW  Elec       q    Type
REMARK                         _______ _______ _______ _____ _____    ______ ____
ROOT
ATOM      8  C   UNL     1       1.171  -1.750  -0.058  0.00  0.00    +0.092 C 
ATOM      9  C   UNL     1       2.190  -1.175  -1.068  0.00  0.00    +0.041 C 
ATOM     10  C   UNL     1       1.387  -3.259  -0.167  0.00  0.00    +0.160 C 
ATOM     11  C   UNL     1       3.315  -2.240  -1.174  0.00  0.00    +0.043 C 
ATOM     12  C   UNL     1       2.907  -3.376  -0.234  0.00  0.00    +0.145 C 
ENDROOT
BRANCH   9  13
ATOM     13  C   UNL     1       2.680   0.209  -0.699  0.00  0.00    -0.042 A 
ATOM     15  C   UNL     1       3.323   0.418   0.521  0.00  0.00    +0.007 A 
ATOM     16  C   UNL     1       2.487   1.275  -1.578  0.00  0.00    +0.007 A 
ATOM     18  C   UNL     1       3.774   1.693   0.862  0.00  0.00    +0.046 A 
ATOM     19  C   UNL     1       2.938   2.550  -1.237  0.00  0.00    +0.046 A 
ATOM     20  C   UNL     1       3.582   2.759  -0.017  0.00  0.00    +0.120 A 
BRANCH  20   6
ATOM      6  O   UNL     1       4.021   4.004   0.316  0.00  0.00    -0.495 OA
ATOM     27  C   UNL     1       4.670   4.147   1.578  0.00  0.00    +0.277 C 
ENDBRANCH  20   6
ENDBRANCH   9  13
BRANCH  10   4
ATOM      4  O   UNL     1       0.850  -3.946   0.947  0.00  0.00    -0.388 OA
ATOM     29  H   UNL     1       1.110  -4.880   0.867  0.00  0.00    +0.210 HD
ENDBRANCH  10   4
BRANCH  12   5
ATOM      5  O   UNL     1       3.474  -3.155   1.054  0.00  0.00    -0.389 OA
ATOM     30  H   UNL     1       4.441  -3.187   0.956  0.00  0.00    +0.210 HD
ENDBRANCH  12   5
BRANCH   8   7
ATOM      7  N   UNL     1      -0.199  -1.375  -0.386  0.00  0.00    -0.306 NA
ATOM     28  H   UNL     1      -0.213  -0.401  -0.690  0.00  0.00    +0.123 HD
BRANCH   7  14
ATOM     14  C   UNL     1      -1.068  -1.515   0.774  0.00  0.00    +0.116 C 
BRANCH  14  17
ATOM     17  C   UNL     1      -2.491  -1.140   0.457  0.00  0.00    -0.033 A 
ATOM     21  C   UNL     1      -2.851   0.203   0.344  0.00  0.00    +0.017 A 
ATOM     22  C   UNL     1      -3.451  -2.137   0.277  0.00  0.00    +0.005 A 
ATOM     23  C   UNL     1      -4.169   0.549   0.051  0.00  0.00    +0.055 A 
ATOM     24  C   UNL     1      -4.769  -1.790  -0.017  0.00  0.00    +0.001 A 
ATOM     25  C   UNL     1      -5.129  -0.447  -0.130  0.00  0.00    +0.012 A 
BRANCH  23  26
ATOM      1  F   UNL     1      -3.877   2.652  -1.052  0.00  0.00    -0.166 F 
ATOM      2  F   UNL     1      -4.335   2.709   1.067  0.00  0.00    -0.166 F 
ATOM      3  F   UNL     1      -5.877   2.152  -0.361  0.00  0.00    -0.166 F 
ATOM     26  C   UNL     1      -4.554   1.985  -0.071  0.00  0.00    +0.417 C 
ENDBRANCH  23  26
ENDBRANCH  14  17
ENDBRANCH   7  14
ENDBRANCH   8   7
TORSDOF 8
