REMARK  Name = 45783515
REMARK  6 active torsions:
REMARK  status: ('A' for Active; 'I' for Inactive)
REMARK    1  A    between atoms: O_2  and  C_16
REMARK    2  A    between atoms: O_2  and  C_31
REMARK    3  A    between atoms: N_4  and  C_13
REMARK    4  A    between atoms: C_9  and  C_14
REMARK    5  A    between atoms: C_13  and  C_15
REMARK    6  A    between atoms: C_17  and  C_21
REMARK                            x       y       z     vdW  Elec       q    Type
REMARK                         _______ _______ _______ _____ _____    ______ ____
ROOT
ATOM      1  O   UNL     1      -2.084  -1.173   2.037  0.00  0.00    -0.336 OA
ATOM      5  N   UNL     1      -1.175  -1.282  -0.008  0.00  0.00    -0.190 NA
ATOM      7  N   UNL     1      -0.721  -0.897   2.201  0.00  0.00    -0.056 NA
ATOM     14  C   UNL     1      -2.267  -1.388   0.707  0.00  0.00    +0.245 A 
ATOM     17  C   UNL     1      -0.253  -0.980   0.952  0.00  0.00    +0.204 A 
ENDROOT
BRANCH  17  21
ATOM      3  O   UNL     1       7.835   0.467  -0.609  0.00  0.00    -0.377 OA
ATOM      6  N   UNL     1       5.122  -0.145  -0.207  0.00  0.00    -0.311 N 
ATOM      8  N   UNL     1       3.368  -0.251   1.379  0.00  0.00    -0.240 NA
ATOM     19  C   UNL     1       6.119  -0.485   0.817  0.00  0.00    +0.134 C 
ATOM     20  C   UNL     1       5.510   0.931  -1.125  0.00  0.00    +0.134 C 
ATOM     21  C   UNL     1       1.128  -0.769   0.630  0.00  0.00    +0.041 A 
ATOM     23  C   UNL     1       3.771  -0.353   0.093  0.00  0.00    +0.121 A 
ATOM     24  C   UNL     1       7.482  -0.681   0.163  0.00  0.00    +0.178 C 
ATOM     25  C   UNL     1       6.906   0.660  -1.675  0.00  0.00    +0.178 C 
ATOM     28  C   UNL     1       1.581  -0.865  -0.681  0.00  0.00    +0.016 A 
ATOM     29  C   UNL     1       2.926  -0.654  -0.964  0.00  0.00    +0.044 A 
ATOM     30  C   UNL     1       2.054  -0.463   1.615  0.00  0.00    +0.124 A 
ENDBRANCH  17  21
BRANCH  14   9
ATOM      4  N   UNL     1      -4.183  -0.764  -0.752  0.00  0.00    -0.287 NA
ATOM      9  C   UNL     1      -3.678  -1.710   0.263  0.00  0.00    +0.146 C 
ATOM     10  C   UNL     1      -3.791  -3.094  -0.402  0.00  0.00    +0.030 C 
ATOM     11  C   UNL     1      -4.425  -2.832  -1.760  0.00  0.00    +0.017 C 
ATOM     12  C   UNL     1      -5.139  -1.509  -1.572  0.00  0.00    +0.085 C 
BRANCH   4  13
ATOM     13  C   UNL     1      -4.775   0.437  -0.175  0.00  0.00    +0.124 C 
BRANCH  13  15
ATOM     15  C   UNL     1      -3.726   1.431   0.246  0.00  0.00    +0.008 A 
ATOM     16  C   UNL     1      -2.817   1.944  -0.679  0.00  0.00    +0.124 A 
ATOM     18  C   UNL     1      -3.670   1.840   1.579  0.00  0.00    +0.008 A 
ATOM     22  C   UNL     1      -1.851   2.865  -0.273  0.00  0.00    +0.046 A 
ATOM     26  C   UNL     1      -2.704   2.761   1.986  0.00  0.00    +0.001 A 
ATOM     27  C   UNL     1      -1.795   3.273   1.060  0.00  0.00    +0.004 A 
BRANCH  16   2
ATOM      2  O   UNL     1      -2.858   1.555  -1.985  0.00  0.00    -0.495 OA
ATOM     31  C   UNL     1      -1.891   2.130  -2.862  0.00  0.00    +0.277 C 
ENDBRANCH  16   2
ENDBRANCH  13  15
ENDBRANCH   4  13
ENDBRANCH  14   9
TORSDOF 5
