REMARK  Name = 51137502
REMARK  6 active torsions:
REMARK  status: ('A' for Active; 'I' for Inactive)
REMARK    1  A    between atoms: O_4  and  C_27
REMARK    2  A    between atoms: O_4  and  C_28
REMARK    3  A    between atoms: N_5  and  C_12
REMARK    4  A    between atoms: C_8  and  C_13
REMARK    5  A    between atoms: C_12  and  C_14
REMARK    6  A    between atoms: C_17  and  C_21
REMARK                            x       y       z     vdW  Elec       q    Type
REMARK                         _______ _______ _______ _____ _____    ______ ____
ROOT
ATOM      5  N   UNL     1      -1.874  -1.042  -0.288  0.00  0.00    -0.297 NA
ATOM      8  C   UNL     1       0.050  -2.221   0.351  0.00  0.00    +0.092 C 
ATOM      9  C   UNL     1      -0.628  -1.560  -0.857  0.00  0.00    +0.097 C 
ATOM     10  C   UNL     1      -0.539  -1.495   1.573  0.00  0.00    +0.029 C 
ATOM     11  C   UNL     1      -1.488  -0.453   0.994  0.00  0.00    +0.085 C 
ENDROOT
BRANCH   8  13
ATOM      1  O   UNL     1       2.153  -0.976   0.197  0.00  0.00    -0.420 OA
ATOM      6  N   UNL     1       2.409  -3.198   0.245  0.00  0.00    -0.112 NA
ATOM      7  N   UNL     1       3.664  -2.624   0.157  0.00  0.00    -0.107 NA
ATOM     13  C   UNL     1       1.558  -2.199   0.265  0.00  0.00    +0.222 A 
ATOM     17  C   UNL     1       3.466  -1.327   0.132  0.00  0.00    +0.248 A 
BRANCH  17  21
ATOM     21  C   UNL     1       4.402  -0.244   0.049  0.00  0.00    +0.039 A 
ATOM     23  C   UNL     1       5.770  -0.507  -0.021  0.00  0.00    +0.017 A 
ATOM     24  C   UNL     1       3.944   1.074   0.037  0.00  0.00    +0.017 A 
ATOM     25  C   UNL     1       6.680   0.546  -0.102  0.00  0.00    +0.046 A 
ATOM     26  C   UNL     1       4.854   2.128  -0.044  0.00  0.00    +0.046 A 
ATOM     27  C   UNL     1       6.222   1.864  -0.114  0.00  0.00    +0.120 A 
BRANCH  27   4
ATOM      4  O   UNL     1       7.110   2.892  -0.196  0.00  0.00    -0.495 OA
ATOM     28  C   UNL     1       8.494   2.551  -0.268  0.00  0.00    +0.277 C 
ENDBRANCH  27   4
ENDBRANCH  17  21
ENDBRANCH   8  13
BRANCH   5  12
ATOM     12  C   UNL     1      -2.528  -0.082  -1.165  0.00  0.00    +0.119 C 
BRANCH  12  14
ATOM      2  O   UNL     1      -6.279   2.444   0.846  0.00  0.00    -0.453 OA
ATOM      3  O   UNL     1      -7.895   0.763   0.234  0.00  0.00    -0.453 OA
ATOM     14  C   UNL     1      -3.977   0.112  -0.804  0.00  0.00    -0.030 A 
ATOM     15  C   UNL     1      -4.373   1.263  -0.120  0.00  0.00    +0.054 A 
ATOM     16  C   UNL     1      -4.919  -0.869  -1.161  0.00  0.00    +0.009 A 
ATOM     18  C   UNL     1      -5.712   1.397   0.187  0.00  0.00    +0.167 A 
ATOM     19  C   UNL     1      -6.269  -0.709  -0.838  0.00  0.00    +0.050 A 
ATOM     20  C   UNL     1      -6.634   0.437  -0.163  0.00  0.00    +0.166 A 
ATOM     22  C   UNL     1      -7.662   2.035   0.872  0.00  0.00    +0.466 C 
ENDBRANCH  12  14
ENDBRANCH   5  12
TORSDOF 5
