REMARK  Name = 75536627
REMARK  7 active torsions:
REMARK  status: ('A' for Active; 'I' for Inactive)
REMARK    1  A    between atoms: O_2  and  C_8
REMARK    2  A    between atoms: N_4  and  C_7
REMARK    3  A    between atoms: N_4  and  C_12
REMARK    4  A    between atoms: N_5  and  C_11
REMARK    5  A    between atoms: C_9  and  C_11
REMARK    6  A    between atoms: C_12  and  C_13
REMARK    7  A    between atoms: C_14  and  C_17
REMARK                            x       y       z     vdW  Elec       q    Type
REMARK                         _______ _______ _______ _____ _____    ______ ____
ROOT
ATOM      1  O   UNL     1       0.417  -0.928   0.006  0.00  0.00    -0.371 OA
ATOM      7  C   UNL     1      -1.646   0.214  -0.285  0.00  0.00    +0.111 C 
ATOM      8  C   UNL     1      -0.744   1.041   0.613  0.00  0.00    +0.164 C 
ATOM      9  C   UNL     1       0.623   0.471   0.261  0.00  0.00    +0.165 C 
ATOM     10  C   UNL     1      -0.990  -1.154  -0.191  0.00  0.00    +0.181 C 
ENDROOT
BRANCH   8   2
ATOM      2  O   UNL     1      -0.825   2.426   0.339  0.00  0.00    -0.388 OA
ATOM     26  H   UNL     1      -0.614   2.566  -0.600  0.00  0.00    +0.210 HD
ENDBRANCH   8   2
BRANCH   7   4
ATOM      4  N   UNL     1      -3.038   0.204   0.134  0.00  0.00    -0.305 NA
ATOM     25  H   UNL     1      -3.323   1.157   0.361  0.00  0.00    +0.123 HD
BRANCH   4  12
ATOM     12  C   UNL     1      -3.901  -0.308  -0.923  0.00  0.00    +0.118 C 
BRANCH  12  13
ATOM      6  N   UNL     1      -7.553   0.641  -0.611  0.00  0.00    -0.263 NA
ATOM     13  C   UNL     1      -5.346  -0.340  -0.500  0.00  0.00    -0.015 A 
ATOM     15  C   UNL     1      -5.820  -1.327   0.357  0.00  0.00    +0.008 A 
ATOM     16  C   UNL     1      -6.245   0.612  -0.952  0.00  0.00    +0.115 A 
ATOM     18  C   UNL     1      -7.159  -1.331   0.731  0.00  0.00    +0.020 A 
ATOM     21  C   UNL     1      -7.977  -0.334   0.224  0.00  0.00    +0.111 A 
ENDBRANCH  12  13
ENDBRANCH   4  12
ENDBRANCH   7   4
BRANCH   9  11
ATOM     11  C   UNL     1       1.649   0.646   1.366  0.00  0.00    +0.138 C 
BRANCH  11   5
ATOM      3  O   UNL     1       3.788   2.012   0.023  0.00  0.00    -0.270 OA
ATOM      5  N   UNL     1       2.918   0.092   0.993  0.00  0.00    -0.309 N 
ATOM     14  C   UNL     1       3.901   0.831   0.341  0.00  0.00    +0.244 C 
ATOM     27  H   UNL     1       3.049  -0.900   1.163  0.00  0.00    +0.149 HD
BRANCH  14  17
ATOM     17  C   UNL     1       5.150   0.104  -0.001  0.00  0.00    +0.037 A 
ATOM     19  C   UNL     1       5.925   0.518  -1.085  0.00  0.00    +0.013 A 
ATOM     20  C   UNL     1       5.550  -0.992   0.763  0.00  0.00    +0.013 A 
ATOM     22  C   UNL     1       7.099  -0.164  -1.405  0.00  0.00    +0.001 A 
ATOM     23  C   UNL     1       6.724  -1.674   0.444  0.00  0.00    +0.001 A 
ATOM     24  C   UNL     1       7.499  -1.260  -0.640  0.00  0.00    +0.000 A 
ENDBRANCH  14  17
ENDBRANCH  11   5
ENDBRANCH   9  11
TORSDOF 7
