REMARK  Name = 75368467
REMARK  6 active torsions:
REMARK  status: ('A' for Active; 'I' for Inactive)
REMARK    1  A    between atoms: O_3  and  C_23
REMARK    2  A    between atoms: O_3  and  C_29
REMARK    3  A    between atoms: N_5  and  C_14
REMARK    4  A    between atoms: N_7  and  C_19
REMARK    5  A    between atoms: C_14  and  C_16
REMARK    6  A    between atoms: C_19  and  C_22
REMARK                            x       y       z     vdW  Elec       q    Type
REMARK                         _______ _______ _______ _____ _____    ______ ____
ROOT
ATOM      1  O   UNL     1      -2.852   3.145   0.767  0.00  0.00    -0.252 OA
ATOM      2  O   UNL     1       3.604   2.643  -1.658  0.00  0.00    -0.253 OA
ATOM      4  N   UNL     1      -0.703   2.267   0.404  0.00  0.00    -0.278 N 
ATOM      5  N   UNL     1      -2.211   0.987   1.471  0.00  0.00    -0.279 N 
ATOM      6  N   UNL     1       1.627   1.642  -0.981  0.00  0.00    -0.282 N 
ATOM      7  N   UNL     1       3.714   0.578  -0.668  0.00  0.00    -0.295 N 
ATOM      8  C   UNL     1       0.037   1.079   0.798  0.00  0.00    +0.112 C 
ATOM      9  C   UNL     1      -1.044   0.135   1.318  0.00  0.00    +0.133 C 
ATOM     10  C   UNL     1       0.840   0.543  -0.384  0.00  0.00    +0.133 C 
ATOM     11  C   UNL     1      -0.025   3.343  -0.299  0.00  0.00    +0.128 C 
ATOM     12  C   UNL     1       0.810   2.775  -1.446  0.00  0.00    +0.128 C 
ATOM     13  C   UNL     1      -2.025   2.248   0.871  0.00  0.00    +0.306 C 
ATOM     15  C   UNL     1       3.020   1.685  -1.139  0.00  0.00    +0.303 C 
ATOM     30  H   UNL     1       3.232  -0.188  -0.220  0.00  0.00    +0.151 HD
ENDROOT
BRANCH   5  14
ATOM     14  C   UNL     1      -3.443   0.501   2.050  0.00  0.00    +0.144 C 
BRANCH  14  16
ATOM     16  C   UNL     1      -4.269  -0.262   1.054  0.00  0.00    -0.030 A 
ATOM     17  C   UNL     1      -4.325  -1.655   1.117  0.00  0.00    +0.009 A 
ATOM     18  C   UNL     1      -4.978   0.421   0.066  0.00  0.00    +0.009 A 
ATOM     20  C   UNL     1      -5.092  -2.364   0.192  0.00  0.00    +0.046 A 
ATOM     21  C   UNL     1      -5.745  -0.288  -0.859  0.00  0.00    +0.046 A 
ATOM     23  C   UNL     1      -5.801  -1.681  -0.795  0.00  0.00    +0.120 A 
BRANCH  23   3
ATOM      3  O   UNL     1      -6.549  -2.373  -1.698  0.00  0.00    -0.495 OA
ATOM     29  C   UNL     1      -6.562  -3.794  -1.576  0.00  0.00    +0.277 C 
ENDBRANCH  23   3
ENDBRANCH  14  16
ENDBRANCH   5  14
BRANCH   7  19
ATOM     19  C   UNL     1       5.154   0.478  -0.754  0.00  0.00    +0.141 C 
BRANCH  19  22
ATOM     22  C   UNL     1       5.664  -0.811  -0.177  0.00  0.00    -0.030 A 
ATOM     24  C   UNL     1       6.001  -0.886   1.174  0.00  0.00    +0.005 A 
ATOM     25  C   UNL     1       5.799  -1.934  -0.993  0.00  0.00    +0.005 A 
ATOM     26  C   UNL     1       6.474  -2.084   1.709  0.00  0.00    +0.000 A 
ATOM     27  C   UNL     1       6.271  -3.132  -0.458  0.00  0.00    +0.000 A 
ATOM     28  C   UNL     1       6.609  -3.207   0.894  0.00  0.00    +0.000 A 
ENDBRANCH  19  22
ENDBRANCH   7  19
TORSDOF 5
