REMARK  Name = 71694323
REMARK  8 active torsions:
REMARK  status: ('A' for Active; 'I' for Inactive)
REMARK    1  A    between atoms: O_6  and  C_27
REMARK    2  A    between atoms: O_6  and  C_28
REMARK    3  A    between atoms: C_10  and  C_16
REMARK    4  A    between atoms: C_11  and  C_14
REMARK    5  A    between atoms: C_11  and  C_17
REMARK    6  A    between atoms: C_11  and  C_18
REMARK    7  A    between atoms: C_11  and  C_19
REMARK    8  A    between atoms: C_20  and  C_22
REMARK                            x       y       z     vdW  Elec       q    Type
REMARK                         _______ _______ _______ _____ _____    ______ ____
ROOT
ATOM      8  N   UNL     1       0.357   0.153  -0.783  0.00  0.00    -0.340 N 
ATOM      9  N   UNL     1       1.536   2.026  -0.969  0.00  0.00    -0.238 NA
ATOM     16  C   UNL     1       1.570   0.716  -1.071  0.00  0.00    +0.130 A 
ATOM     20  C   UNL     1      -0.504   1.169  -0.477  0.00  0.00    +0.066 A 
ATOM     21  C   UNL     1       0.247   2.315  -0.599  0.00  0.00    +0.139 A 
ATOM     29  H   UNL     1       0.143  -0.835  -0.801  0.00  0.00    +0.167 HD
ENDROOT
BRANCH  16  10
ATOM      4  O   UNL     1       1.967  -2.471  -1.413  0.00  0.00    -0.376 OA
ATOM      5  O   UNL     1       4.973   1.408  -0.573  0.00  0.00    -0.275 OA
ATOM      7  N   UNL     1       3.613  -0.458  -0.287  0.00  0.00    -0.287 N 
ATOM     10  C   UNL     1       2.770  -0.140  -1.458  0.00  0.00    +0.167 C 
ATOM     12  C   UNL     1       3.215  -1.643   0.484  0.00  0.00    +0.136 C 
ATOM     13  C   UNL     1       2.426  -1.412  -2.254  0.00  0.00    +0.190 C 
ATOM     14  C   UNL     1       4.643   0.414   0.079  0.00  0.00    +0.222 C 
ATOM     15  C   UNL     1       2.948  -2.820  -0.439  0.00  0.00    +0.179 C 
BRANCH  14  11
ATOM     11  C   UNL     1       5.382   0.090   1.353  0.00  0.00    +0.039 C 
ATOM     17  C   UNL     1       6.013  -1.293   1.191  0.00  0.00    +0.020 C 
ATOM     18  C   UNL     1       6.464   1.149   1.577  0.00  0.00    +0.020 C 
ATOM     19  C   UNL     1       4.387   0.093   2.514  0.00  0.00    +0.020 C 
ENDBRANCH  14  11
ENDBRANCH  16  10
BRANCH  20  22
ATOM     22  C   UNL     1      -1.882   0.960  -0.121  0.00  0.00    +0.000 A 
ATOM     23  C   UNL     1      -2.836   1.931  -0.422  0.00  0.00    +0.013 A 
ATOM     24  C   UNL     1      -2.264  -0.216   0.525  0.00  0.00    +0.013 A 
ATOM     25  C   UNL     1      -4.172   1.728  -0.076  0.00  0.00    +0.046 A 
ATOM     26  C   UNL     1      -3.600  -0.420   0.871  0.00  0.00    +0.046 A 
ATOM     27  C   UNL     1      -4.554   0.552   0.570  0.00  0.00    +0.130 A 
BRANCH  27   6
ATOM      6  O   UNL     1      -5.858   0.352   0.904  0.00  0.00    -0.406 OA
BRANCH   6  28
ATOM      1  F   UNL     1      -6.448  -1.841   1.181  0.00  0.00    -0.133 F 
ATOM      2  F   UNL     1      -7.837  -0.471   0.197  0.00  0.00    -0.133 F 
ATOM      3  F   UNL     1      -6.028  -1.097  -0.858  0.00  0.00    -0.133 F 
ATOM     28  C   UNL     1      -6.529  -0.776   0.354  0.00  0.00    +0.575 C 
ENDBRANCH   6  28
ENDBRANCH  27   6
ENDBRANCH  20  22
TORSDOF 5
