REMARK  Name = 86769015
REMARK  3 active torsions:
REMARK  status: ('A' for Active; 'I' for Inactive)
REMARK    1  A    between atoms: N_2  and  C_8
REMARK    2  A    between atoms: N_4  and  C_15
REMARK    3  A    between atoms: C_5  and  C_8
REMARK                            x       y       z     vdW  Elec       q    Type
REMARK                         _______ _______ _______ _____ _____    ______ ____
ROOT
ATOM      1  O   UNL     1      -1.490  -2.350   0.005  0.00  0.00    -0.252 OA
ATOM      2  N   UNL     1       2.944   0.085   0.067  0.00  0.00    -0.299 NA
ATOM      3  N   UNL     1       0.342  -0.933  -0.262  0.00  0.00    -0.278 N 
ATOM      4  N   UNL     1      -1.704   0.030  -0.144  0.00  0.00    -0.254 N 
ATOM      9  C   UNL     1       0.588   0.461  -0.531  0.00  0.00    +0.109 C 
ATOM     10  C   UNL     1       1.778   0.965   0.284  0.00  0.00    +0.108 C 
ATOM     11  C   UNL     1       2.640  -1.300   0.479  0.00  0.00    +0.103 C 
ATOM     12  C   UNL     1       1.450  -1.866  -0.299  0.00  0.00    +0.125 C 
ATOM     13  C   UNL     1      -0.744   1.126  -0.202  0.00  0.00    +0.139 C 
ATOM     14  C   UNL     1      -1.025  -1.225  -0.123  0.00  0.00    +0.309 C 
ENDROOT
BRANCH   4  15
ATOM     15  C   UNL     1      -3.108   0.248  -0.038  0.00  0.00    +0.038 A 
ATOM     16  C   UNL     1      -3.974  -0.837   0.103  0.00  0.00    +0.023 A 
ATOM     17  C   UNL     1      -3.617   1.546  -0.075  0.00  0.00    +0.023 A 
ATOM     18  C   UNL     1      -5.348  -0.623   0.206  0.00  0.00    +0.002 A 
ATOM     19  C   UNL     1      -4.991   1.760   0.028  0.00  0.00    +0.002 A 
ATOM     20  C   UNL     1      -5.857   0.675   0.169  0.00  0.00    +0.000 A 
ENDBRANCH   4  15
BRANCH   2   8
ATOM      8  C   UNL     1       4.107   0.591   0.795  0.00  0.00    +0.088 C 
BRANCH   8   5
ATOM      5  C   UNL     1       5.381   0.068   0.216  0.00  0.00    +0.003 C 
ATOM      6  C   UNL     1       6.649   0.867   0.329  0.00  0.00    +0.005 C 
ATOM      7  C   UNL     1       5.977   0.710  -1.006  0.00  0.00    +0.005 C 
ENDBRANCH   8   5
ENDBRANCH   2   8
TORSDOF 3
