REMARK  Name = 28959913
REMARK  10 active torsions:
REMARK  status: ('A' for Active; 'I' for Inactive)
REMARK    1  A    between atoms: O_3  and  C_22
REMARK    2  A    between atoms: O_5  and  C_23
REMARK    3  A    between atoms: O_5  and  C_29
REMARK    4  A    between atoms: N_7  and  C_15
REMARK    5  A    between atoms: N_8  and  C_24
REMARK    6  A    between atoms: C_9  and  C_13
REMARK    7  A    between atoms: C_10  and  C_16
REMARK    8  A    between atoms: C_13  and  C_15
REMARK    9  A    between atoms: C_16  and  C_22
REMARK   10  A    between atoms: C_19  and  C_23
REMARK                            x       y       z     vdW  Elec       q    Type
REMARK                         _______ _______ _______ _____ _____    ______ ____
ROOT
ATOM      2  O   UNL     1       2.990   3.272   1.374  0.00  0.00    -0.272 OA
ATOM      6  N   UNL     1       3.720   1.600  -0.065  0.00  0.00    -0.298 N 
ATOM      9  C   UNL     1       3.586  -0.706  -0.980  0.00  0.00    +0.011 C 
ATOM     10  C   UNL     1       4.840  -1.070  -0.146  0.00  0.00    +0.006 C 
ATOM     11  C   UNL     1       3.583   0.802  -1.290  0.00  0.00    +0.111 C 
ATOM     12  C   UNL     1       4.971  -0.177   1.099  0.00  0.00    +0.023 C 
ATOM     14  C   UNL     1       4.912   1.303   0.729  0.00  0.00    +0.108 C 
ATOM     19  C   UNL     1       2.838   2.597   0.352  0.00  0.00    +0.253 C 
ENDROOT
BRANCH   9  13
ATOM     13  C   UNL     1       2.261  -1.117  -0.325  0.00  0.00    +0.020 C 
BRANCH  13  15
ATOM     15  C   UNL     1       1.179  -1.328  -1.373  0.00  0.00    +0.085 C 
BRANCH  15   7
ATOM      7  N   UNL     1      -0.077  -1.702  -0.723  0.00  0.00    -0.299 NA
ATOM      8  N   UNL     1      -2.899  -1.658  -0.283  0.00  0.00    -0.327 N 
ATOM     17  C   UNL     1      -0.989  -2.329  -1.687  0.00  0.00    +0.103 C 
ATOM     18  C   UNL     1      -0.716  -0.524  -0.123  0.00  0.00    +0.103 C 
ATOM     20  C   UNL     1      -2.286  -2.776  -1.007  0.00  0.00    +0.120 C 
ATOM     21  C   UNL     1      -2.003  -0.911   0.610  0.00  0.00    +0.120 C 
BRANCH   8  24
ATOM      1  F   UNL     1      -8.276  -1.834   0.990  0.00  0.00    -0.205 F 
ATOM     24  C   UNL     1      -4.260  -1.702   0.039  0.00  0.00    +0.030 A 
ATOM     25  C   UNL     1      -4.883  -2.930   0.268  0.00  0.00    +0.026 A 
ATOM     26  C   UNL     1      -4.993  -0.520   0.133  0.00  0.00    +0.026 A 
ATOM     27  C   UNL     1      -6.239  -2.974   0.589  0.00  0.00    +0.040 A 
ATOM     28  C   UNL     1      -6.350  -0.564   0.454  0.00  0.00    +0.040 A 
ATOM     30  C   UNL     1      -6.973  -1.791   0.682  0.00  0.00    +0.124 A 
ENDBRANCH   8  24
ENDBRANCH  15   7
ENDBRANCH  13  15
ENDBRANCH   9  13
BRANCH  10  16
ATOM     16  C   UNL     1       4.896  -2.547   0.242  0.00  0.00    +0.124 C 
BRANCH  16  22
ATOM      4  O   UNL     1       7.306  -2.295   0.509  0.00  0.00    -0.251 OA
ATOM     22  C   UNL     1       6.301  -2.989   0.546  0.00  0.00    +0.305 C 
BRANCH  22   3
ATOM      3  O   UNL     1       6.304  -4.305   0.881  0.00  0.00    -0.481 OA
ATOM     36  H   UNL     1       7.208  -4.628   1.087  0.00  0.00    +0.295 HD
ENDBRANCH  22   3
ENDBRANCH  16  22
ENDBRANCH  10  16
BRANCH  19  23
ATOM     23  C   UNL     1       1.632   2.840  -0.519  0.00  0.00    +0.324 C 
BRANCH  23   5
ATOM      5  O   UNL     1       0.879   3.849   0.109  0.00  0.00    -0.483 OA
BRANCH   5  29
ATOM     29  C   UNL     1      -0.490   3.799  -0.035  0.00  0.00    +0.121 A 
ATOM     31  C   UNL     1      -1.050   3.249  -1.188  0.00  0.00    +0.045 A 
ATOM     32  C   UNL     1      -1.315   4.298   0.972  0.00  0.00    +0.045 A 
ATOM     33  C   UNL     1      -2.437   3.198  -1.333  0.00  0.00    +0.004 A 
ATOM     34  C   UNL     1      -2.702   4.247   0.827  0.00  0.00    +0.004 A 
ATOM     35  C   UNL     1      -3.262   3.697  -0.326  0.00  0.00    +0.000 A 
ENDBRANCH   5  29
ENDBRANCH  23   5
ENDBRANCH  19  23
TORSDOF 10
