REMARK  Name = 38026967
REMARK  12 active torsions:
REMARK  status: ('A' for Active; 'I' for Inactive)
REMARK    1  A    between atoms: O_3  and  C_27
REMARK    2  A    between atoms: O_3  and  C_29
REMARK    3  A    between atoms: N_6  and  C_16
REMARK    4  A    between atoms: C_8  and  C_12
REMARK    5  A    between atoms: C_9  and  C_16
REMARK    6  A    between atoms: C_11  and  C_15
REMARK    7  A    between atoms: C_12  and  C_17
REMARK    8  A    between atoms: C_12  and  C_18
REMARK    9  A    between atoms: C_13  and  C_19
REMARK   10  A    between atoms: C_15  and  C_20
REMARK   11  A    between atoms: C_25  and  C_27
REMARK   12  A    between atoms: C_26  and  C_28
REMARK                            x       y       z     vdW  Elec       q    Type
REMARK                         _______ _______ _______ _____ _____    ______ ____
ROOT
ATOM      8  C   UNL     1      -2.705  -1.059  -0.647  0.00  0.00    +0.000 C 
ATOM      9  C   UNL     1      -3.717  -0.948   0.521  0.00  0.00    +0.032 C 
ATOM     10  C   UNL     1      -1.749  -2.239  -0.418  0.00  0.00    +0.012 C 
ATOM     11  C   UNL     1      -0.961  -2.103   0.899  0.00  0.00    +0.023 C 
ATOM     13  C   UNL     1      -1.862  -1.727   2.058  0.00  0.00    -0.073 C 
ATOM     14  C   UNL     1      -3.095  -1.225   1.869  0.00  0.00    -0.022 C 
ATOM     19  C   UNL     1      -1.330  -1.985   3.440  0.00  0.00    +0.039 C 
ENDROOT
BRANCH   8  12
ATOM     12  C   UNL     1      -3.411  -1.218  -1.998  0.00  0.00    -0.013 C 
ATOM     17  C   UNL     1      -2.509  -0.734  -3.129  0.00  0.00    +0.007 C 
ATOM     18  C   UNL     1      -3.820  -2.671  -2.216  0.00  0.00    +0.007 C 
ENDBRANCH   8  12
BRANCH  11  15
ATOM     15  C   UNL     1       0.191  -1.103   0.753  0.00  0.00    +0.103 C 
BRANCH  15  20
ATOM      1  O   UNL     1       1.192  -2.881  -0.452  0.00  0.00    -0.276 OA
ATOM      4  O   UNL     1       6.227   2.144   0.243  0.00  0.00    -0.276 OA
ATOM      5  N   UNL     1       2.431  -0.925  -0.271  0.00  0.00    -0.298 N 
ATOM      7  N   UNL     1       5.016   0.166   0.119  0.00  0.00    -0.299 N 
ATOM     20  C   UNL     1       1.310  -1.723  -0.045  0.00  0.00    +0.216 C 
ATOM     21  C   UNL     1       3.563  -1.454  -1.035  0.00  0.00    +0.126 C 
ATOM     22  C   UNL     1       2.571   0.480   0.134  0.00  0.00    +0.126 C 
ATOM     23  C   UNL     1       4.875  -1.238  -0.286  0.00  0.00    +0.126 C 
ATOM     24  C   UNL     1       3.883   0.695   0.884  0.00  0.00    +0.126 C 
ATOM     26  C   UNL     1       6.135   0.965  -0.109  0.00  0.00    +0.213 C 
ATOM     28  C   UNL     1       7.287   0.320  -0.836  0.00  0.00    +0.109 C 
ENDBRANCH  15  20
ENDBRANCH  11  15
BRANCH   9  16
ATOM     16  C   UNL     1      -4.389   0.430   0.541  0.00  0.00    +0.112 C 
BRANCH  16   6
ATOM      2  O   UNL     1      -3.687   2.687  -1.126  0.00  0.00    -0.273 OA
ATOM      6  N   UNL     1      -3.437   1.455   0.833  0.00  0.00    -0.313 N 
ATOM     25  C   UNL     1      -3.158   2.513  -0.031  0.00  0.00    +0.239 C 
ATOM     30  H   UNL     1      -2.979   1.440   1.741  0.00  0.00    +0.149 HD
BRANCH  25  27
ATOM     27  C   UNL     1      -2.110   3.450   0.530  0.00  0.00    +0.255 C 
BRANCH  27   3
ATOM      3  O   UNL     1      -1.863   4.514  -0.364  0.00  0.00    -0.374 OA
ATOM     29  C   UNL     1      -0.879   5.414   0.140  0.00  0.00    +0.194 C 
ENDBRANCH  27   3
ENDBRANCH  25  27
ENDBRANCH  16   6
ENDBRANCH   9  16
TORSDOF 7
