REMARK  Name = 45361515
REMARK  10 active torsions:
REMARK  status: ('A' for Active; 'I' for Inactive)
REMARK    1  A    between atoms: O_1  and  C_9
REMARK    2  A    between atoms: N_4  and  C_13
REMARK    3  A    between atoms: N_5  and  C_22
REMARK    4  A    between atoms: C_6  and  C_16
REMARK    5  A    between atoms: C_8  and  C_18
REMARK    6  A    between atoms: C_11  and  C_17
REMARK    7  A    between atoms: C_17  and  C_19
REMARK    8  A    between atoms: C_17  and  C_20
REMARK    9  A    between atoms: C_21  and  C_23
REMARK   10  A    between atoms: C_23  and  C_29
REMARK                            x       y       z     vdW  Elec       q    Type
REMARK                         _______ _______ _______ _____ _____    ______ ____
ROOT
ATOM      6  C   UNL     1      -0.568  -1.730  -1.111  0.00  0.00    -0.027 C 
ATOM      7  C   UNL     1      -0.188  -0.734   0.034  0.00  0.00    +0.028 C 
ATOM      8  C   UNL     1       1.316  -0.911   0.453  0.00  0.00    +0.012 C 
ATOM      9  C   UNL     1      -1.218  -0.796   1.199  0.00  0.00    +0.122 C 
ATOM     10  C   UNL     1      -2.018  -1.454  -1.576  0.00  0.00    +0.007 C 
ATOM     11  C   UNL     1      -2.676  -0.623   0.714  0.00  0.00    +0.029 C 
ATOM     12  C   UNL     1       0.367  -1.490  -2.319  0.00  0.00    +0.009 C 
ATOM     13  C   UNL     1       2.242  -0.741  -0.785  0.00  0.00    +0.076 C 
ATOM     14  C   UNL     1      -3.033  -1.552  -0.445  0.00  0.00    +0.007 C 
ATOM     15  C   UNL     1       1.842  -1.622  -1.968  0.00  0.00    +0.023 C 
ATOM     16  C   UNL     1      -0.461  -3.212  -0.670  0.00  0.00    +0.011 C 
ATOM     18  C   UNL     1       1.765   0.060   1.558  0.00  0.00    +0.010 C 
ENDROOT
BRANCH  13   4
ATOM      3  O   UNL     1       4.562   0.487  -1.964  0.00  0.00    -0.275 OA
ATOM      4  N   UNL     1       3.626  -1.012  -0.459  0.00  0.00    -0.312 N 
ATOM     21  C   UNL     1       4.679  -0.364  -1.086  0.00  0.00    +0.218 C 
ATOM     35  H   UNL     1       3.817  -1.751   0.212  0.00  0.00    +0.149 HD
BRANCH  21  23
ATOM     23  C   UNL     1       6.017  -0.834  -0.549  0.00  0.00    +0.130 C 
BRANCH  23  29
ATOM     29  C   UNL     1       6.833   0.270   0.069  0.00  0.00    -0.039 A 
ATOM     30  C   UNL     1       7.720   1.005  -0.718  0.00  0.00    +0.004 A 
ATOM     31  C   UNL     1       6.702   0.558   1.427  0.00  0.00    +0.004 A 
ATOM     32  C   UNL     1       8.476   2.028  -0.146  0.00  0.00    +0.000 A 
ATOM     33  C   UNL     1       7.458   1.582   1.999  0.00  0.00    +0.000 A 
ATOM     34  C   UNL     1       8.345   2.317   1.212  0.00  0.00    +0.000 A 
ENDBRANCH  23  29
ENDBRANCH  21  23
ENDBRANCH  13   4
BRANCH   9   1
ATOM      1  O   UNL     1      -0.963   0.269   2.117  0.00  0.00    -0.391 OA
ATOM     36  H   UNL     1      -1.047   1.109   1.636  0.00  0.00    +0.210 HD
ENDBRANCH   9   1
BRANCH  11  17
ATOM     17  C   UNL     1      -3.682  -0.816   1.856  0.00  0.00    +0.077 C 
ATOM     19  C   UNL     1      -3.535  -2.211   2.454  0.00  0.00    +0.017 C 
BRANCH  17  20
ATOM      2  O   UNL     1      -5.982  -1.430   1.409  0.00  0.00    -0.276 OA
ATOM      5  N   UNL     1      -5.265   0.693   0.812  0.00  0.00    -0.312 N 
ATOM     20  C   UNL     1      -5.099  -0.577   1.345  0.00  0.00    +0.216 C 
ATOM     37  H   UNL     1      -4.485   1.342   0.818  0.00  0.00    +0.149 HD
BRANCH   5  22
ATOM     22  C   UNL     1      -6.521   1.154   0.263  0.00  0.00    +0.073 C 
ATOM     24  C   UNL     1      -6.640   0.790  -1.221  0.00  0.00    +0.022 C 
ATOM     25  C   UNL     1      -6.698   2.660   0.482  0.00  0.00    +0.022 C 
ATOM     26  C   UNL     1      -5.714   1.626  -2.104  0.00  0.00    +0.002 C 
ATOM     27  C   UNL     1      -5.772   3.493  -0.405  0.00  0.00    +0.002 C 
ATOM     28  C   UNL     1      -5.917   3.121  -1.877  0.00  0.00    +0.000 C 
ENDBRANCH   5  22
ENDBRANCH  17  20
ENDBRANCH  11  17
TORSDOF 7
