REMARK  Name = 28962298
REMARK  11 active torsions:
REMARK  status: ('A' for Active; 'I' for Inactive)
REMARK    1  A    between atoms: O_2  and  C_10
REMARK    2  A    between atoms: O_4  and  C_14
REMARK    3  A    between atoms: N_5  and  C_8
REMARK    4  A    between atoms: N_5  and  C_15
REMARK    5  A    between atoms: N_5  and  C_16
REMARK    6  A    between atoms: N_6  and  C_12
REMARK    7  A    between atoms: N_6  and  C_13
REMARK    8  A    between atoms: C_9  and  C_12
REMARK    9  A    between atoms: C_11  and  C_14
REMARK   10  A    between atoms: C_15  and  C_19
REMARK   11  A    between atoms: C_19  and  C_22
REMARK                            x       y       z     vdW  Elec       q    Type
REMARK                         _______ _______ _______ _____ _____    ______ ____
ROOT
ATOM      1  O   UNL     1       2.421   1.716   1.112  0.00  0.00    -0.366 OA
ATOM      8  C   UNL     1       0.307   2.232   0.147  0.00  0.00    +0.118 C 
ATOM      9  C   UNL     1       1.144   1.120   0.794  0.00  0.00    +0.152 C 
ATOM     10  C   UNL     1       1.362   3.159  -0.437  0.00  0.00    +0.165 C 
ATOM     11  C   UNL     1       2.436   3.077   0.641  0.00  0.00    +0.174 C 
ENDROOT
BRANCH  10   2
ATOM      2  O   UNL     1       1.863   2.665  -1.673  0.00  0.00    -0.388 OA
ATOM     28  H   UNL     1       2.449   3.345  -2.046  0.00  0.00    +0.210 HD
ENDBRANCH  10   2
BRANCH   8   5
ATOM      5  N   UNL     1      -0.723   1.802  -0.782  0.00  0.00    -0.297 NA
ATOM     16  C   UNL     1      -1.129   2.905  -1.658  0.00  0.00    +0.105 C 
BRANCH   5  15
ATOM     15  C   UNL     1      -1.887   1.275  -0.063  0.00  0.00    +0.090 C 
BRANCH  15  19
ATOM     19  C   UNL     1      -2.764   0.428  -0.986  0.00  0.00    +0.071 C 
BRANCH  19  22
ATOM      7  N   UNL     1      -5.085   0.673  -0.293  0.00  0.00    -0.260 NA
ATOM     22  C   UNL     1      -3.977  -0.102  -0.265  0.00  0.00    +0.042 A 
ATOM     23  C   UNL     1      -3.904  -1.327   0.376  0.00  0.00    +0.023 A 
ATOM     24  C   UNL     1      -5.041  -1.788   1.031  0.00  0.00    +0.003 A 
ATOM     25  C   UNL     1      -6.170   0.193   0.355  0.00  0.00    +0.111 A 
ATOM     26  C   UNL     1      -6.199  -1.020   1.025  0.00  0.00    +0.020 A 
ENDBRANCH  19  22
ENDBRANCH  15  19
ENDBRANCH   5  15
ENDBRANCH   8   5
BRANCH   9  12
ATOM     12  C   UNL     1       1.420  -0.113  -0.059  0.00  0.00    +0.114 C 
BRANCH  12   6
ATOM      6  N   UNL     1       2.199  -1.095   0.680  0.00  0.00    -0.311 NA
ATOM     27  H   UNL     1       3.088  -0.673   0.950  0.00  0.00    +0.122 HD
BRANCH   6  13
ATOM      3  O   UNL     1       2.599  -5.156  -0.304  0.00  0.00    -0.380 OA
ATOM     13  C   UNL     1       2.442  -2.287  -0.128  0.00  0.00    +0.058 C 
ATOM     17  C   UNL     1       3.624  -3.080   0.434  0.00  0.00    +0.047 C 
ATOM     18  C   UNL     1       1.195  -3.175  -0.187  0.00  0.00    +0.047 C 
ATOM     20  C   UNL     1       3.800  -4.386  -0.334  0.00  0.00    +0.161 C 
ATOM     21  C   UNL     1       1.506  -4.476  -0.921  0.00  0.00    +0.161 C 
ENDBRANCH   6  13
ENDBRANCH  12   6
ENDBRANCH   9  12
BRANCH  11  14
ATOM     14  C   UNL     1       3.841   3.437   0.193  0.00  0.00    +0.190 C 
BRANCH  14   4
ATOM      4  O   UNL     1       4.719   3.325   1.301  0.00  0.00    -0.392 OA
ATOM     29  H   UNL     1       5.608   3.563   0.988  0.00  0.00    +0.210 HD
ENDBRANCH  14   4
ENDBRANCH  11  14
TORSDOF 10
