REMARK  Name = 40779513
REMARK  13 active torsions:
REMARK  status: ('A' for Active; 'I' for Inactive)
REMARK    1  A    between atoms: O_2  and  C_28
REMARK    2  A    between atoms: O_2  and  C_31
REMARK    3  A    between atoms: O_3  and  C_30
REMARK    4  A    between atoms: O_3  and  C_32
REMARK    5  A    between atoms: N_5  and  C_19
REMARK    6  A    between atoms: N_6  and  C_15
REMARK    7  A    between atoms: C_9  and  C_16
REMARK    8  A    between atoms: C_10  and  C_15
REMARK    9  A    between atoms: C_18  and  C_22
REMARK   10  A    between atoms: C_20  and  C_21
REMARK   11  A    between atoms: C_21  and  C_23
REMARK   12  A    between atoms: C_21  and  C_24
REMARK   13  A    between atoms: C_21  and  C_25
REMARK                            x       y       z     vdW  Elec       q    Type
REMARK                         _______ _______ _______ _____ _____    ______ ____
ROOT
ATOM      4  N   UNL     1      -4.092  -1.753   0.707  0.00  0.00    -0.297 NA
ATOM      8  C   UNL     1      -2.636  -1.927  -1.446  0.00  0.00    +0.002 C 
ATOM      9  C   UNL     1      -1.945  -2.658  -0.262  0.00  0.00    +0.055 C 
ATOM     10  C   UNL     1      -3.922  -0.407   0.097  0.00  0.00    +0.074 C 
ATOM     11  C   UNL     1      -2.897  -0.457  -1.056  0.00  0.00    +0.024 C 
ATOM     12  C   UNL     1      -4.014  -2.597  -1.639  0.00  0.00    +0.019 C 
ATOM     13  C   UNL     1      -2.765  -2.339   1.021  0.00  0.00    +0.094 C 
ATOM     14  C   UNL     1      -4.758  -2.623  -0.292  0.00  0.00    +0.085 C 
ENDROOT
BRANCH   9  16
ATOM      5  N   UNL     1       0.369  -3.395   0.475  0.00  0.00    -0.270 N 
ATOM      7  N   UNL     1       1.653  -3.012   0.569  0.00  0.00    -0.171 NA
ATOM     16  C   UNL     1      -0.452  -2.446  -0.060  0.00  0.00    +0.044 A 
ATOM     17  C   UNL     1       0.352  -1.366  -0.334  0.00  0.00    +0.053 A 
ATOM     18  C   UNL     1       1.637  -1.772   0.074  0.00  0.00    +0.093 A 
ATOM     19  C   UNL     1      -0.009  -4.714   0.928  0.00  0.00    +0.172 C 
BRANCH  18  22
ATOM     22  C   UNL     1       2.848  -0.997   0.001  0.00  0.00    +0.006 A 
ATOM     26  C   UNL     1       2.794   0.394   0.100  0.00  0.00    +0.059 A 
ATOM     27  C   UNL     1       4.076  -1.636  -0.170  0.00  0.00    +0.014 A 
ATOM     28  C   UNL     1       3.967   1.144   0.028  0.00  0.00    +0.162 A 
ATOM     29  C   UNL     1       5.250  -0.885  -0.242  0.00  0.00    +0.050 A 
ATOM     30  C   UNL     1       5.195   0.505  -0.143  0.00  0.00    +0.162 A 
BRANCH  28   2
ATOM      2  O   UNL     1       3.902   2.502   0.126  0.00  0.00    -0.491 OA
ATOM     31  C   UNL     1       2.608   3.077   0.299  0.00  0.00    +0.277 C 
ENDBRANCH  28   2
BRANCH  30   3
ATOM      3  O   UNL     1       6.348   1.227  -0.213  0.00  0.00    -0.491 OA
ATOM     32  C   UNL     1       7.561   0.497  -0.389  0.00  0.00    +0.277 C 
ENDBRANCH  30   3
ENDBRANCH  18  22
ENDBRANCH   9  16
BRANCH  10  15
ATOM     15  C   UNL     1      -3.563   0.660   1.133  0.00  0.00    +0.123 C 
BRANCH  15   6
ATOM      1  O   UNL     1      -1.310   2.401   1.031  0.00  0.00    -0.275 OA
ATOM      6  N   UNL     1      -3.522   1.959   0.534  0.00  0.00    -0.313 N 
ATOM     20  C   UNL     1      -2.376   2.753   0.525  0.00  0.00    +0.218 C 
ATOM     33  H   UNL     1      -4.381   2.316   0.129  0.00  0.00    +0.149 HD
BRANCH  20  21
ATOM     21  C   UNL     1      -2.543   4.118  -0.175  0.00  0.00    +0.039 C 
ATOM     23  C   UNL     1      -3.637   4.939   0.524  0.00  0.00    +0.020 C 
ATOM     24  C   UNL     1      -1.218   4.898  -0.097  0.00  0.00    +0.020 C 
ATOM     25  C   UNL     1      -2.902   3.910  -1.655  0.00  0.00    +0.020 C 
ENDBRANCH  20  21
ENDBRANCH  15   6
ENDBRANCH  10  15
TORSDOF 7
