REMARK  Name = 11943011
REMARK  7 active torsions:
REMARK  status: ('A' for Active; 'I' for Inactive)
REMARK    1  A    between atoms: O_4  and  C_24
REMARK    2  A    between atoms: O_4  and  C_30
REMARK    3  A    between atoms: N_5  and  C_12
REMARK    4  A    between atoms: N_6  and  C_13
REMARK    5  A    between atoms: N_7  and  C_19
REMARK    6  A    between atoms: C_18  and  C_22
REMARK    7  A    between atoms: C_19  and  C_23
REMARK                            x       y       z     vdW  Elec       q    Type
REMARK                         _______ _______ _______ _____ _____    ______ ____
ROOT
ATOM      1  O   UNL     1      -2.140   2.986   0.653  0.00  0.00    -0.370 OA
ATOM      2  O   UNL     1      -0.759   0.641   2.180  0.00  0.00    -0.370 OA
ATOM     10  C   UNL     1      -0.773   1.044   0.800  0.00  0.00    +0.171 C 
ATOM     11  C   UNL     1      -2.167   1.558   0.495  0.00  0.00    +0.171 C 
ATOM     12  C   UNL     1       0.117   2.248   0.596  0.00  0.00    +0.130 C 
ATOM     13  C   UNL     1      -3.032   0.927   1.562  0.00  0.00    +0.131 C 
ATOM     14  C   UNL     1      -0.800   3.404   0.952  0.00  0.00    +0.185 C 
ATOM     15  C   UNL     1      -2.072   0.811   2.733  0.00  0.00    +0.185 C 
ENDROOT
BRANCH  12   5
ATOM      5  N   UNL     1       0.519   2.337  -0.790  0.00  0.00    -0.306 N 
ATOM      8  N   UNL     1       2.302   0.884  -0.464  0.00  0.00    -0.214 NA
ATOM      9  N   UNL     1       1.850   1.843  -2.628  0.00  0.00    -0.223 NA
ATOM     16  C   UNL     1       1.604   1.659  -1.317  0.00  0.00    +0.216 A 
ATOM     18  C   UNL     1       3.353   0.238  -1.011  0.00  0.00    +0.080 A 
ATOM     20  C   UNL     1       2.915   1.168  -3.109  0.00  0.00    +0.116 A 
ATOM     21  C   UNL     1       3.710   0.343  -2.340  0.00  0.00    +0.048 A 
ATOM     31  H   UNL     1      -0.041   2.879  -1.438  0.00  0.00    +0.149 HD
BRANCH  18  22
ATOM     22  C   UNL     1       4.102  -0.593  -0.100  0.00  0.00    +0.042 A 
ATOM     24  C   UNL     1       3.491  -1.654   0.568  0.00  0.00    +0.129 A 
ATOM     25  C   UNL     1       5.455  -0.325   0.108  0.00  0.00    +0.013 A 
ATOM     26  C   UNL     1       4.233  -2.446   1.444  0.00  0.00    +0.046 A 
ATOM     27  C   UNL     1       6.197  -1.117   0.984  0.00  0.00    +0.001 A 
ATOM     29  C   UNL     1       5.586  -2.178   1.652  0.00  0.00    +0.004 A 
BRANCH  24   4
ATOM      4  O   UNL     1       2.171  -1.940   0.384  0.00  0.00    -0.494 OA
ATOM     30  C   UNL     1       1.846  -2.852  -0.661  0.00  0.00    +0.277 C 
ENDBRANCH  24   4
ENDBRANCH  18  22
ENDBRANCH  12   5
BRANCH  13   6
ATOM      3  O   UNL     1      -5.560   0.326   0.306  0.00  0.00    -0.253 OA
ATOM      6  N   UNL     1      -3.511  -0.369   1.148  0.00  0.00    -0.292 N 
ATOM      7  N   UNL     1      -4.960  -1.914   0.248  0.00  0.00    -0.296 N 
ATOM     17  C   UNL     1      -4.752  -0.570   0.545  0.00  0.00    +0.300 C 
ATOM     32  H   UNL     1      -2.889  -1.167   1.240  0.00  0.00    +0.151 HD
ATOM     33  H   UNL     1      -4.226  -2.582   0.466  0.00  0.00    +0.151 HD
BRANCH   7  19
ATOM     19  C   UNL     1      -6.165  -2.399  -0.380  0.00  0.00    +0.132 C 
BRANCH  19  23
ATOM     23  C   UNL     1      -5.987  -2.373  -1.862  0.00  0.00    -0.016 C 
ATOM     28  C   UNL     1      -6.776  -1.686  -2.696  0.00  0.00    +0.005 C 
ENDBRANCH  19  23
ENDBRANCH   7  19
ENDBRANCH  13   6
TORSDOF 6
