REMARK  Name = 11887612
REMARK  8 active torsions:
REMARK  status: ('A' for Active; 'I' for Inactive)
REMARK    1  A    between atoms: S_1  and  N_8
REMARK    2  A    between atoms: S_1  and  C_27
REMARK    3  A    between atoms: N_9  and  C_19
REMARK    4  A    between atoms: C_12  and  C_15
REMARK    5  A    between atoms: C_15  and  C_19
REMARK    6  A    between atoms: C_19  and  C_25
REMARK    7  A    between atoms: C_20  and  C_23
REMARK    8  A    between atoms: C_26  and  C_28
REMARK                            x       y       z     vdW  Elec       q    Type
REMARK                         _______ _______ _______ _____ _____    ______ ____
ROOT
ATOM      7  O   UNL     1      -1.987   1.717  -1.776  0.00  0.00    -0.270 OA
ATOM      8  N   UNL     1       2.095   0.204   0.818  0.00  0.00    -0.162 NA
ATOM     10  N   UNL     1      -0.062   1.647  -0.449  0.00  0.00    -0.294 N 
ATOM     20  C   UNL     1       1.150  -0.506  -0.089  0.00  0.00    +0.183 C 
ATOM     21  C   UNL     1       0.445   0.425  -1.072  0.00  0.00    +0.138 C 
ATOM     22  C   UNL     1       2.185   1.672   0.607  0.00  0.00    +0.129 C 
ATOM     24  C   UNL     1       0.781   2.260   0.584  0.00  0.00    +0.125 C 
ATOM     26  C   UNL     1      -1.259   2.205  -0.912  0.00  0.00    +0.247 C 
ENDROOT
BRANCH  26  28
ATOM      2  F   UNL     1      -3.707   4.708   2.439  0.00  0.00    -0.205 F 
ATOM     28  C   UNL     1      -1.695   3.483  -0.330  0.00  0.00    +0.040 A 
ATOM     31  C   UNL     1      -2.510   3.488   0.799  0.00  0.00    +0.051 A 
ATOM     32  C   UNL     1      -1.291   4.683  -0.910  0.00  0.00    +0.013 A 
ATOM     36  C   UNL     1      -2.923   4.700   1.352  0.00  0.00    +0.124 A 
ATOM     37  C   UNL     1      -1.704   5.895  -0.357  0.00  0.00    +0.004 A 
ATOM     38  C   UNL     1      -2.520   5.904   0.774  0.00  0.00    +0.038 A 
ENDBRANCH  26  28
BRANCH  20  23
ATOM      3  O   UNL     1      -0.141  -0.662   1.909  0.00  0.00    -0.274 OA
ATOM      9  N   UNL     1      -0.281  -2.374   0.338  0.00  0.00    -0.303 N 
ATOM     23  C   UNL     1       0.175  -1.165   0.834  0.00  0.00    +0.234 C 
ATOM     39  H   UNL     1       0.098  -2.725  -0.537  0.00  0.00    +0.149 HD
BRANCH   9  19
ATOM     19  C   UNL     1      -1.214  -3.219   1.048  0.00  0.00    +0.159 C 
BRANCH  19  25
ATOM      6  O   UNL     1       0.676  -4.572   1.756  0.00  0.00    -0.274 OA
ATOM     11  N   UNL     1      -1.119  -4.371   3.174  0.00  0.00    -0.328 N 
ATOM     25  C   UNL     1      -0.434  -4.109   2.006  0.00  0.00    +0.231 C 
ATOM     40  H   UNL     1      -2.044  -3.998   3.360  0.00  0.00    +0.145 HD
ATOM     41  H   UNL     1      -0.713  -4.959   3.894  0.00  0.00    +0.145 HD
ENDBRANCH  19  25
BRANCH  19  15
ATOM     15  C   UNL     1      -2.114  -4.014   0.098  0.00  0.00    +0.035 C 
BRANCH  15  12
ATOM     12  C   UNL     1      -2.887  -3.154  -0.901  0.00  0.00    -0.009 C 
ATOM     13  C   UNL     1      -3.725  -4.033  -1.839  0.00  0.00    +0.003 C 
ATOM     14  C   UNL     1      -3.773  -2.138  -0.168  0.00  0.00    +0.003 C 
ATOM     16  C   UNL     1      -4.548  -3.193  -2.813  0.00  0.00    +0.000 C 
ATOM     17  C   UNL     1      -4.596  -1.301  -1.145  0.00  0.00    +0.000 C 
ATOM     18  C   UNL     1      -5.421  -2.178  -2.082  0.00  0.00    +0.000 C 
ENDBRANCH  15  12
ENDBRANCH  19  15
ENDBRANCH   9  19
ENDBRANCH  20  23
BRANCH   8   1
ATOM      1  S   UNL     1       3.560  -0.597   1.183  0.00  0.00    +0.062 S 
ATOM      4  O   UNL     1       3.330  -2.026   1.192  0.00  0.00    -0.153 OA
ATOM      5  O   UNL     1       4.190   0.063   2.307  0.00  0.00    -0.153 OA
BRANCH   1  27
ATOM     27  C   UNL     1       4.494  -0.210  -0.265  0.00  0.00    +0.106 A 
ATOM     29  C   UNL     1       5.265   0.940  -0.287  0.00  0.00    +0.028 A 
ATOM     30  C   UNL     1       4.437  -1.062  -1.355  0.00  0.00    +0.028 A 
ATOM     33  C   UNL     1       6.002   1.246  -1.431  0.00  0.00    +0.002 A 
ATOM     34  C   UNL     1       5.173  -0.756  -2.500  0.00  0.00    +0.002 A 
ATOM     35  C   UNL     1       5.955   0.398  -2.538  0.00  0.00    +0.000 A 
ENDBRANCH   1  27
ENDBRANCH   8   1
TORSDOF 8
