REMARK  Name = 45783407
REMARK  9 active torsions:
REMARK  status: ('A' for Active; 'I' for Inactive)
REMARK    1  A    between atoms: O_2  and  C_22
REMARK    2  A    between atoms: O_2  and  C_26
REMARK    3  A    between atoms: O_3  and  C_27
REMARK    4  A    between atoms: O_3  and  C_28
REMARK    5  A    between atoms: N_4  and  C_12
REMARK    6  A    between atoms: C_8  and  C_13
REMARK    7  A    between atoms: C_12  and  C_14
REMARK    8  A    between atoms: C_17  and  C_18
REMARK    9  A    between atoms: C_26  and  C_27
REMARK                            x       y       z     vdW  Elec       q    Type
REMARK                         _______ _______ _______ _____ _____    ______ ____
ROOT
ATOM      1  O   UNL     1      -0.813   2.863   1.125  0.00  0.00    -0.336 OA
ATOM      5  N   UNL     1      -1.076   1.163  -0.309  0.00  0.00    -0.190 NA
ATOM      6  N   UNL     1      -2.048   2.280   1.435  0.00  0.00    -0.056 NA
ATOM     13  C   UNL     1      -0.308   2.146   0.087  0.00  0.00    +0.245 A 
ATOM     17  C   UNL     1      -2.132   1.285   0.547  0.00  0.00    +0.207 A 
ENDROOT
BRANCH  17  18
ATOM      7  N   UNL     1      -4.166  -1.788  -0.009  0.00  0.00    -0.221 NA
ATOM     18  C   UNL     1      -3.256   0.396   0.488  0.00  0.00    +0.084 A 
ATOM     22  C   UNL     1      -3.135  -0.917   0.062  0.00  0.00    +0.226 A 
ATOM     23  C   UNL     1      -4.517   0.843   0.867  0.00  0.00    +0.018 A 
ATOM     24  C   UNL     1      -5.603  -0.024   0.807  0.00  0.00    +0.021 A 
ATOM     25  C   UNL     1      -5.376  -1.317   0.366  0.00  0.00    +0.114 A 
BRANCH  22   2
ATOM      2  O   UNL     1      -1.911  -1.404  -0.322  0.00  0.00    -0.474 OA
BRANCH   2  26
ATOM     26  C   UNL     1      -1.869  -2.761  -0.747  0.00  0.00    +0.258 C 
BRANCH  26  27
ATOM     27  C   UNL     1      -0.450  -3.109  -1.151  0.00  0.00    +0.200 C 
BRANCH  27   3
ATOM      3  O   UNL     1      -0.054  -2.269  -2.228  0.00  0.00    -0.380 OA
ATOM     28  C   UNL     1       1.280  -2.537  -2.635  0.00  0.00    +0.194 C 
ENDBRANCH  27   3
ENDBRANCH  26  27
ENDBRANCH   2  26
ENDBRANCH  22   2
ENDBRANCH  17  18
BRANCH  13   8
ATOM      4  N   UNL     1       2.046   1.501  -0.398  0.00  0.00    -0.287 NA
ATOM      8  C   UNL     1       1.042   2.583  -0.442  0.00  0.00    +0.146 C 
ATOM      9  C   UNL     1       0.991   3.010  -1.921  0.00  0.00    +0.030 C 
ATOM     10  C   UNL     1       2.042   2.157  -2.617  0.00  0.00    +0.017 C 
ATOM     11  C   UNL     1       2.979   1.759  -1.495  0.00  0.00    +0.085 C 
BRANCH   4  12
ATOM     12  C   UNL     1       2.725   1.399   0.887  0.00  0.00    +0.120 C 
BRANCH  12  14
ATOM     14  C   UNL     1       3.353   0.045   1.084  0.00  0.00    -0.033 A 
ATOM     15  C   UNL     1       2.623  -0.981   1.683  0.00  0.00    +0.005 A 
ATOM     16  C   UNL     1       4.664  -0.183   0.667  0.00  0.00    +0.005 A 
ATOM     19  C   UNL     1       3.205  -2.236   1.866  0.00  0.00    +0.000 A 
ATOM     20  C   UNL     1       5.246  -1.438   0.850  0.00  0.00    +0.000 A 
ATOM     21  C   UNL     1       4.516  -2.464   1.449  0.00  0.00    +0.000 A 
ENDBRANCH  12  14
ENDBRANCH   4  12
ENDBRANCH  13   8
TORSDOF 8
