REMARK  Name = 11913221
REMARK  7 active torsions:
REMARK  status: ('A' for Active; 'I' for Inactive)
REMARK    1  A    between atoms: S_1  and  N_6
REMARK    2  A    between atoms: S_1  and  C_17
REMARK    3  A    between atoms: N_6  and  C_12
REMARK    4  A    between atoms: N_7  and  C_13
REMARK    5  A    between atoms: C_17  and  C_18
REMARK    6  A    between atoms: C_19  and  C_24
REMARK    7  A    between atoms: C_32  and  C_33
REMARK                            x       y       z     vdW  Elec       q    Type
REMARK                         _______ _______ _______ _____ _____    ______ ____
ROOT
ATOM      7  N   UNL     1      -0.150  -3.474   0.440  0.00  0.00    -0.306 N 
ATOM      8  N   UNL     1      -2.130  -2.342  -0.114  0.00  0.00    -0.214 NA
ATOM      9  N   UNL     1      -1.544  -4.412  -1.199  0.00  0.00    -0.223 NA
ATOM     16  C   UNL     1      -1.309  -3.407  -0.313  0.00  0.00    +0.216 A 
ATOM     19  C   UNL     1      -3.250  -2.309  -0.864  0.00  0.00    +0.076 A 
ATOM     22  C   UNL     1      -2.682  -4.315  -1.916  0.00  0.00    +0.116 A 
ATOM     23  C   UNL     1      -3.582  -3.277  -1.791  0.00  0.00    +0.048 A 
ATOM     40  H   UNL     1       0.479  -4.244   0.245  0.00  0.00    +0.149 HD
ENDROOT
BRANCH   7  13
ATOM      2  O   UNL     1       0.878  -0.149   1.542  0.00  0.00    -0.370 OA
ATOM      3  O   UNL     1       2.559  -2.775   1.755  0.00  0.00    -0.370 OA
ATOM     10  C   UNL     1       2.406  -1.781   0.728  0.00  0.00    +0.170 C 
ATOM     11  C   UNL     1       0.956  -1.339   0.740  0.00  0.00    +0.171 C 
ATOM     12  C   UNL     1       3.175  -0.534   1.090  0.00  0.00    +0.133 C 
ATOM     13  C   UNL     1       0.227  -2.476   1.417  0.00  0.00    +0.130 C 
ATOM     14  C   UNL     1       2.197   0.219   1.970  0.00  0.00    +0.183 C 
ATOM     15  C   UNL     1       1.281  -3.033   2.356  0.00  0.00    +0.185 C 
BRANCH  12   6
ATOM      6  N   UNL     1       3.451   0.255  -0.135  0.00  0.00    -0.186 NA
ATOM     39  H   UNL     1       3.101  -0.119  -1.025  0.00  0.00    +0.148 HD
BRANCH   6   1
ATOM      1  S   UNL     1       4.780   1.319  -0.147  0.00  0.00    +0.034 S 
ATOM      4  O   UNL     1       5.019   1.830   1.188  0.00  0.00    -0.158 OA
ATOM      5  O   UNL     1       4.627   2.224  -1.271  0.00  0.00    -0.158 OA
BRANCH   1  17
ATOM     17  C   UNL     1       6.098   0.195  -0.548  0.00  0.00    +0.220 C 
BRANCH  17  18
ATOM     18  C   UNL     1       7.370   0.984  -0.601  0.00  0.00    -0.025 A 
ATOM     20  C   UNL     1       7.779   1.556  -1.801  0.00  0.00    +0.005 A 
ATOM     21  C   UNL     1       8.136   1.138   0.551  0.00  0.00    +0.005 A 
ATOM     25  C   UNL     1       8.964   2.291  -1.850  0.00  0.00    +0.000 A 
ATOM     26  C   UNL     1       9.321   1.873   0.502  0.00  0.00    +0.000 A 
ATOM     27  C   UNL     1       9.735   2.449  -0.698  0.00  0.00    +0.000 A 
ENDBRANCH  17  18
ENDBRANCH   1  17
ENDBRANCH   6   1
ENDBRANCH  12   6
ENDBRANCH   7  13
BRANCH  19  24
ATOM     24  C   UNL     1      -4.107  -1.169  -0.637  0.00  0.00    +0.001 A 
ATOM     28  C   UNL     1      -3.558   0.050  -0.234  0.00  0.00    +0.010 A 
ATOM     29  C   UNL     1      -5.487  -1.282  -0.821  0.00  0.00    +0.010 A 
ATOM     30  C   UNL     1      -4.386   1.152  -0.015  0.00  0.00    +0.009 A 
ATOM     31  C   UNL     1      -6.314  -0.180  -0.602  0.00  0.00    +0.009 A 
ATOM     32  C   UNL     1      -5.764   1.036  -0.199  0.00  0.00    -0.018 A 
BRANCH  32  33
ATOM     33  C   UNL     1      -6.622   2.179   0.028  0.00  0.00    -0.018 A 
ATOM     34  C   UNL     1      -6.908   3.055  -1.020  0.00  0.00    +0.008 A 
ATOM     35  C   UNL     1      -7.164   2.405   1.293  0.00  0.00    +0.008 A 
ATOM     36  C   UNL     1      -7.736   4.156  -0.802  0.00  0.00    +0.001 A 
ATOM     37  C   UNL     1      -7.991   3.506   1.511  0.00  0.00    +0.001 A 
ATOM     38  C   UNL     1      -8.277   4.382   0.464  0.00  0.00    +0.000 A 
ENDBRANCH  32  33
ENDBRANCH  19  24
TORSDOF 7
