REMARK  Name = 75368422
REMARK  3 active torsions:
REMARK  status: ('A' for Active; 'I' for Inactive)
REMARK    1  A    between atoms: N_6  and  C_17
REMARK    2  A    between atoms: C_13  and  C_14
REMARK    3  A    between atoms: C_17  and  C_20
REMARK                            x       y       z     vdW  Elec       q    Type
REMARK                         _______ _______ _______ _____ _____    ______ ____
ROOT
ATOM      2  O   UNL     1      -2.430   2.738   0.205  0.00  0.00    -0.252 OA
ATOM      3  O   UNL     1       4.081   0.899  -1.428  0.00  0.00    -0.275 OA
ATOM      4  N   UNL     1      -0.427   1.510   0.199  0.00  0.00    -0.278 N 
ATOM      5  N   UNL     1       1.891   0.385  -0.852  0.00  0.00    -0.298 N 
ATOM      6  N   UNL     1      -2.239   0.591   1.160  0.00  0.00    -0.279 N 
ATOM      7  C   UNL     1       0.056   0.268   0.777  0.00  0.00    +0.112 C 
ATOM      8  C   UNL     1       0.886  -0.507  -0.242  0.00  0.00    +0.132 C 
ATOM      9  C   UNL     1      -1.218  -0.439   1.234  0.00  0.00    +0.133 C 
ATOM     10  C   UNL     1       0.497   2.393  -0.488  0.00  0.00    +0.128 C 
ATOM     11  C   UNL     1       1.337   1.594  -1.482  0.00  0.00    +0.127 C 
ATOM     12  C   UNL     1      -1.780   1.741   0.488  0.00  0.00    +0.306 C 
ATOM     14  C   UNL     1       3.264   0.148  -0.889  0.00  0.00    +0.219 C 
ENDROOT
BRANCH  14  13
ATOM      1  O   UNL     1       6.407  -0.839   0.870  0.00  0.00    -0.380 OA
ATOM     13  C   UNL     1       3.746  -1.106  -0.220  0.00  0.00    +0.079 C 
ATOM     15  C   UNL     1       4.985  -1.660  -0.924  0.00  0.00    +0.041 C 
ATOM     16  C   UNL     1       4.010  -0.843   1.262  0.00  0.00    +0.041 C 
ATOM     18  C   UNL     1       6.255  -0.904  -0.546  0.00  0.00    +0.160 C 
ATOM     19  C   UNL     1       5.337  -0.128   1.489  0.00  0.00    +0.160 C 
ENDBRANCH  14  13
BRANCH   6  17
ATOM     17  C   UNL     1      -3.593   0.361   1.613  0.00  0.00    +0.144 C 
BRANCH  17  20
ATOM     20  C   UNL     1      -4.414  -0.362   0.584  0.00  0.00    -0.030 A 
ATOM     21  C   UNL     1      -5.134   0.360  -0.367  0.00  0.00    +0.005 A 
ATOM     22  C   UNL     1      -4.457  -1.756   0.581  0.00  0.00    +0.005 A 
ATOM     23  C   UNL     1      -5.897  -0.311  -1.322  0.00  0.00    +0.000 A 
ATOM     24  C   UNL     1      -5.220  -2.428  -0.374  0.00  0.00    +0.000 A 
ATOM     25  C   UNL     1      -5.940  -1.706  -1.326  0.00  0.00    +0.000 A 
ENDBRANCH  17  20
ENDBRANCH   6  17
TORSDOF 3
