REMARK  Name = 75536998
REMARK  3 active torsions:
REMARK  status: ('A' for Active; 'I' for Inactive)
REMARK    1  A    between atoms: N_5  and  C_14
REMARK    2  A    between atoms: N_7  and  C_19
REMARK    3  A    between atoms: C_14  and  C_16
REMARK                            x       y       z     vdW  Elec       q    Type
REMARK                         _______ _______ _______ _____ _____    ______ ____
ROOT
ATOM      2  O   UNL     1      -2.894  -2.917   0.013  0.00  0.00    -0.252 OA
ATOM      3  O   UNL     1       3.834  -1.795   1.130  0.00  0.00    -0.252 OA
ATOM      4  N   UNL     1      -0.762  -1.951  -0.198  0.00  0.00    -0.278 N 
ATOM      5  N   UNL     1      -2.491  -0.957  -1.235  0.00  0.00    -0.279 N 
ATOM      6  N   UNL     1       1.729  -1.007   0.594  0.00  0.00    -0.282 N 
ATOM      7  N   UNL     1       3.651   0.002  -0.325  0.00  0.00    -0.269 N 
ATOM      8  C   UNL     1      -0.161  -0.867  -0.958  0.00  0.00    +0.112 C 
ATOM      9  C   UNL     1      -1.361  -0.076  -1.472  0.00  0.00    +0.133 C 
ATOM     10  C   UNL     1       0.796  -0.076  -0.073  0.00  0.00    +0.133 C 
ATOM     11  C   UNL     1       0.077  -2.837   0.590  0.00  0.00    +0.128 C 
ATOM     12  C   UNL     1       1.064  -2.022   1.426  0.00  0.00    +0.128 C 
ATOM     13  C   UNL     1      -2.143  -2.054  -0.421  0.00  0.00    +0.306 C 
ATOM     15  C   UNL     1       3.137  -0.984   0.516  0.00  0.00    +0.307 C 
ATOM     28  H   UNL     1       3.083   0.305  -1.109  0.00  0.00    +0.156 HD
ENDROOT
BRANCH   7  19
ATOM     19  C   UNL     1       4.893   0.674  -0.202  0.00  0.00    +0.035 A 
ATOM     23  C   UNL     1       5.257   1.642  -1.138  0.00  0.00    +0.023 A 
ATOM     24  C   UNL     1       5.750   0.368   0.854  0.00  0.00    +0.023 A 
ATOM     25  C   UNL     1       6.479   2.304  -1.018  0.00  0.00    +0.002 A 
ATOM     26  C   UNL     1       6.972   1.031   0.975  0.00  0.00    +0.002 A 
ATOM     27  C   UNL     1       7.337   1.998   0.039  0.00  0.00    +0.000 A 
ENDBRANCH   7  19
BRANCH   5  14
ATOM     14  C   UNL     1      -3.826  -0.628  -1.683  0.00  0.00    +0.144 C 
BRANCH  14  16
ATOM      1  F   UNL     1      -6.409   2.932   1.833  0.00  0.00    -0.205 F 
ATOM     16  C   UNL     1      -4.515   0.322  -0.745  0.00  0.00    -0.030 A 
ATOM     17  C   UNL     1      -5.275  -0.174   0.314  0.00  0.00    +0.008 A 
ATOM     18  C   UNL     1      -4.395   1.698  -0.934  0.00  0.00    +0.008 A 
ATOM     20  C   UNL     1      -5.915   0.708   1.185  0.00  0.00    +0.038 A 
ATOM     21  C   UNL     1      -5.035   2.580  -0.063  0.00  0.00    +0.038 A 
ATOM     22  C   UNL     1      -5.795   2.085   0.997  0.00  0.00    +0.123 A 
ENDBRANCH  14  16
ENDBRANCH   5  14
TORSDOF 3
