REMARK  Name = 7155494
REMARK  4 active torsions:
REMARK  status: ('A' for Active; 'I' for Inactive)
REMARK    1  A    between atoms: N_6  and  C_17
REMARK    2  A    between atoms: C_16  and  C_19
REMARK    3  A    between atoms: C_22  and  C_26
REMARK    4  A    between atoms: C_25  and  C_27
REMARK                            x       y       z     vdW  Elec       q    Type
REMARK                         _______ _______ _______ _____ _____    ______ ____
ROOT
ATOM      1  O   UNL     1      -2.642  -2.720   0.981  0.00  0.00    -0.266 OA
ATOM      2  O   UNL     1       2.220  -2.338   2.707  0.00  0.00    -0.270 OA
ATOM      4  N   UNL     1       2.310  -3.085   0.491  0.00  0.00    -0.297 N 
ATOM      5  N   UNL     1      -0.749  -3.053  -0.347  0.00  0.00    -0.310 N 
ATOM      7  C   UNL     1       0.844  -5.031  -0.016  0.00  0.00    +0.027 C 
ATOM      8  C   UNL     1       1.311  -3.363  -1.765  0.00  0.00    +0.054 C 
ATOM      9  C   UNL     1       1.141  -4.858  -1.502  0.00  0.00    +0.018 C 
ATOM     10  C   UNL     1       2.002  -4.474   0.832  0.00  0.00    +0.113 C 
ATOM     11  C   UNL     1      -0.489  -4.344   0.305  0.00  0.00    +0.130 C 
ATOM     12  C   UNL     1       2.501  -2.825  -0.945  0.00  0.00    +0.117 C 
ATOM     13  C   UNL     1       0.052  -2.598  -1.400  0.00  0.00    +0.027 A 
ATOM     14  C   UNL     1      -0.271  -1.473  -2.059  0.00  0.00    +0.024 A 
ATOM     15  C   UNL     1      -1.897  -2.351   0.072  0.00  0.00    +0.273 A 
ATOM     16  C   UNL     1       2.379  -2.127   1.506  0.00  0.00    +0.247 C 
ATOM     17  C   UNL     1      -2.207  -1.087  -0.669  0.00  0.00    +0.099 A 
ATOM     18  C   UNL     1      -1.424  -0.704  -1.683  0.00  0.00    +0.030 A 
ENDROOT
BRANCH  16  19
ATOM     19  C   UNL     1       2.644  -0.737   1.121  0.00  0.00    +0.037 A 
ATOM     20  C   UNL     1       1.582   0.117   0.834  0.00  0.00    +0.013 A 
ATOM     21  C   UNL     1       3.956  -0.278   1.047  0.00  0.00    +0.013 A 
ATOM     23  C   UNL     1       1.835   1.440   0.470  0.00  0.00    +0.009 A 
ATOM     24  C   UNL     1       4.209   1.045   0.683  0.00  0.00    +0.009 A 
ATOM     25  C   UNL     1       3.148   1.904   0.395  0.00  0.00    -0.018 A 
BRANCH  25  27
ATOM     27  C   UNL     1       3.410   3.276   0.016  0.00  0.00    -0.018 A 
ATOM     30  C   UNL     1       3.585   3.607  -1.328  0.00  0.00    +0.008 A 
ATOM     31  C   UNL     1       3.486   4.266   0.994  0.00  0.00    +0.008 A 
ATOM     34  C   UNL     1       3.835   4.929  -1.693  0.00  0.00    +0.001 A 
ATOM     35  C   UNL     1       3.737   5.589   0.629  0.00  0.00    +0.001 A 
ATOM     37  C   UNL     1       3.911   5.921  -0.715  0.00  0.00    +0.000 A 
ENDBRANCH  25  27
ENDBRANCH  16  19
BRANCH  17   6
ATOM      3  O   UNL     1      -2.550   1.734  -0.934  0.00  0.00    -0.270 OA
ATOM      6  N   UNL     1      -3.300  -0.369  -0.282  0.00  0.00    -0.277 N 
ATOM     22  C   UNL     1      -3.407   1.006  -0.438  0.00  0.00    +0.248 C 
ATOM     38  H   UNL     1      -3.979  -0.883   0.268  0.00  0.00    +0.155 HD
BRANCH  22  26
ATOM     26  C   UNL     1      -4.684   1.609   0.024  0.00  0.00    +0.037 A 
ATOM     28  C   UNL     1      -5.119   2.779  -0.564  0.00  0.00    +0.013 A 
ATOM     29  C   UNL     1      -5.393   0.980   1.025  0.00  0.00    +0.013 A 
ATOM     32  C   UNL     1      -6.319   3.344  -0.131  0.00  0.00    +0.001 A 
ATOM     33  C   UNL     1      -6.592   1.544   1.459  0.00  0.00    +0.001 A 
ATOM     36  C   UNL     1      -7.055   2.727   0.881  0.00  0.00    +0.000 A 
ENDBRANCH  22  26
ENDBRANCH  17   6
TORSDOF 4
