REMARK  Name = 45783498
REMARK  9 active torsions:
REMARK  status: ('A' for Active; 'I' for Inactive)
REMARK    1  A    between atoms: O_3  and  C_30
REMARK    2  A    between atoms: O_3  and  C_31
REMARK    3  A    between atoms: N_4  and  C_13
REMARK    4  A    between atoms: N_8  and  C_28
REMARK    5  A    between atoms: N_8  and  C_29
REMARK    6  A    between atoms: C_9  and  C_14
REMARK    7  A    between atoms: C_13  and  C_15
REMARK    8  A    between atoms: C_18  and  C_20
REMARK    9  A    between atoms: C_29  and  C_30
REMARK                            x       y       z     vdW  Elec       q    Type
REMARK                         _______ _______ _______ _____ _____    ______ ____
ROOT
ATOM      1  O   UNL     1      -2.522  -1.796   1.877  0.00  0.00    -0.336 OA
ATOM      5  N   UNL     1      -1.598  -1.185  -0.069  0.00  0.00    -0.190 NA
ATOM      6  N   UNL     1      -1.136  -1.838   2.075  0.00  0.00    -0.056 NA
ATOM     14  C   UNL     1      -2.708  -1.403   0.590  0.00  0.00    +0.245 A 
ATOM     18  C   UNL     1      -0.661  -1.464   0.883  0.00  0.00    +0.204 A 
ENDROOT
BRANCH  18  20
ATOM      7  N   UNL     1       3.021  -1.573   1.395  0.00  0.00    -0.240 NA
ATOM     20  C   UNL     1       0.744  -1.362   0.610  0.00  0.00    +0.041 A 
ATOM     25  C   UNL     1       1.204  -0.972  -0.643  0.00  0.00    +0.016 A 
ATOM     26  C   UNL     1       1.684  -1.649   1.586  0.00  0.00    +0.124 A 
ATOM     27  C   UNL     1       2.571  -0.881  -0.878  0.00  0.00    +0.044 A 
ATOM     28  C   UNL     1       3.430  -1.190   0.165  0.00  0.00    +0.119 A 
BRANCH  28   8
ATOM      8  N   UNL     1       4.821  -1.094  -0.091  0.00  0.00    -0.327 N 
ATOM     32  H   UNL     1       5.438  -1.319   0.681  0.00  0.00    +0.148 HD
BRANCH   8  29
ATOM     29  C   UNL     1       5.346  -0.700  -1.357  0.00  0.00    +0.131 C 
BRANCH  29  30
ATOM     30  C   UNL     1       6.864  -0.728  -1.322  0.00  0.00    +0.178 C 
BRANCH  30   3
ATOM      3  O   UNL     1       7.333   0.194  -0.346  0.00  0.00    -0.381 OA
ATOM     31  C   UNL     1       8.752   0.208  -0.281  0.00  0.00    +0.194 C 
ENDBRANCH  30   3
ENDBRANCH  29  30
ENDBRANCH   8  29
ENDBRANCH  28   8
ENDBRANCH  18  20
BRANCH  14   9
ATOM      4  N   UNL     1      -4.302  -0.291  -0.964  0.00  0.00    -0.284 NA
ATOM      9  C   UNL     1      -4.143  -1.278   0.123  0.00  0.00    +0.146 C 
ATOM     10  C   UNL     1      -4.695  -2.592  -0.459  0.00  0.00    +0.030 C 
ATOM     11  C   UNL     1      -5.196  -2.232  -1.851  0.00  0.00    +0.017 C 
ATOM     12  C   UNL     1      -5.441  -0.739  -1.766  0.00  0.00    +0.085 C 
BRANCH   4  13
ATOM     13  C   UNL     1      -4.475   1.073  -0.479  0.00  0.00    +0.159 C 
BRANCH  13  15
ATOM      2  O   UNL     1      -2.220   1.775  -1.062  0.00  0.00    -0.458 OA
ATOM     15  C   UNL     1      -3.163   1.700  -0.088  0.00  0.00    +0.120 A 
ATOM     16  C   UNL     1      -2.692   2.234   1.089  0.00  0.00    +0.054 A 
ATOM     17  C   UNL     1      -1.367   2.671   0.828  0.00  0.00    +0.020 A 
ATOM     19  C   UNL     1      -1.124   2.366  -0.507  0.00  0.00    +0.135 A 
ATOM     21  C   UNL     1      -0.346   3.289   1.572  0.00  0.00    +0.011 A 
ATOM     22  C   UNL     1       0.074   2.636  -1.165  0.00  0.00    +0.047 A 
ATOM     23  C   UNL     1       0.871   3.572   0.938  0.00  0.00    +0.001 A 
ATOM     24  C   UNL     1       1.075   3.250  -0.406  0.00  0.00    +0.004 A 
ENDBRANCH  13  15
ENDBRANCH   4  13
ENDBRANCH  14   9
TORSDOF 8
