REMARK  Name = 7674790
REMARK  4 active torsions:
REMARK  status: ('A' for Active; 'I' for Inactive)
REMARK    1  A    between atoms: N_5  and  C_19
REMARK    2  A    between atoms: C_13  and  C_18
REMARK    3  A    between atoms: C_19  and  C_25
REMARK    4  A    between atoms: C_19  and  C_26
REMARK                            x       y       z     vdW  Elec       q    Type
REMARK                         _______ _______ _______ _____ _____    ______ ____
ROOT
ATOM      1  O   UNL     1      -2.914   3.200   1.645  0.00  0.00    -0.268 OA
ATOM      2  O   UNL     1      -1.571  -2.425   0.412  0.00  0.00    -0.253 OA
ATOM      3  N   UNL     1      -2.008  -0.822  -1.210  0.00  0.00    -0.285 N 
ATOM      4  N   UNL     1      -1.580   2.079   0.081  0.00  0.00    -0.311 N 
ATOM      5  N   UNL     1      -3.755  -1.854   0.004  0.00  0.00    -0.297 N 
ATOM      6  C   UNL     1      -2.484   1.418  -2.223  0.00  0.00    +0.027 C 
ATOM      7  C   UNL     1      -0.183   0.836  -1.600  0.00  0.00    +0.054 C 
ATOM      8  C   UNL     1      -1.035   1.518  -2.667  0.00  0.00    +0.018 C 
ATOM      9  C   UNL     1      -2.923  -0.050  -2.062  0.00  0.00    +0.114 C 
ATOM     10  C   UNL     1      -2.646   2.205  -0.922  0.00  0.00    +0.130 C 
ATOM     11  C   UNL     1      -0.584  -0.649  -1.512  0.00  0.00    +0.119 C 
ATOM     12  C   UNL     1      -0.331   1.508  -0.232  0.00  0.00    +0.034 A 
ATOM     13  C   UNL     1       0.676   1.545   0.679  0.00  0.00    +0.002 A 
ATOM     14  C   UNL     1      -1.848   2.673   1.327  0.00  0.00    +0.252 A 
ATOM     15  C   UNL     1      -2.387  -1.746  -0.220  0.00  0.00    +0.302 C 
ATOM     16  C   UNL     1       0.435   2.143   1.978  0.00  0.00    +0.015 A 
ATOM     17  C   UNL     1      -0.744   2.667   2.313  0.00  0.00    +0.071 A 
ATOM     31  H   UNL     1      -4.423  -1.414  -0.613  0.00  0.00    +0.150 HD
ENDROOT
BRANCH  13  18
ATOM     18  C   UNL     1       2.010   0.973   0.391  0.00  0.00    -0.016 A 
ATOM     20  C   UNL     1       2.266  -0.364   0.680  0.00  0.00    +0.017 A 
ATOM     21  C   UNL     1       2.997   1.775  -0.167  0.00  0.00    +0.009 A 
ATOM     22  C   UNL     1       3.526  -0.922   0.412  0.00  0.00    -0.017 A 
ATOM     23  C   UNL     1       4.255   1.237  -0.440  0.00  0.00    +0.009 A 
ATOM     24  C   UNL     1       4.536  -0.109  -0.156  0.00  0.00    -0.018 A 
ATOM     27  C   UNL     1       3.807  -2.268   0.695  0.00  0.00    +0.008 A 
ATOM     28  C   UNL     1       5.797  -0.667  -0.424  0.00  0.00    +0.008 A 
ATOM     29  C   UNL     1       5.066  -2.806   0.423  0.00  0.00    +0.001 A 
ATOM     30  C   UNL     1       6.059  -2.006  -0.136  0.00  0.00    +0.001 A 
ENDBRANCH  13  18
BRANCH   5  19
ATOM     19  C   UNL     1      -4.304  -2.763   0.985  0.00  0.00    +0.068 C 
ATOM     25  C   UNL     1      -4.548  -4.131   0.362  0.00  0.00    +0.027 C 
ATOM     26  C   UNL     1      -5.584  -2.194   1.584  0.00  0.00    +0.027 C 
ENDBRANCH   5  19
TORSDOF 2
