REMARK  Name = 9421722
REMARK  5 active torsions:
REMARK  status: ('A' for Active; 'I' for Inactive)
REMARK    1  A    between atoms: S_1  and  N_5
REMARK    2  A    between atoms: S_1  and  C_23
REMARK    3  A    between atoms: C_14  and  C_15
REMARK    4  A    between atoms: C_23  and  C_25
REMARK    5  A    between atoms: C_25  and  C_26
REMARK                            x       y       z     vdW  Elec       q    Type
REMARK                         _______ _______ _______ _____ _____    ______ ____
ROOT
ATOM      4  O   UNL     1       2.071   0.943   1.981  0.00  0.00    -0.267 OA
ATOM      5  N   UNL     1      -2.496   0.102   0.181  0.00  0.00    -0.180 NA
ATOM      6  N   UNL     1       0.428   1.290   0.359  0.00  0.00    -0.312 N 
ATOM      7  C   UNL     1      -1.820   2.401   0.882  0.00  0.00    +0.025 C 
ATOM      8  C   UNL     1      -1.341   1.634  -1.401  0.00  0.00    +0.052 C 
ATOM      9  C   UNL     1      -1.781   2.839  -0.576  0.00  0.00    +0.017 C 
ATOM     10  C   UNL     1      -2.822   1.250   1.074  0.00  0.00    +0.114 C 
ATOM     11  C   UNL     1      -2.374   0.502  -1.253  0.00  0.00    +0.118 C 
ATOM     12  C   UNL     1      -0.401   2.022   1.326  0.00  0.00    +0.130 C 
ATOM     13  C   UNL     1       0.034   1.153  -0.974  0.00  0.00    +0.026 A 
ATOM     15  C   UNL     1       2.565   0.167  -0.195  0.00  0.00    +0.020 A 
ATOM     16  C   UNL     1       1.676   0.827   0.820  0.00  0.00    +0.255 A 
ATOM     17  C   UNL     1       0.859   0.579  -1.864  0.00  0.00    +0.022 A 
ATOM     20  C   UNL     1       2.142   0.079  -1.463  0.00  0.00    +0.011 A 
ENDROOT
BRANCH  15  14
ATOM     14  C   UNL     1       3.893  -0.351   0.268  0.00  0.00    +0.024 C 
ATOM     18  C   UNL     1       5.042   0.372  -0.449  0.00  0.00    +0.008 C 
ATOM     19  C   UNL     1       3.991  -1.869   0.058  0.00  0.00    +0.008 C 
ATOM     21  C   UNL     1       6.404  -0.174  -0.027  0.00  0.00    +0.001 C 
ATOM     22  C   UNL     1       5.356  -2.411   0.478  0.00  0.00    +0.001 C 
ATOM     24  C   UNL     1       6.493  -1.683  -0.231  0.00  0.00    +0.000 C 
ENDBRANCH  15  14
BRANCH   5   1
ATOM      1  S   UNL     1      -3.373  -1.337   0.475  0.00  0.00    +0.032 S 
ATOM      2  O   UNL     1      -3.547  -1.493   1.903  0.00  0.00    -0.158 OA
ATOM      3  O   UNL     1      -2.820  -2.396  -0.342  0.00  0.00    -0.158 OA
BRANCH   1  23
ATOM     23  C   UNL     1      -4.936  -0.866  -0.220  0.00  0.00    +0.185 C 
BRANCH  23  25
ATOM     25  C   UNL     1      -5.955  -1.987  -0.099  0.00  0.00    +0.021 C 
ATOM     26  C   UNL     1      -7.289  -1.593  -0.712  0.00  0.00    +0.005 C 
ENDBRANCH  23  25
ENDBRANCH   1  23
ENDBRANCH   5   1
TORSDOF 4
