REMARK  Name = 26745158
REMARK  3 active torsions:
REMARK  status: ('A' for Active; 'I' for Inactive)
REMARK    1  A    between atoms: N_9  and  C_21
REMARK    2  A    between atoms: C_10  and  C_15
REMARK    3  A    between atoms: C_17  and  C_18
REMARK                            x       y       z     vdW  Elec       q    Type
REMARK                         _______ _______ _______ _____ _____    ______ ____
ROOT
ATOM      1  O   UNL     1       0.581  -2.542   0.125  0.00  0.00    -0.336 OA
ATOM      7  N   UNL     1      -0.165  -0.442  -0.094  0.00  0.00    -0.190 NA
ATOM      8  N   UNL     1      -0.814  -2.614   0.217  0.00  0.00    -0.056 NA
ATOM     15  C   UNL     1       0.880  -1.230  -0.057  0.00  0.00    +0.245 A 
ATOM     17  C   UNL     1      -1.181  -1.336   0.079  0.00  0.00    +0.202 A 
ENDROOT
BRANCH  15  10
ATOM      4  N   UNL     1       2.657  -0.322  -1.538  0.00  0.00    -0.300 NA
ATOM      5  N   UNL     1       5.966   1.056  -0.467  0.00  0.00    -0.347 N 
ATOM      6  N   UNL     1       5.018   1.191   1.555  0.00  0.00    -0.240 NA
ATOM     10  C   UNL     1       2.353  -0.883  -0.190  0.00  0.00    +0.149 C 
ATOM     11  C   UNL     1       2.820   0.058   0.969  0.00  0.00    +0.085 C 
ATOM     12  C   UNL     1       4.181   0.567   0.676  0.00  0.00    +0.065 A 
ATOM     13  C   UNL     1       4.114  -0.154  -1.758  0.00  0.00    +0.137 C 
ATOM     14  C   UNL     1       4.739   0.476  -0.576  0.00  0.00    +0.053 A 
ATOM     16  C   UNL     1       6.088   1.472   0.836  0.00  0.00    +0.197 A 
ATOM     24  H   UNL     1       2.209   0.592  -1.615  0.00  0.00    +0.123 HD
ATOM     25  H   UNL     1       6.658   1.160  -1.198  0.00  0.00    +0.167 HD
ENDBRANCH  15  10
BRANCH  17  18
ATOM     18  C   UNL     1      -2.554  -0.919   0.109  0.00  0.00    +0.025 A 
ATOM     19  C   UNL     1      -2.877   0.429  -0.040  0.00  0.00    +0.044 A 
ATOM     20  C   UNL     1      -3.564  -1.864   0.288  0.00  0.00    +0.012 A 
ATOM     21  C   UNL     1      -4.212   0.833  -0.010  0.00  0.00    +0.127 A 
ATOM     22  C   UNL     1      -4.899  -1.460   0.318  0.00  0.00    +0.003 A 
ATOM     23  C   UNL     1      -5.223  -0.111   0.169  0.00  0.00    +0.033 A 
BRANCH  21   9
ATOM      2  O   UNL     1      -5.749   2.548  -0.131  0.00  0.00    -0.126 OA
ATOM      3  O   UNL     1      -3.618   3.040  -0.321  0.00  0.00    -0.126 OA
ATOM      9  N   UNL     1      -4.542   2.206  -0.161  0.00  0.00    +0.056 N 
ENDBRANCH  21   9
ENDBRANCH  17  18
TORSDOF 3
