REMARK  Name = 40779317
REMARK  5 active torsions:
REMARK  status: ('A' for Active; 'I' for Inactive)
REMARK    1  A    between atoms: N_5  and  C_20
REMARK    2  A    between atoms: N_6  and  C_16
REMARK    3  A    between atoms: C_10  and  C_17
REMARK    4  A    between atoms: C_11  and  C_16
REMARK    5  A    between atoms: C_19  and  C_22
REMARK                            x       y       z     vdW  Elec       q    Type
REMARK                         _______ _______ _______ _____ _____    ______ ____
ROOT
ATOM      4  N   UNL     1      -0.334   3.184  -0.640  0.00  0.00    -0.297 NA
ATOM      9  C   UNL     1       0.770   2.208   1.508  0.00  0.00    +0.002 C 
ATOM     10  C   UNL     1       1.806   2.290   0.354  0.00  0.00    +0.055 C 
ATOM     11  C   UNL     1      -1.170   2.083  -0.094  0.00  0.00    +0.074 C 
ATOM     12  C   UNL     1      -0.435   1.357   1.054  0.00  0.00    +0.024 C 
ATOM     13  C   UNL     1       0.249   3.643   1.742  0.00  0.00    +0.019 C 
ATOM     14  C   UNL     1       1.032   2.685  -0.936  0.00  0.00    +0.094 C 
ATOM     15  C   UNL     1      -0.227   4.233   0.403  0.00  0.00    +0.085 C 
ENDROOT
BRANCH  10  17
ATOM      5  N   UNL     1       3.994   1.223  -0.365  0.00  0.00    -0.270 N 
ATOM      7  N   UNL     1       4.645   0.053  -0.487  0.00  0.00    -0.168 NA
ATOM     17  C   UNL     1       2.729   1.100   0.132  0.00  0.00    +0.044 A 
ATOM     18  C   UNL     1       2.540  -0.243   0.350  0.00  0.00    +0.056 A 
ATOM     19  C   UNL     1       3.752  -0.838  -0.048  0.00  0.00    +0.128 A 
ATOM     20  C   UNL     1       4.660   2.444  -0.753  0.00  0.00    +0.172 C 
BRANCH  19  22
ATOM      2  O   UNL     1       3.186  -3.231   0.431  0.00  0.00    -0.461 OA
ATOM     22  C   UNL     1       4.053  -2.280  -0.005  0.00  0.00    +0.155 A 
ATOM     27  C   UNL     1       5.241  -2.853  -0.397  0.00  0.00    +0.051 A 
ATOM     28  C   UNL     1       5.094  -4.245  -0.188  0.00  0.00    +0.042 A 
ATOM     29  C   UNL     1       3.827  -4.424   0.317  0.00  0.00    +0.196 A 
ENDBRANCH  19  22
ENDBRANCH  10  17
BRANCH  11  16
ATOM     16  C   UNL     1      -1.633   1.109  -1.180  0.00  0.00    +0.124 C 
BRANCH  16   6
ATOM      1  O   UNL     1      -4.433   1.353  -1.030  0.00  0.00    -0.253 OA
ATOM      3  O   UNL     1      -6.300  -2.973   0.480  0.00  0.00    -0.377 OA
ATOM      6  N   UNL     1      -2.538   0.121  -0.635  0.00  0.00    -0.298 N 
ATOM      8  N   UNL     1      -4.660  -0.729  -0.033  0.00  0.00    -0.281 N 
ATOM     21  C   UNL     1      -3.913   0.319  -0.598  0.00  0.00    +0.302 C 
ATOM     23  C   UNL     1      -6.117  -0.602   0.053  0.00  0.00    +0.137 C 
ATOM     24  C   UNL     1      -4.115  -1.918   0.638  0.00  0.00    +0.137 C 
ATOM     25  C   UNL     1      -6.801  -1.905  -0.326  0.00  0.00    +0.179 C 
ATOM     26  C   UNL     1      -4.903  -3.166   0.254  0.00  0.00    +0.179 C 
ATOM     30  H   UNL     1      -2.113  -0.724  -0.283  0.00  0.00    +0.150 HD
ENDBRANCH  16   6
ENDBRANCH  11  16
TORSDOF 4
