REMARK  Name = 51137436
REMARK  4 active torsions:
REMARK  status: ('A' for Active; 'I' for Inactive)
REMARK    1  A    between atoms: N_3  and  C_6
REMARK    2  A    between atoms: C_7  and  C_15
REMARK    3  A    between atoms: C_16  and  C_17
REMARK    4  A    between atoms: C_22  and  C_23
REMARK                            x       y       z     vdW  Elec       q    Type
REMARK                         _______ _______ _______ _____ _____    ______ ____
ROOT
ATOM      2  O   UNL     1       1.079   0.840  -0.137  0.00  0.00    -0.420 OA
ATOM      4  N   UNL     1       1.186   2.936   0.635  0.00  0.00    -0.112 NA
ATOM      5  N   UNL     1       2.446   2.377   0.741  0.00  0.00    -0.107 NA
ATOM     15  C   UNL     1       0.421   2.003   0.118  0.00  0.00    +0.222 A 
ATOM     16  C   UNL     1       2.336   1.154   0.279  0.00  0.00    +0.248 A 
ENDROOT
BRANCH  16  17
ATOM     17  C   UNL     1       3.318   0.117   0.147  0.00  0.00    +0.038 A 
ATOM     18  C   UNL     1       4.634   0.348   0.548  0.00  0.00    +0.013 A 
ATOM     19  C   UNL     1       2.957  -1.123  -0.381  0.00  0.00    +0.013 A 
ATOM     20  C   UNL     1       5.589  -0.661   0.420  0.00  0.00    +0.004 A 
ATOM     21  C   UNL     1       3.912  -2.131  -0.508  0.00  0.00    +0.004 A 
ATOM     22  C   UNL     1       5.228  -1.900  -0.108  0.00  0.00    -0.050 A 
ATOM     23  C   UNL     1       6.250  -2.978  -0.245  0.00  0.00    +0.044 C 
ENDBRANCH  16  17
BRANCH  15   7
ATOM      3  N   UNL     1      -2.968   0.704  -0.388  0.00  0.00    -0.298 NA
ATOM      7  C   UNL     1      -1.051   2.045  -0.224  0.00  0.00    +0.092 C 
ATOM      8  C   UNL     1      -1.872   0.996   0.538  0.00  0.00    +0.097 C 
ATOM      9  C   UNL     1      -2.335   0.609  -1.703  0.00  0.00    +0.085 C 
ATOM     10  C   UNL     1      -1.378   1.794  -1.706  0.00  0.00    +0.029 C 
BRANCH   3   6
ATOM      1  O   UNL     1      -6.177  -1.789   0.664  0.00  0.00    -0.380 OA
ATOM      6  C   UNL     1      -3.692  -0.513  -0.029  0.00  0.00    +0.061 C 
ATOM     11  C   UNL     1      -4.763  -0.845  -1.072  0.00  0.00    +0.047 C 
ATOM     12  C   UNL     1      -4.335  -0.362   1.353  0.00  0.00    +0.047 C 
ATOM     13  C   UNL     1      -5.596  -2.038  -0.616  0.00  0.00    +0.161 C 
ATOM     14  C   UNL     1      -5.191  -1.582   1.675  0.00  0.00    +0.161 C 
ENDBRANCH   3   6
ENDBRANCH  15   7
TORSDOF 3
