REMARK  Name = 26743391
REMARK  9 active torsions:
REMARK  status: ('A' for Active; 'I' for Inactive)
REMARK    1  A    between atoms: S_1  and  N_6
REMARK    2  A    between atoms: S_1  and  C_20
REMARK    3  A    between atoms: O_5  and  C_26
REMARK    4  A    between atoms: O_5  and  C_29
REMARK    5  A    between atoms: N_6  and  C_11
REMARK    6  A    between atoms: N_7  and  C_19
REMARK    7  A    between atoms: C_9  and  C_12
REMARK    8  A    between atoms: C_15  and  C_17
REMARK    9  A    between atoms: C_16  and  C_18
REMARK                            x       y       z     vdW  Elec       q    Type
REMARK                         _______ _______ _______ _____ _____    ______ ____
ROOT
ATOM      9  C   UNL     1       0.771  -1.717  -0.009  0.00  0.00    +0.047 C 
ATOM     10  C   UNL     1       1.631  -0.538  -0.510  0.00  0.00    +0.037 C 
ATOM     11  C   UNL     1       2.756  -0.372   0.517  0.00  0.00    +0.100 C 
ATOM     13  C   UNL     1       1.125  -1.781   1.448  0.00  0.00    -0.021 C 
ATOM     14  C   UNL     1       2.209  -1.052   1.728  0.00  0.00    -0.010 C 
ENDROOT
BRANCH   9  12
ATOM      7  N   UNL     1      -2.758  -0.809  -0.387  0.00  0.00    -0.236 N 
ATOM      8  N   UNL     1      -2.803  -1.948  -1.098  0.00  0.00    -0.171 NA
ATOM     12  C   UNL     1      -0.704  -1.545  -0.293  0.00  0.00    +0.003 A 
ATOM     15  C   UNL     1      -1.523  -0.522   0.117  0.00  0.00    +0.046 A 
ATOM     16  C   UNL     1      -1.545  -2.393  -1.038  0.00  0.00    +0.064 A 
ATOM     17  C   UNL     1      -1.238   0.679   0.928  0.00  0.00    +0.066 C 
ATOM     18  C   UNL     1      -1.188  -3.652  -1.717  0.00  0.00    +0.068 C 
BRANCH   7  19
ATOM     19  C   UNL     1      -3.916  -0.047  -0.226  0.00  0.00    +0.066 A 
ATOM     21  C   UNL     1      -3.955   1.269  -0.687  0.00  0.00    +0.031 A 
ATOM     22  C   UNL     1      -5.034  -0.602   0.397  0.00  0.00    +0.031 A 
ATOM     24  C   UNL     1      -5.112   2.031  -0.524  0.00  0.00    +0.048 A 
ATOM     25  C   UNL     1      -6.191   0.160   0.559  0.00  0.00    +0.048 A 
ATOM     26  C   UNL     1      -6.230   1.476   0.099  0.00  0.00    +0.120 A 
BRANCH  26   5
ATOM      5  O   UNL     1      -7.359   2.220   0.257  0.00  0.00    -0.495 OA
ATOM     29  C   UNL     1      -8.465   1.591   0.902  0.00  0.00    +0.277 C 
ENDBRANCH  26   5
ENDBRANCH   7  19
ENDBRANCH   9  12
BRANCH  11   6
ATOM      6  N   UNL     1       3.975  -1.082   0.074  0.00  0.00    -0.183 NA
ATOM     30  H   UNL     1       3.853  -2.086  -0.110  0.00  0.00    +0.149 HD
BRANCH   6   1
ATOM      1  S   UNL     1       5.504  -0.559   0.605  0.00  0.00    +0.065 S 
ATOM      3  O   UNL     1       6.535  -1.320  -0.073  0.00  0.00    -0.153 OA
ATOM      4  O   UNL     1       5.494  -0.471   2.052  0.00  0.00    -0.153 OA
BRANCH   1  20
ATOM      2  S   UNL     1       5.687   1.224  -1.715  0.00  0.00    -0.077 S 
ATOM     20  C   UNL     1       5.554   1.097  -0.012  0.00  0.00    +0.142 A 
ATOM     23  C   UNL     1       5.510   2.332   0.597  0.00  0.00    +0.036 A 
ATOM     27  C   UNL     1       5.585   3.397  -0.347  0.00  0.00    +0.010 A 
ATOM     28  C   UNL     1       5.684   2.935  -1.641  0.00  0.00    +0.047 A 
ENDBRANCH   1  20
ENDBRANCH   6   1
ENDBRANCH  11   6
TORSDOF 6
