REMARK  Name = 11942696
REMARK  6 active torsions:
REMARK  status: ('A' for Active; 'I' for Inactive)
REMARK    1  A    between atoms: N_4  and  C_11
REMARK    2  A    between atoms: N_5  and  C_12
REMARK    3  A    between atoms: N_6  and  C_18
REMARK    4  A    between atoms: C_17  and  C_21
REMARK    5  A    between atoms: C_18  and  C_22
REMARK    6  A    between atoms: C_27  and  C_29
REMARK                            x       y       z     vdW  Elec       q    Type
REMARK                         _______ _______ _______ _____ _____    ______ ____
ROOT
ATOM      4  N   UNL     1       1.572  -2.806   0.512  0.00  0.00    -0.306 N 
ATOM      7  N   UNL     1      -0.537  -2.072  -0.122  0.00  0.00    -0.214 NA
ATOM      8  N   UNL     1       0.591  -3.825  -1.329  0.00  0.00    -0.223 NA
ATOM     15  C   UNL     1       0.495  -2.905  -0.350  0.00  0.00    +0.216 A 
ATOM     17  C   UNL     1      -1.570  -2.196  -0.981  0.00  0.00    +0.076 A 
ATOM     19  C   UNL     1      -0.476  -3.896  -2.151  0.00  0.00    +0.116 A 
ATOM     20  C   UNL     1      -1.595  -3.098  -2.025  0.00  0.00    +0.048 A 
ATOM     35  H   UNL     1       2.374  -3.393   0.314  0.00  0.00    +0.149 HD
ENDROOT
BRANCH   4  11
ATOM      1  O   UNL     1       3.933  -1.688   2.172  0.00  0.00    -0.370 OA
ATOM      2  O   UNL     1       1.725   0.512   2.028  0.00  0.00    -0.370 OA
ATOM      9  C   UNL     1       2.135  -0.531   1.128  0.00  0.00    +0.171 C 
ATOM     10  C   UNL     1       3.644  -0.644   1.228  0.00  0.00    +0.171 C 
ATOM     11  C   UNL     1       1.631  -1.870   1.614  0.00  0.00    +0.130 C 
ATOM     12  C   UNL     1       4.078   0.696   1.776  0.00  0.00    +0.131 C 
ATOM     13  C   UNL     1       2.703  -2.290   2.603  0.00  0.00    +0.185 C 
ATOM     14  C   UNL     1       2.889   1.097   2.631  0.00  0.00    +0.185 C 
BRANCH  12   5
ATOM      3  O   UNL     1       6.592   1.318   0.504  0.00  0.00    -0.253 OA
ATOM      5  N   UNL     1       4.303   1.647   0.714  0.00  0.00    -0.292 N 
ATOM      6  N   UNL     1       5.491   2.848  -0.848  0.00  0.00    -0.296 N 
ATOM     16  C   UNL     1       5.558   1.885   0.156  0.00  0.00    +0.300 C 
ATOM     36  H   UNL     1       3.501   2.119   0.309  0.00  0.00    +0.151 HD
ATOM     37  H   UNL     1       4.587   3.249  -1.080  0.00  0.00    +0.151 HD
BRANCH   6  18
ATOM     18  C   UNL     1       6.648   3.284  -1.592  0.00  0.00    +0.132 C 
BRANCH  18  22
ATOM     22  C   UNL     1       6.807   2.420  -2.799  0.00  0.00    -0.016 C 
ATOM     28  C   UNL     1       7.900   1.694  -3.058  0.00  0.00    +0.005 C 
ENDBRANCH  18  22
ENDBRANCH   6  18
ENDBRANCH  12   5
ENDBRANCH   4  11
BRANCH  17  21
ATOM     21  C   UNL     1      -2.679  -1.304  -0.740  0.00  0.00    +0.001 A 
ATOM     23  C   UNL     1      -3.945  -1.822  -0.468  0.00  0.00    +0.010 A 
ATOM     24  C   UNL     1      -2.483   0.077  -0.778  0.00  0.00    +0.010 A 
ATOM     25  C   UNL     1      -5.016  -0.960  -0.234  0.00  0.00    +0.009 A 
ATOM     26  C   UNL     1      -3.555   0.940  -0.544  0.00  0.00    +0.009 A 
ATOM     27  C   UNL     1      -4.821   0.421  -0.272  0.00  0.00    -0.018 A 
BRANCH  27  29
ATOM     29  C   UNL     1      -5.932   1.316  -0.030  0.00  0.00    -0.018 A 
ATOM     30  C   UNL     1      -6.723   1.750  -1.093  0.00  0.00    +0.008 A 
ATOM     31  C   UNL     1      -6.212   1.743   1.268  0.00  0.00    +0.008 A 
ATOM     32  C   UNL     1      -7.794   2.612  -0.859  0.00  0.00    +0.001 A 
ATOM     33  C   UNL     1      -7.284   2.606   1.502  0.00  0.00    +0.001 A 
ATOM     34  C   UNL     1      -8.075   3.040   0.438  0.00  0.00    +0.000 A 
ENDBRANCH  27  29
ENDBRANCH  17  21
TORSDOF 6
