REMARK  Name = 75536745
REMARK  5 active torsions:
REMARK  status: ('A' for Active; 'I' for Inactive)
REMARK    1  A    between atoms: O_2  and  C_10
REMARK    2  A    between atoms: N_5  and  C_8
REMARK    3  A    between atoms: N_5  and  C_9
REMARK    4  A    between atoms: N_6  and  C_17
REMARK    5  A    between atoms: C_13  and  C_17
REMARK                            x       y       z     vdW  Elec       q    Type
REMARK                         _______ _______ _______ _____ _____    ______ ____
ROOT
ATOM      1  O   UNL     1       0.444   0.998   0.398  0.00  0.00    -0.371 OA
ATOM      9  C   UNL     1       2.527  -0.119   0.167  0.00  0.00    +0.111 C 
ATOM     10  C   UNL     1       1.525  -1.067   0.800  0.00  0.00    +0.164 C 
ATOM     13  C   UNL     1       0.209  -0.420   0.389  0.00  0.00    +0.165 C 
ATOM     16  C   UNL     1       1.864   1.226   0.410  0.00  0.00    +0.181 C 
ENDROOT
BRANCH  10   2
ATOM      2  O   UNL     1       1.639  -2.389   0.310  0.00  0.00    -0.388 OA
ATOM     24  H   UNL     1       1.545  -2.366  -0.657  0.00  0.00    +0.210 HD
ENDBRANCH  10   2
BRANCH   9   5
ATOM      5  N   UNL     1       3.859  -0.207   0.745  0.00  0.00    -0.306 NA
ATOM     23  H   UNL     1       4.117  -1.183   0.885  0.00  0.00    +0.123 HD
BRANCH   5   8
ATOM      8  C   UNL     1       4.839   0.453  -0.099  0.00  0.00    +0.054 C 
ATOM     11  C   UNL     1       6.107   0.831   0.657  0.00  0.00    +0.019 C 
ATOM     12  C   UNL     1       5.373  -0.452  -1.201  0.00  0.00    +0.019 C 
ATOM     14  C   UNL     1       7.128   1.073  -0.452  0.00  0.00    +0.002 C 
ATOM     15  C   UNL     1       6.655   0.245  -1.650  0.00  0.00    +0.002 C 
ENDBRANCH   5   8
ENDBRANCH   9   5
BRANCH  13  17
ATOM     17  C   UNL     1      -0.942  -0.756   1.319  0.00  0.00    +0.140 C 
BRANCH  17   6
ATOM      3  O   UNL     1      -6.795   1.112  -0.538  0.00  0.00    -0.377 OA
ATOM      4  O   UNL     1      -2.838  -1.858  -0.444  0.00  0.00    -0.253 OA
ATOM      6  N   UNL     1      -2.169  -0.119   0.895  0.00  0.00    -0.297 N 
ATOM      7  N   UNL     1      -4.201   0.015  -0.306  0.00  0.00    -0.281 N 
ATOM     18  C   UNL     1      -3.055  -0.733   0.018  0.00  0.00    +0.302 C 
ATOM     19  C   UNL     1      -5.186  -0.553  -1.229  0.00  0.00    +0.137 C 
ATOM     20  C   UNL     1      -4.462   1.410   0.075  0.00  0.00    +0.137 C 
ATOM     21  C   UNL     1      -6.603  -0.289  -0.744  0.00  0.00    +0.179 C 
ATOM     22  C   UNL     1      -5.920   1.598   0.480  0.00  0.00    +0.179 C 
ATOM     25  H   UNL     1      -2.336   0.808   1.259  0.00  0.00    +0.150 HD
ENDBRANCH  17   6
ENDBRANCH  13  17
TORSDOF 5
