REMARK  Name = 40777252
REMARK  10 active torsions:
REMARK  status: ('A' for Active; 'I' for Inactive)
REMARK    1  A    between atoms: N_4  and  C_14
REMARK    2  A    between atoms: C_8  and  C_15
REMARK    3  A    between atoms: C_9  and  C_14
REMARK    4  A    between atoms: C_17  and  C_20
REMARK    5  A    between atoms: C_18  and  C_23
REMARK    6  A    between atoms: C_19  and  C_24
REMARK    7  A    between atoms: C_20  and  C_21
REMARK    8  A    between atoms: C_20  and  C_22
REMARK    9  A    between atoms: C_21  and  C_25
REMARK   10  A    between atoms: C_22  and  C_26
REMARK                            x       y       z     vdW  Elec       q    Type
REMARK                         _______ _______ _______ _____ _____    ______ ____
ROOT
ATOM      3  N   UNL     1      -1.454  -1.975   1.817  0.00  0.00    -0.297 NA
ATOM      7  C   UNL     1      -0.852  -2.550  -0.651  0.00  0.00    +0.002 C 
ATOM      8  C   UNL     1       0.422  -2.139   0.138  0.00  0.00    +0.055 C 
ATOM      9  C   UNL     1      -2.360  -1.248   0.890  0.00  0.00    +0.074 C 
ATOM     10  C   UNL     1      -1.891  -1.412  -0.572  0.00  0.00    +0.024 C 
ATOM     11  C   UNL     1      -1.456  -3.767   0.083  0.00  0.00    +0.019 C 
ATOM     12  C   UNL     1      -0.042  -1.620   1.529  0.00  0.00    +0.094 C 
ATOM     13  C   UNL     1      -1.625  -3.427   1.574  0.00  0.00    +0.085 C 
ENDROOT
BRANCH   8  15
ATOM      5  N   UNL     1       1.091  -0.766  -1.772  0.00  0.00    -0.237 NA
ATOM      6  N   UNL     1       3.139   0.506  -1.785  0.00  0.00    -0.232 NA
ATOM     15  C   UNL     1       1.408  -1.192  -0.532  0.00  0.00    +0.050 A 
ATOM     16  C   UNL     1       2.555  -0.819   0.138  0.00  0.00    +0.052 A 
ATOM     18  C   UNL     1       3.392   0.040  -0.544  0.00  0.00    +0.076 A 
ATOM     19  C   UNL     1       1.988   0.069  -2.332  0.00  0.00    +0.127 A 
ATOM     24  C   UNL     1       1.674   0.560  -3.704  0.00  0.00    +0.088 C 
BRANCH  18  23
ATOM      1 BR   UNL     1       3.156   2.743   1.149  0.00  0.00    -0.050 Br
ATOM     23  C   UNL     1       4.625   0.504   0.045  0.00  0.00    +0.014 A 
ATOM     27  C   UNL     1       4.687   1.667   0.812  0.00  0.00    +0.027 A 
ATOM     28  C   UNL     1       5.779  -0.249  -0.173  0.00  0.00    +0.011 A 
ATOM     29  C   UNL     1       5.902   2.077   1.362  0.00  0.00    +0.016 A 
ATOM     30  C   UNL     1       6.994   0.160   0.377  0.00  0.00    +0.001 A 
ATOM     31  C   UNL     1       7.055   1.323   1.145  0.00  0.00    +0.001 A 
ENDBRANCH  18  23
ENDBRANCH   8  15
BRANCH   9  14
ATOM     14  C   UNL     1      -2.528   0.224   1.273  0.00  0.00    +0.123 C 
BRANCH  14   4
ATOM      2  O   UNL     1      -5.356   0.418   1.743  0.00  0.00    -0.276 OA
ATOM      4  N   UNL     1      -3.494   0.864   0.433  0.00  0.00    -0.314 N 
ATOM     17  C   UNL     1      -4.854   0.913   0.736  0.00  0.00    +0.216 C 
ATOM     32  H   UNL     1      -3.156   1.295  -0.421  0.00  0.00    +0.149 HD
BRANCH  17  20
ATOM     20  C   UNL     1      -5.678   1.640  -0.332  0.00  0.00    +0.074 C 
BRANCH  20  21
ATOM     21  C   UNL     1      -5.589   0.951  -1.704  0.00  0.00    +0.009 C 
ATOM     25  C   UNL     1      -6.053  -0.501  -1.657  0.00  0.00    +0.004 C 
ENDBRANCH  20  21
BRANCH  20  22
ATOM     22  C   UNL     1      -5.264   3.124  -0.403  0.00  0.00    +0.009 C 
ATOM     26  C   UNL     1      -5.373   3.880   0.915  0.00  0.00    +0.004 C 
ENDBRANCH  20  22
ENDBRANCH  17  20
ENDBRANCH  14   4
ENDBRANCH   9  14
TORSDOF 7
