REMARK  Name = 51137865
REMARK  4 active torsions:
REMARK  status: ('A' for Active; 'I' for Inactive)
REMARK    1  A    between atoms: N_4  and  C_13
REMARK    2  A    between atoms: C_8  and  C_12
REMARK    3  A    between atoms: C_13  and  C_14
REMARK    4  A    between atoms: C_17  and  C_25
REMARK                            x       y       z     vdW  Elec       q    Type
REMARK                         _______ _______ _______ _____ _____    ______ ____
ROOT
ATOM      5  N   UNL     1       2.893  -2.047   0.266  0.00  0.00    -0.342 N 
ATOM      6  N   UNL     1       2.487   0.134   0.126  0.00  0.00    -0.231 NA
ATOM     12  C   UNL     1       1.949  -1.058   0.258  0.00  0.00    +0.113 A 
ATOM     15  C   UNL     1       4.122  -1.454   0.130  0.00  0.00    +0.067 A 
ATOM     16  C   UNL     1       3.842  -0.093   0.045  0.00  0.00    +0.101 A 
ATOM     17  C   UNL     1       4.902   0.817  -0.103  0.00  0.00    +0.064 A 
ATOM     18  C   UNL     1       5.415  -1.975   0.076  0.00  0.00    +0.028 A 
ATOM     21  C   UNL     1       6.209   0.316  -0.160  0.00  0.00    +0.015 A 
ATOM     22  C   UNL     1       6.459  -1.056  -0.072  0.00  0.00    +0.003 A 
ATOM     27  H   UNL     1       2.720  -3.039   0.356  0.00  0.00    +0.167 HD
ENDROOT
BRANCH  17  25
ATOM      3  O   UNL     1       5.584   3.059  -0.339  0.00  0.00    -0.270 OA
ATOM      7  N   UNL     1       3.333   2.679  -0.131  0.00  0.00    -0.325 N 
ATOM     25  C   UNL     1       4.654   2.244  -0.193  0.00  0.00    +0.244 C 
ATOM     28  H   UNL     1       3.119   3.669  -0.197  0.00  0.00    +0.145 HD
ATOM     29  H   UNL     1       2.537   2.061  -0.020  0.00  0.00    +0.145 HD
ENDBRANCH  17  25
BRANCH  12   8
ATOM      4  N   UNL     1      -1.657  -0.628  -0.227  0.00  0.00    -0.297 NA
ATOM      8  C   UNL     1       0.477  -1.375   0.392  0.00  0.00    +0.070 C 
ATOM      9  C   UNL     1      -0.215  -0.733   1.606  0.00  0.00    +0.028 C 
ATOM     10  C   UNL     1      -0.347  -0.910  -0.816  0.00  0.00    +0.096 C 
ATOM     11  C   UNL     1      -1.365   0.076   1.022  0.00  0.00    +0.085 C 
BRANCH   4  13
ATOM     13  C   UNL     1      -2.509   0.149  -1.115  0.00  0.00    +0.119 C 
BRANCH  13  14
ATOM      1  F   UNL     1      -6.488   2.088   0.942  0.00  0.00    -0.202 F 
ATOM      2  F   UNL     1      -7.934  -0.163   0.377  0.00  0.00    -0.202 F 
ATOM     14  C   UNL     1      -3.959   0.066  -0.717  0.00  0.00    -0.030 A 
ATOM     19  C   UNL     1      -4.564   1.137  -0.059  0.00  0.00    +0.046 A 
ATOM     20  C   UNL     1      -4.697  -1.082  -1.005  0.00  0.00    +0.008 A 
ATOM     23  C   UNL     1      -5.907   1.059   0.311  0.00  0.00    +0.159 A 
ATOM     24  C   UNL     1      -6.040  -1.160  -0.636  0.00  0.00    +0.041 A 
ATOM     26  C   UNL     1      -6.645  -0.089   0.022  0.00  0.00    +0.158 A 
ENDBRANCH  13  14
ENDBRANCH   4  13
ENDBRANCH  12   8
TORSDOF 4
