REMARK  Name = 11912605
REMARK  11 active torsions:
REMARK  status: ('A' for Active; 'I' for Inactive)
REMARK    1  A    between atoms: O_4  and  C_31
REMARK    2  A    between atoms: O_4  and  C_33
REMARK    3  A    between atoms: N_7  and  C_19
REMARK    4  A    between atoms: N_8  and  C_20
REMARK    5  A    between atoms: C_9  and  C_15
REMARK    6  A    between atoms: C_10  and  C_14
REMARK    7  A    between atoms: C_14  and  C_16
REMARK    8  A    between atoms: C_15  and  C_18
REMARK    9  A    between atoms: C_19  and  C_21
REMARK   10  A    between atoms: C_24  and  C_31
REMARK   11  A    between atoms: C_33  and  C_34
REMARK                            x       y       z     vdW  Elec       q    Type
REMARK                         _______ _______ _______ _____ _____    ______ ____
ROOT
ATOM      2  O   UNL     1      -2.664   3.891   0.157  0.00  0.00    -0.252 OA
ATOM      6  N   UNL     1      -0.725   3.089  -0.812  0.00  0.00    -0.285 N 
ATOM      8  N   UNL     1      -2.636   1.716  -0.649  0.00  0.00    -0.269 N 
ATOM      9  C   UNL     1       2.138   3.004  -0.395  0.00  0.00    +0.004 C 
ATOM     10  C   UNL     1       1.333   1.712  -0.697  0.00  0.00    +0.010 C 
ATOM     11  C   UNL     1       1.255   4.090   0.246  0.00  0.00    +0.023 C 
ATOM     12  C   UNL     1       0.074   2.067  -1.505  0.00  0.00    +0.113 C 
ATOM     13  C   UNL     1      -0.008   4.343  -0.576  0.00  0.00    +0.109 C 
ATOM     17  C   UNL     1      -2.069   2.965  -0.400  0.00  0.00    +0.306 C 
ATOM     36  H   UNL     1      -2.295   1.180  -1.439  0.00  0.00    +0.156 HD
ENDROOT
BRANCH   8  20
ATOM     20  C   UNL     1      -3.655   1.071   0.095  0.00  0.00    +0.036 A 
ATOM     22  C   UNL     1      -4.112  -0.188  -0.294  0.00  0.00    +0.038 A 
ATOM     23  C   UNL     1      -4.200   1.695   1.216  0.00  0.00    +0.023 A 
ATOM     24  C   UNL     1      -5.115  -0.823   0.438  0.00  0.00    +0.061 A 
ATOM     27  C   UNL     1      -5.204   1.060   1.949  0.00  0.00    +0.003 A 
ATOM     28  C   UNL     1      -5.661  -0.198   1.560  0.00  0.00    +0.015 A 
BRANCH  24  31
ATOM      5  O   UNL     1      -6.743  -2.552   0.223  0.00  0.00    -0.245 OA
ATOM     31  C   UNL     1      -5.592  -2.136   0.034  0.00  0.00    +0.339 C 
BRANCH  31   4
ATOM      4  O   UNL     1      -4.610  -2.859  -0.586  0.00  0.00    -0.461 OA
BRANCH   4  33
ATOM     33  C   UNL     1      -4.959  -4.173  -1.034  0.00  0.00    +0.229 C 
ATOM     34  C   UNL     1      -3.751  -4.808  -1.688  0.00  0.00    +0.048 C 
ENDBRANCH   4  33
ENDBRANCH  31   4
ENDBRANCH  24  31
ENDBRANCH   8  20
BRANCH  10  14
ATOM     14  C   UNL     1       0.959   0.903   0.551  0.00  0.00    +0.002 C 
ATOM     16  C   UNL     1       0.261  -0.388   0.177  0.00  0.00    +0.004 C 
ENDBRANCH  10  14
BRANCH   9  15
ATOM     15  C   UNL     1       3.383   2.751   0.455  0.00  0.00    +0.099 C 
BRANCH  15  18
ATOM      3  O   UNL     1       4.415   1.591  -1.401  0.00  0.00    -0.276 OA
ATOM      7  N   UNL     1       5.042   1.054   0.771  0.00  0.00    -0.311 N 
ATOM     18  C   UNL     1       4.321   1.751  -0.187  0.00  0.00    +0.214 C 
ATOM     35  H   UNL     1       4.887   1.251   1.756  0.00  0.00    +0.149 HD
BRANCH   7  19
ATOM     19  C   UNL     1       6.011   0.033   0.443  0.00  0.00    +0.139 C 
BRANCH  19  21
ATOM      1  F   UNL     1       3.671  -5.080   0.152  0.00  0.00    -0.205 F 
ATOM     21  C   UNL     1       5.386  -1.330   0.365  0.00  0.00    -0.030 A 
ATOM     25  C   UNL     1       5.318  -2.132   1.505  0.00  0.00    +0.008 A 
ATOM     26  C   UNL     1       4.875  -1.795  -0.846  0.00  0.00    +0.008 A 
ATOM     29  C   UNL     1       4.738  -3.398   1.432  0.00  0.00    +0.038 A 
ATOM     30  C   UNL     1       4.296  -3.062  -0.919  0.00  0.00    +0.038 A 
ATOM     32  C   UNL     1       4.227  -3.863   0.221  0.00  0.00    +0.123 A 
ENDBRANCH  19  21
ENDBRANCH   7  19
ENDBRANCH  15  18
ENDBRANCH   9  15
TORSDOF 9
