REMARK  Name = 44716030
REMARK  6 active torsions:
REMARK  status: ('A' for Active; 'I' for Inactive)
REMARK    1  A    between atoms: O_3  and  C_22
REMARK    2  A    between atoms: O_3  and  C_25
REMARK    3  A    between atoms: N_5  and  C_17
REMARK    4  A    between atoms: C_11  and  C_17
REMARK    5  A    between atoms: C_12  and  C_18
REMARK    6  A    between atoms: C_21  and  C_22
REMARK                            x       y       z     vdW  Elec       q    Type
REMARK                         _______ _______ _______ _____ _____    ______ ____
ROOT
ATOM      4  N   UNL     1      -2.139  -2.262  -0.128  0.00  0.00    -0.297 NA
ATOM     10  C   UNL     1      -1.975   0.100  -1.208  0.00  0.00    +0.005 C 
ATOM     11  C   UNL     1      -0.814  -1.652   0.168  0.00  0.00    +0.078 C 
ATOM     12  C   UNL     1      -3.017   0.074  -0.072  0.00  0.00    +0.092 C 
ATOM     13  C   UNL     1      -0.625  -0.323  -0.600  0.00  0.00    +0.025 C 
ATOM     14  C   UNL     1      -2.335  -0.969  -2.256  0.00  0.00    +0.020 C 
ATOM     15  C   UNL     1      -3.195  -1.374   0.424  0.00  0.00    +0.097 C 
ATOM     16  C   UNL     1      -2.355  -2.353  -1.590  0.00  0.00    +0.085 C 
ENDROOT
BRANCH  12  18
ATOM      1  S   UNL     1      -7.455   1.003   1.970  0.00  0.00    -0.061 S 
ATOM      2  O   UNL     1      -4.477   1.075  -1.655  0.00  0.00    -0.275 OA
ATOM      6  N   UNL     1      -5.244   0.668   0.532  0.00  0.00    -0.264 N 
ATOM      9  N   UNL     1      -7.214   1.688  -0.511  0.00  0.00    -0.233 NA
ATOM     18  C   UNL     1      -4.324   0.666  -0.508  0.00  0.00    +0.223 C 
ATOM     20  C   UNL     1      -6.575   1.148   0.503  0.00  0.00    +0.164 A 
ATOM     23  C   UNL     1      -8.809   1.721   1.200  0.00  0.00    +0.068 A 
ATOM     24  C   UNL     1      -8.494   2.016  -0.109  0.00  0.00    +0.120 A 
ATOM     31  H   UNL     1      -4.963   0.301   1.438  0.00  0.00    +0.157 HD
ENDBRANCH  12  18
BRANCH  11  17
ATOM     17  C   UNL     1       0.339  -2.624  -0.090  0.00  0.00    +0.164 C 
BRANCH  17   5
ATOM      5  N   UNL     1       1.650  -2.063   0.384  0.00  0.00    -0.250 N 
ATOM      7  N   UNL     1       1.821  -1.709   1.668  0.00  0.00    -0.065 NA
ATOM      8  N   UNL     1       3.061  -1.248   1.789  0.00  0.00    -0.131 NA
ATOM     19  C   UNL     1       2.773  -1.840  -0.352  0.00  0.00    +0.137 A 
ATOM     21  C   UNL     1       3.658  -1.322   0.561  0.00  0.00    +0.120 A 
BRANCH  21  22
ATOM     22  C   UNL     1       5.045  -0.882   0.359  0.00  0.00    +0.287 C 
BRANCH  22   3
ATOM      3  O   UNL     1       5.115   0.546   0.352  0.00  0.00    -0.486 OA
BRANCH   3  25
ATOM     25  C   UNL     1       6.344   1.094   0.108  0.00  0.00    +0.121 A 
ATOM     26  C   UNL     1       7.444   0.266  -0.116  0.00  0.00    +0.045 A 
ATOM     27  C   UNL     1       6.497   2.480   0.086  0.00  0.00    +0.045 A 
ATOM     28  C   UNL     1       8.698   0.825  -0.363  0.00  0.00    +0.004 A 
ATOM     29  C   UNL     1       7.751   3.039  -0.161  0.00  0.00    +0.004 A 
ATOM     30  C   UNL     1       8.852   2.211  -0.386  0.00  0.00    +0.000 A 
ENDBRANCH   3  25
ENDBRANCH  22   3
ENDBRANCH  21  22
ENDBRANCH  17   5
ENDBRANCH  11  17
TORSDOF 6
