REMARK  Name = 7143793
REMARK  3 active torsions:
REMARK  status: ('A' for Active; 'I' for Inactive)
REMARK    1  A    between atoms: S_1  and  N_6
REMARK    2  A    between atoms: S_1  and  C_19
REMARK    3  A    between atoms: C_17  and  C_20
REMARK                            x       y       z     vdW  Elec       q    Type
REMARK                         _______ _______ _______ _____ _____    ______ ____
ROOT
ATOM      5  O   UNL     1      -3.142   0.823  -1.758  0.00  0.00    -0.267 OA
ATOM      6  N   UNL     1       1.571   0.009  -0.352  0.00  0.00    -0.176 NA
ATOM      7  N   UNL     1      -1.359   1.189  -0.299  0.00  0.00    -0.311 N 
ATOM      8  C   UNL     1       0.830   2.291  -1.044  0.00  0.00    +0.025 C 
ATOM      9  C   UNL     1       0.556   1.577   1.290  0.00  0.00    +0.052 C 
ATOM     10  C   UNL     1       0.919   2.763   0.401  0.00  0.00    +0.017 C 
ATOM     11  C   UNL     1       1.813   1.136  -1.297  0.00  0.00    +0.114 C 
ATOM     12  C   UNL     1       1.576   0.443   1.077  0.00  0.00    +0.119 C 
ATOM     13  C   UNL     1      -0.622   1.902  -1.351  0.00  0.00    +0.130 C 
ATOM     14  C   UNL     1      -0.849   1.084   0.997  0.00  0.00    +0.026 A 
ATOM     15  C   UNL     1      -1.590   0.532   1.970  0.00  0.00    +0.022 A 
ATOM     16  C   UNL     1      -2.643   0.717  -0.636  0.00  0.00    +0.260 A 
ATOM     17  C   UNL     1      -3.436   0.070   0.468  0.00  0.00    +0.053 A 
ATOM     18  C   UNL     1      -2.900   0.013   1.696  0.00  0.00    +0.016 A 
ENDROOT
BRANCH  17  20
ATOM      2  S   UNL     1      -4.915  -2.143  -0.264  0.00  0.00    -0.096 S 
ATOM     20  C   UNL     1      -4.771  -0.501   0.216  0.00  0.00    +0.024 A 
ATOM     23  C   UNL     1      -6.007   0.112   0.308  0.00  0.00    +0.016 A 
ATOM     27  C   UNL     1      -7.075  -0.774  -0.016  0.00  0.00    +0.008 A 
ATOM     28  C   UNL     1      -6.622  -2.032  -0.346  0.00  0.00    +0.046 A 
ENDBRANCH  17  20
BRANCH   6   1
ATOM      1  S   UNL     1       2.423  -1.436  -0.689  0.00  0.00    +0.061 S 
ATOM      3  O   UNL     1       2.470  -1.635  -2.122  0.00  0.00    -0.153 OA
ATOM      4  O   UNL     1       1.947  -2.481   0.193  0.00  0.00    -0.153 OA
BRANCH   1  19
ATOM     19  C   UNL     1       4.041  -0.972  -0.156  0.00  0.00    +0.105 A 
ATOM     21  C   UNL     1       4.414  -1.200   1.158  0.00  0.00    +0.028 A 
ATOM     22  C   UNL     1       4.912  -0.388  -1.062  0.00  0.00    +0.028 A 
ATOM     24  C   UNL     1       5.692  -0.833   1.579  0.00  0.00    +0.002 A 
ATOM     25  C   UNL     1       6.190  -0.021  -0.641  0.00  0.00    +0.002 A 
ATOM     26  C   UNL     1       6.580  -0.244   0.680  0.00  0.00    +0.000 A 
ENDBRANCH   1  19
ENDBRANCH   6   1
TORSDOF 3
