REMARK  Name = 38027823
REMARK  13 active torsions:
REMARK  status: ('A' for Active; 'I' for Inactive)
REMARK    1  A    between atoms: O_3  and  C_27
REMARK    2  A    between atoms: O_3  and  C_28
REMARK    3  A    between atoms: N_4  and  C_13
REMARK    4  A    between atoms: N_5  and  C_20
REMARK    5  A    between atoms: C_6  and  C_10
REMARK    6  A    between atoms: C_7  and  C_13
REMARK    7  A    between atoms: C_9  and  C_14
REMARK    8  A    between atoms: C_10  and  C_15
REMARK    9  A    between atoms: C_10  and  C_16
REMARK   10  A    between atoms: C_11  and  C_17
REMARK   11  A    between atoms: C_14  and  C_18
REMARK   12  A    between atoms: C_19  and  C_21
REMARK   13  A    between atoms: C_20  and  C_22
REMARK                            x       y       z     vdW  Elec       q    Type
REMARK                         _______ _______ _______ _____ _____    ______ ____
ROOT
ATOM      6  C   UNL     1       1.646  -0.494  -1.061  0.00  0.00    +0.000 C 
ATOM      7  C   UNL     1       3.145  -0.884  -1.090  0.00  0.00    +0.032 C 
ATOM      8  C   UNL     1       1.465   0.970  -1.488  0.00  0.00    +0.012 C 
ATOM      9  C   UNL     1       2.240   1.942  -0.579  0.00  0.00    +0.023 C 
ATOM     11  C   UNL     1       3.663   1.478  -0.342  0.00  0.00    -0.073 C 
ATOM     12  C   UNL     1       4.052   0.215  -0.589  0.00  0.00    -0.022 C 
ATOM     17  C   UNL     1       4.640   2.513   0.143  0.00  0.00    +0.039 C 
ENDROOT
BRANCH   6  10
ATOM     10  C   UNL     1       0.804  -1.405  -1.959  0.00  0.00    -0.013 C 
ATOM     15  C   UNL     1      -0.646  -1.426  -1.486  0.00  0.00    +0.007 C 
ATOM     16  C   UNL     1       0.893  -0.949  -3.412  0.00  0.00    +0.007 C 
ENDBRANCH   6  10
BRANCH   7  13
ATOM     13  C   UNL     1       3.400  -2.164  -0.285  0.00  0.00    +0.112 C 
BRANCH  13   4
ATOM      2  O   UNL     1       1.465  -3.540   1.385  0.00  0.00    -0.276 OA
ATOM      4  N   UNL     1       3.144  -1.948   1.105  0.00  0.00    -0.315 N 
ATOM     19  C   UNL     1       2.192  -2.657   1.834  0.00  0.00    +0.210 C 
ATOM     21  C   UNL     1       2.144  -2.248   3.282  0.00  0.00    +0.109 C 
ATOM     29  H   UNL     1       3.732  -1.284   1.600  0.00  0.00    +0.149 HD
ENDBRANCH  13   4
ENDBRANCH   7  13
BRANCH   9  14
ATOM     14  C   UNL     1       1.506   2.162   0.748  0.00  0.00    +0.103 C 
BRANCH  14  18
ATOM      1  O   UNL     1      -0.297   3.275  -0.420  0.00  0.00    -0.276 OA
ATOM      5  N   UNL     1      -0.739   2.162   1.571  0.00  0.00    -0.311 N 
ATOM     18  C   UNL     1       0.076   2.607   0.540  0.00  0.00    +0.214 C 
ATOM     30  H   UNL     1      -0.338   1.611   2.324  0.00  0.00    +0.149 HD
BRANCH   5  20
ATOM     20  C   UNL     1      -2.155   2.441   1.635  0.00  0.00    +0.139 C 
BRANCH  20  22
ATOM     22  C   UNL     1      -2.968   1.382   0.949  0.00  0.00    -0.030 A 
ATOM     23  C   UNL     1      -3.794   1.720  -0.123  0.00  0.00    +0.009 A 
ATOM     24  C   UNL     1      -2.896   0.058   1.383  0.00  0.00    +0.009 A 
ATOM     25  C   UNL     1      -4.549   0.736  -0.760  0.00  0.00    +0.046 A 
ATOM     26  C   UNL     1      -3.651  -0.927   0.746  0.00  0.00    +0.046 A 
ATOM     27  C   UNL     1      -4.477  -0.588  -0.326  0.00  0.00    +0.120 A 
BRANCH  27   3
ATOM      3  O   UNL     1      -5.213  -1.549  -0.948  0.00  0.00    -0.495 OA
ATOM     28  C   UNL     1      -5.092  -2.882  -0.453  0.00  0.00    +0.277 C 
ENDBRANCH  27   3
ENDBRANCH  20  22
ENDBRANCH   5  20
ENDBRANCH  14  18
ENDBRANCH   9  14
TORSDOF 8
