REMARK  Name = 7673425
REMARK  13 active torsions:
REMARK  status: ('A' for Active; 'I' for Inactive)
REMARK    1  A    between atoms: N_4  and  C_19
REMARK    2  A    between atoms: N_4  and  C_20
REMARK    3  A    between atoms: C_6  and  C_12
REMARK    4  A    between atoms: C_7  and  C_11
REMARK    5  A    between atoms: C_11  and  C_14
REMARK    6  A    between atoms: C_12  and  C_15
REMARK    7  A    between atoms: C_13  and  C_16
REMARK    8  A    between atoms: C_16  and  C_17
REMARK    9  A    between atoms: C_17  and  C_18
REMARK   10  A    between atoms: C_18  and  C_21
REMARK   11  A    between atoms: C_19  and  C_22
REMARK   12  A    between atoms: C_21  and  C_23
REMARK   13  A    between atoms: C_22  and  C_24
REMARK                            x       y       z     vdW  Elec       q    Type
REMARK                         _______ _______ _______ _____ _____    ______ ____
ROOT
ATOM      1  O   UNL     1      -3.305   1.930  -0.866  0.00  0.00    -0.276 OA
ATOM      3  N   UNL     1      -1.241   0.996  -0.346  0.00  0.00    -0.301 N 
ATOM      6  C   UNL     1       1.405   1.557   0.773  0.00  0.00    +0.004 C 
ATOM      7  C   UNL     1       0.482   2.678   0.235  0.00  0.00    +0.010 C 
ATOM      8  C   UNL     1       0.547   0.365   1.233  0.00  0.00    +0.023 C 
ATOM      9  C   UNL     1      -0.488   2.153  -0.835  0.00  0.00    +0.111 C 
ATOM     10  C   UNL     1      -0.422  -0.114   0.153  0.00  0.00    +0.108 C 
ATOM     13  C   UNL     1      -2.633   0.986  -0.443  0.00  0.00    +0.216 C 
ENDROOT
BRANCH   7  11
ATOM     11  C   UNL     1       1.252   3.891  -0.286  0.00  0.00    +0.002 C 
ATOM     14  C   UNL     1       2.236   4.399   0.747  0.00  0.00    +0.004 C 
ENDBRANCH   7  11
BRANCH   6  12
ATOM     12  C   UNL     1       2.482   1.106  -0.221  0.00  0.00    +0.100 C 
BRANCH  12  15
ATOM      2  O   UNL     1       3.612  -0.027   1.564  0.00  0.00    -0.276 OA
ATOM      4  N   UNL     1       3.914  -0.881  -0.572  0.00  0.00    -0.304 N 
ATOM     15  C   UNL     1       3.382   0.025   0.352  0.00  0.00    +0.216 C 
ATOM     20  C   UNL     1       3.628  -0.800  -1.999  0.00  0.00    +0.132 C 
BRANCH   4  19
ATOM     19  C   UNL     1       4.795  -1.977  -0.176  0.00  0.00    +0.122 C 
BRANCH  19  22
ATOM     22  C   UNL     1       4.224  -3.343  -0.537  0.00  0.00    +0.137 C 
BRANCH  22  24
ATOM      5  N   UNL     1       1.925  -3.794   0.659  0.00  0.00    -0.197 NA
ATOM     24  C   UNL     1       2.939  -3.594   0.132  0.00  0.00    +0.064 C 
ENDBRANCH  22  24
ENDBRANCH  19  22
ENDBRANCH   4  19
ENDBRANCH  12  15
ENDBRANCH   6  12
BRANCH  13  16
ATOM     16  C   UNL     1      -3.334  -0.271   0.007  0.00  0.00    +0.096 C 
BRANCH  16  17
ATOM     17  C   UNL     1      -4.839  -0.130  -0.158  0.00  0.00    +0.009 C 
BRANCH  17  18
ATOM     18  C   UNL     1      -5.598  -1.405   0.221  0.00  0.00    +0.000 C 
BRANCH  18  21
ATOM     21  C   UNL     1      -7.103  -1.236   0.013  0.00  0.00    -0.003 C 
ATOM     23  C   UNL     1      -7.859  -2.512   0.349  0.00  0.00    +0.004 C 
ENDBRANCH  18  21
ENDBRANCH  17  18
ENDBRANCH  16  17
ENDBRANCH  13  16
TORSDOF 10
