REMARK  Name = 11879562
REMARK  10 active torsions:
REMARK  status: ('A' for Active; 'I' for Inactive)
REMARK    1  A    between atoms: O_3  and  C_18
REMARK    2  A    between atoms: O_3  and  C_23
REMARK    3  A    between atoms: O_5  and  C_28
REMARK    4  A    between atoms: O_5  and  C_34
REMARK    5  A    between atoms: N_6  and  C_14
REMARK    6  A    between atoms: N_7  and  C_15
REMARK    7  A    between atoms: N_11  and  C_29
REMARK    8  A    between atoms: N_11  and  C_32
REMARK    9  A    between atoms: N_11  and  C_33
REMARK   10  A    between atoms: C_19  and  C_20
REMARK                            x       y       z     vdW  Elec       q    Type
REMARK                         _______ _______ _______ _____ _____    ______ ____
ROOT
ATOM      1  O   UNL     1      -0.711  -3.422   0.378  0.00  0.00    -0.370 OA
ATOM      2  O   UNL     1      -0.715  -1.132  -1.777  0.00  0.00    -0.370 OA
ATOM     12  C   UNL     1      -0.317  -1.202  -0.396  0.00  0.00    +0.176 C 
ATOM     13  C   UNL     1      -1.301  -2.115   0.308  0.00  0.00    +0.171 C 
ATOM     14  C   UNL     1       1.019  -1.913  -0.281  0.00  0.00    +0.171 C 
ATOM     15  C   UNL     1      -2.510  -2.134  -0.600  0.00  0.00    +0.130 C 
ATOM     16  C   UNL     1       0.617  -3.379  -0.163  0.00  0.00    +0.190 C 
ATOM     17  C   UNL     1      -1.888  -1.935  -1.970  0.00  0.00    +0.185 C 
ENDROOT
BRANCH  14   6
ATOM      6  N   UNL     1       1.834  -1.402   0.824  0.00  0.00    -0.187 N 
ATOM      8  N   UNL     1       1.375  -1.419   2.079  0.00  0.00    -0.041 NA
ATOM      9  N   UNL     1       3.424  -0.543   2.008  0.00  0.00    -0.071 NA
ATOM     10  N   UNL     1       2.355  -0.891   2.803  0.00  0.00    -0.020 NA
ATOM     18  C   UNL     1       3.078  -0.870   0.785  0.00  0.00    +0.342 A 
BRANCH  18   3
ATOM      3  O   UNL     1       3.801  -0.714  -0.308  0.00  0.00    -0.423 OA
BRANCH   3  23
ATOM     23  C   UNL     1       5.073  -0.159  -0.290  0.00  0.00    +0.134 A 
ATOM     26  C   UNL     1       5.212   1.208  -0.439  0.00  0.00    +0.069 A 
ATOM     27  C   UNL     1       6.164  -0.990  -0.123  0.00  0.00    +0.046 A 
ATOM     29  C   UNL     1       6.490   1.764  -0.419  0.00  0.00    +0.033 A 
ATOM     30  C   UNL     1       7.443  -0.433  -0.103  0.00  0.00    +0.005 A 
ATOM     31  C   UNL     1       7.606   0.944  -0.251  0.00  0.00    +0.023 A 
BRANCH  29  11
ATOM     11  N   UNL     1       6.655   3.157  -0.568  0.00  0.00    -0.336 N 
ATOM     32  C   UNL     1       5.622   4.071  -0.123  0.00  0.00    +0.129 C 
ATOM     33  C   UNL     1       7.854   3.693  -1.181  0.00  0.00    +0.129 C 
ENDBRANCH  29  11
ENDBRANCH   3  23
ENDBRANCH  18   3
ENDBRANCH  14   6
BRANCH  15   7
ATOM      4  O   UNL     1      -5.335  -2.074  -1.110  0.00  0.00    -0.270 OA
ATOM      7  N   UNL     1      -3.421  -1.062  -0.279  0.00  0.00    -0.304 N 
ATOM     19  C   UNL     1      -4.777  -1.124  -0.566  0.00  0.00    +0.244 C 
ATOM     35  H   UNL     1      -3.011  -0.200   0.066  0.00  0.00    +0.149 HD
BRANCH  19  20
ATOM     20  C   UNL     1      -5.575   0.073  -0.197  0.00  0.00    +0.037 A 
ATOM     21  C   UNL     1      -5.141   0.870   0.842  0.00  0.00    +0.016 A 
ATOM     22  C   UNL     1      -6.728   0.348  -0.904  0.00  0.00    +0.016 A 
ATOM     24  C   UNL     1      -5.892   1.993   1.188  0.00  0.00    +0.046 A 
ATOM     25  C   UNL     1      -7.478   1.472  -0.557  0.00  0.00    +0.046 A 
ATOM     28  C   UNL     1      -7.060   2.294   0.489  0.00  0.00    +0.120 A 
BRANCH  28   5
ATOM      5  O   UNL     1      -7.794   3.389   0.829  0.00  0.00    -0.495 OA
ATOM     34  C   UNL     1      -8.979   3.637   0.074  0.00  0.00    +0.277 C 
ENDBRANCH  28   5
ENDBRANCH  19  20
ENDBRANCH  15   7
TORSDOF 7
