REMARK  Name = 26762201
REMARK  5 active torsions:
REMARK  status: ('A' for Active; 'I' for Inactive)
REMARK    1  A    between atoms: N_7  and  C_12
REMARK    2  A    between atoms: N_9  and  C_27
REMARK    3  A    between atoms: C_11  and  C_16
REMARK    4  A    between atoms: C_16  and  C_18
REMARK    5  A    between atoms: C_18  and  C_19
REMARK                            x       y       z     vdW  Elec       q    Type
REMARK                         _______ _______ _______ _____ _____    ______ ____
ROOT
ATOM      2  O   UNL     1      -4.396  -1.833   2.325  0.00  0.00    -0.274 OA
ATOM      5  N   UNL     1      -2.799  -1.044  -0.612  0.00  0.00    -0.285 NA
ATOM      6  N   UNL     1      -4.867  -0.117   0.850  0.00  0.00    -0.313 N 
ATOM     10  C   UNL     1      -3.664  -2.037   0.022  0.00  0.00    +0.145 C 
ATOM     11  C   UNL     1      -3.533   0.051  -1.253  0.00  0.00    +0.075 C 
ATOM     12  C   UNL     1      -1.518  -2.983  -0.597  0.00  0.00    +0.090 C 
ATOM     13  C   UNL     1      -2.699  -3.165   0.367  0.00  0.00    +0.052 C 
ATOM     14  C   UNL     1      -1.905  -1.799  -1.484  0.00  0.00    +0.107 C 
ATOM     15  C   UNL     1      -4.870   0.331  -0.531  0.00  0.00    +0.123 C 
ATOM     17  C   UNL     1      -4.321  -1.345   1.202  0.00  0.00    +0.230 C 
ATOM     33  H   UNL     1      -5.362   0.424   1.552  0.00  0.00    +0.149 HD
ENDROOT
BRANCH  12   7
ATOM      4  O   UNL     1       1.137  -3.634  -1.459  0.00  0.00    -0.253 OA
ATOM      7  N   UNL     1      -0.290  -2.730   0.120  0.00  0.00    -0.295 N 
ATOM      9  N   UNL     1       1.970  -2.715   0.534  0.00  0.00    -0.269 N 
ATOM     20  C   UNL     1       0.972  -3.082  -0.374  0.00  0.00    +0.304 C 
ATOM     34  H   UNL     1      -0.334  -2.196   0.982  0.00  0.00    +0.151 HD
ATOM     35  H   UNL     1       1.675  -2.262   1.395  0.00  0.00    +0.156 HD
BRANCH   9  27
ATOM      1  S   UNL     1       5.882  -2.849   0.929  0.00  0.00    -0.103 S 
ATOM     27  C   UNL     1       3.367  -2.894   0.407  0.00  0.00    +0.042 A 
ATOM     30  C   UNL     1       4.013  -3.502  -0.708  0.00  0.00    +0.031 A 
ATOM     31  C   UNL     1       4.266  -2.494   1.371  0.00  0.00    +0.068 A 
ATOM     32  C   UNL     1       5.381  -3.541  -0.555  0.00  0.00    +0.047 A 
ENDBRANCH   9  27
ENDBRANCH  12   7
BRANCH  11  16
ATOM     16  C   UNL     1      -2.652   1.303  -1.240  0.00  0.00    +0.029 C 
BRANCH  16  18
ATOM     18  C   UNL     1      -2.266   1.727   0.169  0.00  0.00    +0.098 C 
BRANCH  18  19
ATOM      3  O   UNL     1      -1.862   4.062   0.177  0.00  0.00    -0.275 OA
ATOM      8  N   UNL     1      -0.006   2.650   0.086  0.00  0.00    -0.271 N 
ATOM     19  C   UNL     1      -1.363   2.937   0.145  0.00  0.00    +0.220 C 
ATOM     21  C   UNL     1       0.591   1.298   0.047  0.00  0.00    +0.118 C 
ATOM     22  C   UNL     1       1.039   3.597   0.052  0.00  0.00    +0.039 A 
ATOM     23  C   UNL     1       2.114   1.461  -0.007  0.00  0.00    +0.056 C 
ATOM     24  C   UNL     1       2.273   2.946  -0.002  0.00  0.00    -0.024 A 
ATOM     25  C   UNL     1       0.972   4.983   0.067  0.00  0.00    +0.024 A 
ATOM     26  C   UNL     1       3.462   3.658  -0.043  0.00  0.00    +0.005 A 
ATOM     28  C   UNL     1       2.167   5.708   0.025  0.00  0.00    +0.002 A 
ATOM     29  C   UNL     1       3.404   5.051  -0.029  0.00  0.00    +0.000 A 
ENDBRANCH  18  19
ENDBRANCH  16  18
ENDBRANCH  11  16
TORSDOF 5
