REMARK  Name = 56775695
REMARK  6 active torsions:
REMARK  status: ('A' for Active; 'I' for Inactive)
REMARK    1  A    between atoms: N_4  and  C_7
REMARK    2  A    between atoms: N_4  and  C_11
REMARK    3  A    between atoms: C_7  and  C_10
REMARK    4  A    between atoms: C_10  and  C_12
REMARK    5  A    between atoms: C_11  and  C_13
REMARK    6  A    between atoms: C_15  and  C_18
REMARK                            x       y       z     vdW  Elec       q    Type
REMARK                         _______ _______ _______ _____ _____    ______ ____
ROOT
ATOM      2  O   UNL     1       2.298  -3.671   1.148  0.00  0.00    -0.376 OA
ATOM      7  C   UNL     1       1.345  -2.183  -0.048  0.00  0.00    +0.072 C 
ATOM      8  C   UNL     1       1.045  -2.954   1.232  0.00  0.00    +0.184 C 
ATOM      9  C   UNL     1       2.600  -3.044  -0.119  0.00  0.00    +0.184 C 
ENDROOT
BRANCH   7   4
ATOM      4  N   UNL     1       1.730  -0.814   0.305  0.00  0.00    -0.302 NA
ATOM     26  H   UNL     1       0.968  -0.196   0.577  0.00  0.00    +0.123 HD
BRANCH   4  11
ATOM     11  C   UNL     1       2.493  -0.229  -0.797  0.00  0.00    +0.118 C 
BRANCH  11  13
ATOM      1 CL   UNL     1       1.216   2.505  -0.165  0.00  0.00    -0.083 Cl
ATOM     13  C   UNL     1       3.392   0.874  -0.341  0.00  0.00    -0.015 A 
ATOM     16  C   UNL     1       2.898   2.142  -0.034  0.00  0.00    +0.045 A 
ATOM     17  C   UNL     1       4.757   0.611  -0.225  0.00  0.00    +0.006 A 
ATOM     19  C   UNL     1       3.769   3.146   0.389  0.00  0.00    +0.020 A 
ATOM     20  C   UNL     1       5.628   1.615   0.198  0.00  0.00    +0.000 A 
ATOM     21  C   UNL     1       5.134   2.883   0.505  0.00  0.00    +0.001 A 
ENDBRANCH  11  13
ENDBRANCH   4  11
ENDBRANCH   7   4
BRANCH   7  10
ATOM     10  C   UNL     1       0.360  -2.238  -1.176  0.00  0.00    +0.085 C 
BRANCH  10  12
ATOM      3  O   UNL     1      -2.995  -1.725   0.063  0.00  0.00    -0.353 OA
ATOM      5  N   UNL     1      -1.898  -2.530  -0.220  0.00  0.00    -0.083 NA
ATOM     12  C   UNL     1      -0.988  -1.702  -0.741  0.00  0.00    +0.086 A 
ATOM     14  C   UNL     1      -1.449  -0.376  -0.810  0.00  0.00    +0.077 A 
ATOM     15  C   UNL     1      -2.716  -0.445  -0.292  0.00  0.00    +0.186 A 
BRANCH  15  18
ATOM      6  N   UNL     1      -4.883  -0.009   0.490  0.00  0.00    -0.252 NA
ATOM     18  C   UNL     1      -3.760   0.509  -0.055  0.00  0.00    +0.109 A 
ATOM     22  C   UNL     1      -3.598   1.848  -0.372  0.00  0.00    +0.031 A 
ATOM     23  C   UNL     1      -4.657   2.711  -0.112  0.00  0.00    +0.004 A 
ATOM     24  C   UNL     1      -5.891   0.860   0.729  0.00  0.00    +0.111 A 
ATOM     25  C   UNL     1      -5.829   2.215   0.449  0.00  0.00    +0.020 A 
ENDBRANCH  15  18
ENDBRANCH  10  12
ENDBRANCH   7  10
TORSDOF 6
