REMARK  Name = 11942956
REMARK  9 active torsions:
REMARK  status: ('A' for Active; 'I' for Inactive)
REMARK    1  A    between atoms: O_2  and  C_18
REMARK    2  A    between atoms: O_3  and  C_27
REMARK    3  A    between atoms: O_3  and  C_32
REMARK    4  A    between atoms: N_5  and  C_16
REMARK    5  A    between atoms: N_6  and  C_25
REMARK    6  A    between atoms: C_10  and  C_16
REMARK    7  A    between atoms: C_11  and  C_17
REMARK    8  A    between atoms: C_18  and  C_21
REMARK    9  A    between atoms: C_25  and  C_26
REMARK                            x       y       z     vdW  Elec       q    Type
REMARK                         _______ _______ _______ _____ _____    ______ ____
ROOT
ATOM      4  N   UNL     1      -2.040  -3.757   0.087  0.00  0.00    -0.297 NA
ATOM      9  C   UNL     1      -2.490  -1.464   1.231  0.00  0.00    +0.005 C 
ATOM     10  C   UNL     1      -0.753  -3.059   0.348  0.00  0.00    +0.078 C 
ATOM     11  C   UNL     1      -3.324  -1.618  -0.056  0.00  0.00    +0.092 C 
ATOM     12  C   UNL     1      -0.997  -1.632   0.886  0.00  0.00    +0.025 C 
ATOM     13  C   UNL     1      -2.881  -2.630   2.156  0.00  0.00    +0.020 C 
ATOM     14  C   UNL     1      -2.916  -2.919  -0.769  0.00  0.00    +0.097 C 
ATOM     15  C   UNL     1      -2.722  -3.957   1.391  0.00  0.00    +0.085 C 
ENDROOT
BRANCH  11  17
ATOM      1  O   UNL     1      -2.753  -0.522  -2.098  0.00  0.00    -0.275 OA
ATOM      6  N   UNL     1      -3.528   0.754  -0.312  0.00  0.00    -0.311 N 
ATOM     17  C   UNL     1      -3.171  -0.423  -0.947  0.00  0.00    +0.218 C 
ATOM     33  H   UNL     1      -3.907   0.724   0.629  0.00  0.00    +0.149 HD
BRANCH   6  25
ATOM     25  C   UNL     1      -3.450   2.050  -0.947  0.00  0.00    +0.143 C 
BRANCH  25  26
ATOM     26  C   UNL     1      -2.099   2.680  -0.773  0.00  0.00    +0.011 A 
ATOM     27  C   UNL     1      -1.829   3.499   0.324  0.00  0.00    +0.125 A 
ATOM     28  C   UNL     1      -1.107   2.439  -1.724  0.00  0.00    +0.009 A 
ATOM     29  C   UNL     1      -0.568   4.076   0.470  0.00  0.00    +0.046 A 
ATOM     30  C   UNL     1       0.154   3.017  -1.578  0.00  0.00    +0.001 A 
ATOM     31  C   UNL     1       0.424   3.836  -0.481  0.00  0.00    +0.004 A 
BRANCH  27   3
ATOM      3  O   UNL     1      -2.787   3.745   1.262  0.00  0.00    -0.495 OA
ATOM     32  C   UNL     1      -2.425   4.593   2.349  0.00  0.00    +0.277 C 
ENDBRANCH  27   3
ENDBRANCH  25  26
ENDBRANCH   6  25
ENDBRANCH  11  17
BRANCH  10  16
ATOM     16  C   UNL     1       0.166  -3.056  -0.875  0.00  0.00    +0.164 C 
BRANCH  16   5
ATOM      5  N   UNL     1       1.474  -2.501  -0.567  0.00  0.00    -0.250 N 
ATOM      7  N   UNL     1       2.486  -3.250  -0.142  0.00  0.00    -0.065 NA
ATOM      8  N   UNL     1       3.535  -2.434   0.045  0.00  0.00    -0.132 NA
ATOM     21  C   UNL     1       3.226  -1.143  -0.254  0.00  0.00    +0.114 A 
ATOM     22  C   UNL     1       1.911  -1.208  -0.641  0.00  0.00    +0.136 A 
BRANCH  21  18
ATOM     18  C   UNL     1       4.201   0.011  -0.143  0.00  0.00    +0.111 C 
ATOM     19  C   UNL     1       5.200  -0.139   1.019  0.00  0.00    +0.041 C 
ATOM     20  C   UNL     1       3.587   1.382   0.184  0.00  0.00    +0.041 C 
ATOM     23  C   UNL     1       5.753   1.264   1.276  0.00  0.00    +0.003 C 
ATOM     24  C   UNL     1       4.767   2.235   0.637  0.00  0.00    +0.003 C 
BRANCH  18   2
ATOM      2  O   UNL     1       4.957   0.133  -1.355  0.00  0.00    -0.382 OA
ATOM     34  H   UNL     1       4.336   0.361  -2.069  0.00  0.00    +0.211 HD
ENDBRANCH  18   2
ENDBRANCH  21  18
ENDBRANCH  16   5
ENDBRANCH  10  16
TORSDOF 8
