REMARK  Name = 75536963
REMARK  1 active torsions:
REMARK  status: ('A' for Active; 'I' for Inactive)
REMARK    1  A    between atoms: C_6  and  C_11
REMARK                            x       y       z     vdW  Elec       q    Type
REMARK                         _______ _______ _______ _____ _____    ______ ____
ROOT
ATOM      1  O   UNL     1      -2.845  -1.685   0.021  0.00  0.00    -0.275 OA
ATOM      2  O   UNL     1       4.083  -0.879   0.383  0.00  0.00    -0.253 OA
ATOM      3  N   UNL     1      -0.868  -0.572  -0.494  0.00  0.00    -0.298 N 
ATOM      4  N   UNL     1       1.798  -0.331   0.261  0.00  0.00    -0.278 N 
ATOM      5  N   UNL     1       3.317   1.285  -0.103  0.00  0.00    -0.297 N 
ATOM      7  C   UNL     1       1.015   0.884   0.114  0.00  0.00    +0.112 C 
ATOM     10  C   UNL     1      -0.140   0.658  -0.858  0.00  0.00    +0.132 C 
ATOM     11  C   UNL     1      -2.242  -0.652  -0.255  0.00  0.00    +0.219 C 
ATOM     12  C   UNL     1      -0.038  -1.783  -0.422  0.00  0.00    +0.127 C 
ATOM     13  C   UNL     1       1.131  -1.589   0.541  0.00  0.00    +0.128 C 
ATOM     14  C   UNL     1       2.040   1.919  -0.340  0.00  0.00    +0.129 C 
ATOM     15  C   UNL     1       3.173  -0.080   0.207  0.00  0.00    +0.303 C 
ATOM     16  H   UNL     1       4.215   1.744  -0.222  0.00  0.00    +0.150 HD
ENDROOT
BRANCH  11   6
ATOM      6  C   UNL     1      -3.026   0.617  -0.342  0.00  0.00    +0.075 C 
ATOM      8  C   UNL     1      -3.097   1.492   0.863  0.00  0.00    +0.013 C 
ATOM      9  C   UNL     1      -4.302   0.716   0.424  0.00  0.00    +0.013 C 
ENDBRANCH  11   6
TORSDOF 1
