REMARK  Name = 11886323
REMARK  12 active torsions:
REMARK  status: ('A' for Active; 'I' for Inactive)
REMARK    1  A    between atoms: O_3  and  C_24
REMARK    2  A    between atoms: O_3  and  C_29
REMARK    3  A    between atoms: O_5  and  C_28
REMARK    4  A    between atoms: N_7  and  C_17
REMARK    5  A    between atoms: N_8  and  C_18
REMARK    6  A    between atoms: N_12  and  C_34
REMARK    7  A    between atoms: C_21  and  C_22
REMARK    8  A    between atoms: C_22  and  C_23
REMARK    9  A    between atoms: C_23  and  C_25
REMARK   10  A    between atoms: C_23  and  C_26
REMARK   11  A    between atoms: C_23  and  C_27
REMARK   12  A    between atoms: C_25  and  C_28
REMARK                            x       y       z     vdW  Elec       q    Type
REMARK                         _______ _______ _______ _____ _____    ______ ____
ROOT
ATOM      1  O   UNL     1       4.412  -1.327  -0.951  0.00  0.00    -0.370 OA
ATOM      2  O   UNL     1       3.339  -0.267   1.809  0.00  0.00    -0.370 OA
ATOM     15  C   UNL     1       2.715  -0.799   0.630  0.00  0.00    +0.171 C 
ATOM     16  C   UNL     1       3.489  -0.290  -0.570  0.00  0.00    +0.176 C 
ATOM     17  C   UNL     1       2.887  -2.300   0.577  0.00  0.00    +0.130 C 
ATOM     18  C   UNL     1       4.252   0.915  -0.054  0.00  0.00    +0.171 C 
ATOM     19  C   UNL     1       4.252  -2.447  -0.069  0.00  0.00    +0.185 C 
ATOM     20  C   UNL     1       4.408   0.611   1.431  0.00  0.00    +0.190 C 
ENDROOT
BRANCH  18   8
ATOM      8  N   UNL     1       3.579   2.180  -0.361  0.00  0.00    -0.187 N 
ATOM      9  N   UNL     1       4.189   3.134  -1.078  0.00  0.00    -0.041 NA
ATOM     10  N   UNL     1       2.139   3.795  -0.501  0.00  0.00    -0.071 NA
ATOM     11  N   UNL     1       3.303   4.120  -1.161  0.00  0.00    -0.020 NA
ATOM     24  C   UNL     1       2.331   2.591  -0.015  0.00  0.00    +0.342 A 
BRANCH  24   3
ATOM      3  O   UNL     1       1.474   1.881   0.695  0.00  0.00    -0.423 OA
BRANCH   3  29
ATOM     29  C   UNL     1       0.099   1.998   0.543  0.00  0.00    +0.132 A 
ATOM     30  C   UNL     1      -0.460   2.037  -0.735  0.00  0.00    +0.048 A 
ATOM     31  C   UNL     1      -0.722   2.078   1.667  0.00  0.00    +0.048 A 
ATOM     32  C   UNL     1      -1.841   2.155  -0.887  0.00  0.00    +0.031 A 
ATOM     33  C   UNL     1      -2.104   2.196   1.514  0.00  0.00    +0.031 A 
ATOM     34  C   UNL     1      -2.663   2.235   0.237  0.00  0.00    +0.067 A 
BRANCH  34  12
ATOM     12  N   UNL     1      -4.033   2.353   0.085  0.00  0.00    -0.220 N 
ATOM     13  N   UNL     1      -4.856   2.433   1.141  0.00  0.00    -0.154 NA
ATOM     14  N   UNL     1      -6.009   2.519  -0.832  0.00  0.00    -0.222 NA
ATOM     35  C   UNL     1      -4.726   2.405  -1.084  0.00  0.00    +0.225 A 
ATOM     36  C   UNL     1      -6.040   2.532   0.533  0.00  0.00    +0.245 A 
ENDBRANCH  34  12
ENDBRANCH   3  29
ENDBRANCH  24   3
ENDBRANCH  18   8
BRANCH  17   7
ATOM      4  O   UNL     1       0.413  -3.433   1.513  0.00  0.00    -0.276 OA
ATOM      7  N   UNL     1       1.859  -2.916  -0.227  0.00  0.00    -0.308 N 
ATOM     21  C   UNL     1       0.697  -3.436   0.317  0.00  0.00    +0.214 C 
ATOM     37  H   UNL     1       1.978  -2.916  -1.236  0.00  0.00    +0.149 HD
BRANCH  21  22
ATOM     22  C   UNL     1      -0.238  -4.028  -0.726  0.00  0.00    +0.102 C 
BRANCH  22  23
ATOM     23  C   UNL     1      -1.316  -3.052  -1.263  0.00  0.00    -0.017 C 
ATOM     26  C   UNL     1      -2.121  -3.788  -2.355  0.00  0.00    +0.012 C 
ATOM     27  C   UNL     1      -0.652  -1.827  -1.925  0.00  0.00    +0.012 C 
BRANCH  23  25
ATOM     25  C   UNL     1      -2.267  -2.539  -0.155  0.00  0.00    +0.127 C 
BRANCH  25  28
ATOM      6  O   UNL     1      -2.550  -4.212   1.573  0.00  0.00    -0.251 OA
ATOM     28  C   UNL     1      -3.005  -3.623   0.601  0.00  0.00    +0.305 C 
BRANCH  28   5
ATOM      5  O   UNL     1      -4.231  -3.885   0.084  0.00  0.00    -0.481 OA
ATOM     38  H   UNL     1      -4.695  -4.592   0.581  0.00  0.00    +0.295 HD
ENDBRANCH  28   5
ENDBRANCH  25  28
ENDBRANCH  23  25
ENDBRANCH  22  23
ENDBRANCH  21  22
ENDBRANCH  17   7
TORSDOF 10
