REMARK  Name = 51136631
REMARK  12 active torsions:
REMARK  status: ('A' for Active; 'I' for Inactive)
REMARK    1  A    between atoms: O_1  and  C_20
REMARK    2  A    between atoms: O_4  and  C_26
REMARK    3  A    between atoms: O_4  and  C_33
REMARK    4  A    between atoms: O_5  and  C_27
REMARK    5  A    between atoms: O_5  and  C_35
REMARK    6  A    between atoms: O_6  and  C_29
REMARK    7  A    between atoms: O_6  and  C_36
REMARK    8  A    between atoms: N_9  and  C_28
REMARK    9  A    between atoms: C_10  and  C_15
REMARK   10  A    between atoms: C_11  and  C_16
REMARK   11  A    between atoms: C_15  and  C_17
REMARK   12  A    between atoms: C_16  and  C_20
REMARK                            x       y       z     vdW  Elec       q    Type
REMARK                         _______ _______ _______ _____ _____    ______ ____
ROOT
ATOM      2  O   UNL     1      -1.043   3.713  -0.623  0.00  0.00    -0.252 OA
ATOM      7  N   UNL     1      -2.171   2.073   0.552  0.00  0.00    -0.285 N 
ATOM      9  N   UNL     1       0.165   2.313   0.778  0.00  0.00    -0.266 N 
ATOM     10  C   UNL     1      -2.824  -0.299   0.857  0.00  0.00    +0.016 C 
ATOM     11  C   UNL     1      -4.191   0.030   0.201  0.00  0.00    +0.006 C 
ATOM     12  C   UNL     1      -4.098   1.250  -0.733  0.00  0.00    +0.023 C 
ATOM     13  C   UNL     1      -2.252   0.966   1.518  0.00  0.00    +0.113 C 
ATOM     14  C   UNL     1      -3.460   2.448  -0.030  0.00  0.00    +0.109 C 
ATOM     18  C   UNL     1      -1.007   2.780   0.183  0.00  0.00    +0.307 C 
ATOM     37  H   UNL     1       0.107   1.875   1.690  0.00  0.00    +0.156 HD
ENDROOT
BRANCH   9  28
ATOM     28  C   UNL     1       1.477   2.357   0.244  0.00  0.00    +0.077 A 
ATOM     29  C   UNL     1       2.556   1.847   0.965  0.00  0.00    +0.141 A 
ATOM     30  C   UNL     1       1.683   2.918  -1.016  0.00  0.00    +0.027 A 
ATOM     31  C   UNL     1       3.842   1.899   0.427  0.00  0.00    +0.047 A 
ATOM     32  C   UNL     1       2.969   2.971  -1.554  0.00  0.00    +0.002 A 
ATOM     34  C   UNL     1       4.048   2.461  -0.833  0.00  0.00    +0.004 A 
BRANCH  29   6
ATOM      6  O   UNL     1       2.376   1.293   2.198  0.00  0.00    -0.493 OA
ATOM     36  C   UNL     1       3.537   0.798   2.861  0.00  0.00    +0.277 C 
ENDBRANCH  29   6
ENDBRANCH   9  28
BRANCH  10  15
ATOM     15  C   UNL     1      -1.800  -0.910  -0.107  0.00  0.00    +0.061 C 
BRANCH  15  17
ATOM      8  N   UNL     1      -1.072  -2.162   1.809  0.00  0.00    -0.287 NA
ATOM     17  C   UNL     1      -0.737  -1.647   0.672  0.00  0.00    +0.044 C 
ATOM     19  C   UNL     1       0.632  -1.738   0.104  0.00  0.00    +0.003 A 
ATOM     21  C   UNL     1       1.663  -2.071   0.992  0.00  0.00    -0.033 A 
ATOM     22  C   UNL     1       1.325  -2.295   2.436  0.00  0.00    +0.059 C 
ATOM     23  C   UNL     1      -0.056  -2.929   2.538  0.00  0.00    +0.146 C 
ATOM     24  C   UNL     1       0.909  -1.496  -1.243  0.00  0.00    +0.059 A 
ATOM     25  C   UNL     1       2.980  -2.134   0.528  0.00  0.00    +0.053 A 
ATOM     26  C   UNL     1       2.225  -1.576  -1.700  0.00  0.00    +0.162 A 
ATOM     27  C   UNL     1       3.258  -1.891  -0.817  0.00  0.00    +0.162 A 
BRANCH  26   4
ATOM      4  O   UNL     1       2.490  -1.340  -3.016  0.00  0.00    -0.491 OA
ATOM     33  C   UNL     1       1.381  -1.024  -3.853  0.00  0.00    +0.277 C 
ENDBRANCH  26   4
BRANCH  27   5
ATOM      5  O   UNL     1       4.545  -1.963  -1.257  0.00  0.00    -0.491 OA
ATOM     35  C   UNL     1       5.542  -2.291  -0.291  0.00  0.00    +0.277 C 
ENDBRANCH  27   5
ENDBRANCH  15  17
ENDBRANCH  10  15
BRANCH  11  16
ATOM     16  C   UNL     1      -4.809  -1.162  -0.529  0.00  0.00    +0.124 C 
BRANCH  16  20
ATOM      3  O   UNL     1      -6.978  -0.078  -0.275  0.00  0.00    -0.251 OA
ATOM     20  C   UNL     1      -6.299  -1.014  -0.670  0.00  0.00    +0.305 C 
BRANCH  20   1
ATOM      1  O   UNL     1      -6.807  -2.094  -1.318  0.00  0.00    -0.481 OA
ATOM     38  H   UNL     1      -7.779  -2.030  -1.428  0.00  0.00    +0.295 HD
ENDBRANCH  20   1
ENDBRANCH  16  20
ENDBRANCH  11  16
TORSDOF 9
