REMARK  Name = 7144049
REMARK  3 active torsions:
REMARK  status: ('A' for Active; 'I' for Inactive)
REMARK    1  A    between atoms: N_3  and  C_14
REMARK    2  A    between atoms: C_14  and  C_19
REMARK    3  A    between atoms: C_17  and  C_20
REMARK                            x       y       z     vdW  Elec       q    Type
REMARK                         _______ _______ _______ _____ _____    ______ ____
ROOT
ATOM      2  O   UNL     1      -2.110   1.419  -1.552  0.00  0.00    -0.267 OA
ATOM      3  N   UNL     1       2.764   0.700  -0.616  0.00  0.00    -0.297 NA
ATOM      4  N   UNL     1      -0.263   1.584  -0.138  0.00  0.00    -0.311 N 
ATOM      7  C   UNL     1       1.791   3.009  -0.704  0.00  0.00    +0.024 C 
ATOM      8  C   UNL     1       1.725   1.754   1.397  0.00  0.00    +0.050 C 
ATOM      9  C   UNL     1       1.928   3.146   0.807  0.00  0.00    +0.017 C 
ATOM     10  C   UNL     1       2.849   2.024  -1.244  0.00  0.00    +0.090 C 
ATOM     11  C   UNL     1       2.809   0.797   0.851  0.00  0.00    +0.094 C 
ATOM     12  C   UNL     1       0.357   2.572  -1.032  0.00  0.00    +0.130 C 
ATOM     13  C   UNL     1       0.340   1.227   1.071  0.00  0.00    +0.026 A 
ATOM     15  C   UNL     1      -0.296   0.409   1.925  0.00  0.00    +0.022 A 
ATOM     16  C   UNL     1      -1.533   1.101  -0.510  0.00  0.00    +0.259 A 
ATOM     17  C   UNL     1      -2.206   0.159   0.451  0.00  0.00    +0.050 A 
ATOM     18  C   UNL     1      -1.585  -0.135   1.604  0.00  0.00    +0.015 A 
ENDROOT
BRANCH  17  20
ATOM      5  N   UNL     1      -5.914  -0.361   0.239  0.00  0.00    -0.243 NA
ATOM      6  N   UNL     1      -4.810  -2.218  -0.829  0.00  0.00    -0.243 NA
ATOM     20  C   UNL     1      -3.515  -0.442   0.142  0.00  0.00    +0.024 A 
ATOM     24  C   UNL     1      -4.699   0.160   0.506  0.00  0.00    +0.122 A 
ATOM     25  C   UNL     1      -3.628  -1.640  -0.529  0.00  0.00    +0.122 A 
ATOM     26  C   UNL     1      -5.896  -1.535  -0.421  0.00  0.00    +0.221 A 
ENDBRANCH  17  20
BRANCH   3  14
ATOM     14  C   UNL     1       3.813  -0.185  -1.115  0.00  0.00    +0.126 C 
BRANCH  14  19
ATOM      1  S   UNL     1       4.938  -2.233   0.354  0.00  0.00    -0.100 S 
ATOM     19  C   UNL     1       3.662  -1.573  -0.555  0.00  0.00    +0.004 A 
ATOM     21  C   UNL     1       2.595  -2.411  -0.684  0.00  0.00    +0.012 A 
ATOM     22  C   UNL     1       2.825  -3.646  -0.013  0.00  0.00    +0.008 A 
ATOM     23  C   UNL     1       4.061  -3.683   0.594  0.00  0.00    +0.045 A 
ENDBRANCH  14  19
ENDBRANCH   3  14
TORSDOF 3
