REMARK  Name = 38027239
REMARK  18 active torsions:
REMARK  status: ('A' for Active; 'I' for Inactive)
REMARK    1  A    between atoms: O_3  and  C_29
REMARK    2  A    between atoms: N_5  and  C_14
REMARK    3  A    between atoms: N_6  and  C_26
REMARK    4  A    between atoms: N_6  and  C_27
REMARK    5  A    between atoms: C_7  and  C_11
REMARK    6  A    between atoms: C_8  and  C_14
REMARK    7  A    between atoms: C_10  and  C_15
REMARK    8  A    between atoms: C_11  and  C_16
REMARK    9  A    between atoms: C_11  and  C_17
REMARK   10  A    between atoms: C_12  and  C_18
REMARK   11  A    between atoms: C_15  and  C_19
REMARK   12  A    between atoms: C_20  and  C_22
REMARK   13  A    between atoms: C_21  and  C_22
REMARK   14  A    between atoms: C_21  and  C_23
REMARK   15  A    between atoms: C_21  and  C_24
REMARK   16  A    between atoms: C_21  and  C_25
REMARK   17  A    between atoms: C_23  and  C_29
REMARK   18  A    between atoms: C_26  and  C_28
REMARK                            x       y       z     vdW  Elec       q    Type
REMARK                         _______ _______ _______ _____ _____    ______ ____
ROOT
ATOM      7  C   UNL     1       1.608   1.852  -1.109  0.00  0.00    +0.000 C 
ATOM      8  C   UNL     1       2.994   2.272  -0.560  0.00  0.00    +0.032 C 
ATOM      9  C   UNL     1       0.528   2.847  -0.657  0.00  0.00    +0.012 C 
ATOM     10  C   UNL     1       0.435   2.950   0.877  0.00  0.00    +0.023 C 
ATOM     12  C   UNL     1       1.801   3.098   1.515  0.00  0.00    -0.073 C 
ATOM     13  C   UNL     1       2.934   2.803   0.854  0.00  0.00    -0.022 C 
ATOM     18  C   UNL     1       1.838   3.636   2.918  0.00  0.00    +0.039 C 
ENDROOT
BRANCH   7  11
ATOM     11  C   UNL     1       1.610   1.746  -2.637  0.00  0.00    -0.013 C 
ATOM     16  C   UNL     1       0.510   0.798  -3.106  0.00  0.00    +0.007 C 
ATOM     17  C   UNL     1       1.440   3.125  -3.266  0.00  0.00    +0.007 C 
ENDBRANCH   7  11
BRANCH   8  14
ATOM     14  C   UNL     1       3.991   1.109  -0.627  0.00  0.00    +0.112 C 
BRANCH  14   5
ATOM      2  O   UNL     1       3.375  -1.604  -1.364  0.00  0.00    -0.276 OA
ATOM      5  N   UNL     1       3.597   0.051   0.250  0.00  0.00    -0.315 N 
ATOM     20  C   UNL     1       3.316  -1.239  -0.192  0.00  0.00    +0.214 C 
ATOM     35  H   UNL     1       3.574   0.235   1.249  0.00  0.00    +0.149 HD
BRANCH  20  22
ATOM     22  C   UNL     1       2.922  -2.194   0.925  0.00  0.00    +0.102 C 
BRANCH  22  21
ATOM     21  C   UNL     1       2.527  -3.617   0.455  0.00  0.00    -0.017 C 
ATOM     24  C   UNL     1       3.704  -4.285  -0.288  0.00  0.00    +0.012 C 
ATOM     25  C   UNL     1       2.232  -4.466   1.709  0.00  0.00    +0.012 C 
BRANCH  21  23
ATOM     23  C   UNL     1       1.303  -3.619  -0.491  0.00  0.00    +0.127 C 
BRANCH  23  29
ATOM      4  O   UNL     1      -0.552  -3.439   1.055  0.00  0.00    -0.251 OA
ATOM     29  C   UNL     1       0.052  -2.995   0.088  0.00  0.00    +0.305 C 
BRANCH  29   3
ATOM      3  O   UNL     1      -0.343  -1.886  -0.585  0.00  0.00    -0.481 OA
ATOM     36  H   UNL     1      -1.160  -1.495  -0.208  0.00  0.00    +0.295 HD
ENDBRANCH  29   3
ENDBRANCH  23  29
ENDBRANCH  21  23
ENDBRANCH  22  21
ENDBRANCH  20  22
ENDBRANCH  14   5
ENDBRANCH   8  14
BRANCH  10  15
ATOM     15  C   UNL     1      -0.319   1.753   1.465  0.00  0.00    +0.103 C 
BRANCH  15  19
ATOM      1  O   UNL     1      -2.302   2.791   0.607  0.00  0.00    -0.276 OA
ATOM      6  N   UNL     1      -2.575   0.780   1.729  0.00  0.00    -0.300 N 
ATOM     19  C   UNL     1      -1.814   1.838   1.220  0.00  0.00    +0.216 C 
ATOM     27  C   UNL     1      -1.976  -0.337   2.450  0.00  0.00    +0.132 C 
BRANCH   6  26
ATOM     26  C   UNL     1      -4.027   0.714   1.576  0.00  0.00    +0.142 C 
BRANCH  26  28
ATOM     28  C   UNL     1      -4.428  -0.043   0.343  0.00  0.00    -0.030 A 
ATOM     30  C   UNL     1      -4.594   0.631  -0.867  0.00  0.00    +0.005 A 
ATOM     31  C   UNL     1      -4.635  -1.421   0.408  0.00  0.00    +0.005 A 
ATOM     32  C   UNL     1      -4.967  -0.073  -2.012  0.00  0.00    +0.000 A 
ATOM     33  C   UNL     1      -5.008  -2.125  -0.737  0.00  0.00    +0.000 A 
ATOM     34  C   UNL     1      -5.174  -1.450  -1.947  0.00  0.00    +0.000 A 
ENDBRANCH  26  28
ENDBRANCH   6  26
ENDBRANCH  15  19
ENDBRANCH  10  15
TORSDOF 12
