REMARK  Name = 75536517
REMARK  10 active torsions:
REMARK  status: ('A' for Active; 'I' for Inactive)
REMARK    1  A    between atoms: O_4  and  C_10
REMARK    2  A    between atoms: N_6  and  C_8
REMARK    3  A    between atoms: N_6  and  C_9
REMARK    4  A    between atoms: N_7  and  C_18
REMARK    5  A    between atoms: C_13  and  C_18
REMARK    6  A    between atoms: C_19  and  C_20
REMARK    7  A    between atoms: C_19  and  C_22
REMARK    8  A    between atoms: C_19  and  C_23
REMARK    9  A    between atoms: C_19  and  C_24
REMARK   10  A    between atoms: C_20  and  C_21
REMARK                            x       y       z     vdW  Elec       q    Type
REMARK                         _______ _______ _______ _____ _____    ______ ____
ROOT
ATOM      3  O   UNL     1       1.267  -0.029  -0.358  0.00  0.00    -0.371 OA
ATOM      8  C   UNL     1      -0.957  -0.727   0.095  0.00  0.00    +0.111 C 
ATOM     10  C   UNL     1      -0.030  -1.922   0.215  0.00  0.00    +0.164 C 
ATOM     13  C   UNL     1       1.311  -1.232   0.427  0.00  0.00    +0.165 C 
ATOM     14  C   UNL     1      -0.102   0.238  -0.709  0.00  0.00    +0.181 C 
ENDROOT
BRANCH  10   4
ATOM      4  O   UNL     1      -0.365  -2.767   1.299  0.00  0.00    -0.388 OA
ATOM     26  H   UNL     1      -0.367  -2.234   2.112  0.00  0.00    +0.210 HD
ENDBRANCH  10   4
BRANCH   8   6
ATOM      6  N   UNL     1      -2.223  -1.034  -0.551  0.00  0.00    -0.306 NA
ATOM     25  H   UNL     1      -2.595  -1.915  -0.197  0.00  0.00    +0.123 HD
BRANCH   6   9
ATOM      1  F   UNL     1      -6.665  -0.201   0.240  0.00  0.00    -0.206 F 
ATOM      2  F   UNL     1      -6.822   1.965   0.358  0.00  0.00    -0.206 F 
ATOM      9  C   UNL     1      -3.195   0.038  -0.340  0.00  0.00    +0.054 C 
ATOM     11  C   UNL     1      -3.833  -0.103   1.047  0.00  0.00    +0.024 C 
ATOM     12  C   UNL     1      -4.257   0.002  -1.446  0.00  0.00    +0.024 C 
ATOM     15  C   UNL     1      -4.906   0.960   1.275  0.00  0.00    +0.077 C 
ATOM     16  C   UNL     1      -5.331   1.065  -1.219  0.00  0.00    +0.077 C 
ATOM     17  C   UNL     1      -5.944   0.949   0.166  0.00  0.00    +0.249 C 
ENDBRANCH   6   9
ENDBRANCH   8   6
BRANCH  13  18
ATOM     18  C   UNL     1       2.497  -2.080   0.002  0.00  0.00    +0.138 C 
BRANCH  18   7
ATOM      5  O   UNL     1       3.888  -0.351  -1.860  0.00  0.00    -0.276 OA
ATOM      7  N   UNL     1       3.747  -1.387   0.216  0.00  0.00    -0.313 N 
ATOM     21  C   UNL     1       4.339  -0.578  -0.738  0.00  0.00    +0.214 C 
ATOM     27  H   UNL     1       4.196  -1.501   1.119  0.00  0.00    +0.149 HD
BRANCH  21  20
ATOM     20  C   UNL     1       5.652   0.029  -0.272  0.00  0.00    +0.102 C 
BRANCH  20  19
ATOM     19  C   UNL     1       5.522   1.424   0.386  0.00  0.00    -0.029 C 
ATOM     22  C   UNL     1       4.921   2.388  -0.656  0.00  0.00    +0.011 C 
ATOM     23  C   UNL     1       6.897   1.965   0.813  0.00  0.00    +0.011 C 
ATOM     24  C   UNL     1       4.590   1.386   1.608  0.00  0.00    +0.011 C 
ENDBRANCH  20  19
ENDBRANCH  21  20
ENDBRANCH  18   7
ENDBRANCH  13  18
TORSDOF 7
