REMARK  Name = 45361025
REMARK  9 active torsions:
REMARK  status: ('A' for Active; 'I' for Inactive)
REMARK    1  A    between atoms: N_4  and  C_13
REMARK    2  A    between atoms: N_5  and  C_17
REMARK    3  A    between atoms: N_7  and  C_22
REMARK    4  A    between atoms: C_12  and  C_16
REMARK    5  A    between atoms: C_13  and  C_18
REMARK    6  A    between atoms: C_13  and  C_19
REMARK    7  A    between atoms: C_16  and  C_20
REMARK    8  A    between atoms: C_20  and  C_21
REMARK    9  A    between atoms: C_22  and  C_23
REMARK                            x       y       z     vdW  Elec       q    Type
REMARK                         _______ _______ _______ _____ _____    ______ ____
ROOT
ATOM      2  O   UNL     1       2.462  -0.484   2.034  0.00  0.00    -0.274 OA
ATOM      4  N   UNL     1       4.138  -1.045  -0.007  0.00  0.00    -0.288 NA
ATOM      5  N   UNL     1       1.180   0.531  -1.475  0.00  0.00    -0.296 NA
ATOM      6  N   UNL     1       1.759   1.517   1.174  0.00  0.00    -0.312 N 
ATOM      8  C   UNL     1       2.612   0.158  -1.461  0.00  0.00    +0.084 C 
ATOM      9  C   UNL     1       3.380   0.216  -0.108  0.00  0.00    +0.161 C 
ATOM     10  C   UNL     1       2.885  -1.286  -1.923  0.00  0.00    +0.036 C 
ATOM     11  C   UNL     1       4.258  -1.583  -1.357  0.00  0.00    +0.087 C 
ATOM     12  C   UNL     1       0.910   1.951  -1.112  0.00  0.00    +0.074 C 
ATOM     14  C   UNL     1       2.498   0.350   1.130  0.00  0.00    +0.232 C 
ATOM     15  C   UNL     1       1.718   2.478   0.090  0.00  0.00    +0.123 C 
ATOM     17  C   UNL     1       0.568   0.212  -2.776  0.00  0.00    +0.105 C 
ATOM     27  H   UNL     1       1.198   1.696   2.001  0.00  0.00    +0.149 HD
ENDROOT
BRANCH   4  13
ATOM     13  C   UNL     1       5.435  -0.889   0.638  0.00  0.00    +0.051 C 
ATOM     18  C   UNL     1       6.152  -2.234   0.717  0.00  0.00    +0.024 C 
ATOM     19  C   UNL     1       5.243  -0.288   2.027  0.00  0.00    +0.024 C 
ENDBRANCH   4  13
BRANCH  12  16
ATOM     16  C   UNL     1      -0.586   2.150  -0.789  0.00  0.00    +0.029 C 
BRANCH  16  20
ATOM     20  C   UNL     1      -1.099   1.026   0.091  0.00  0.00    +0.097 C 
BRANCH  20  21
ATOM      3  O   UNL     1      -3.246   2.143   0.016  0.00  0.00    -0.276 OA
ATOM      7  N   UNL     1      -3.040   0.173   1.226  0.00  0.00    -0.311 N 
ATOM     21  C   UNL     1      -2.571   1.201   0.421  0.00  0.00    +0.213 C 
ATOM     28  H   UNL     1      -2.411  -0.577   1.500  0.00  0.00    +0.149 HD
BRANCH   7  22
ATOM     22  C   UNL     1      -4.409   0.112   1.679  0.00  0.00    +0.146 C 
BRANCH  22  23
ATOM      1  S   UNL     1      -6.625   0.063   0.004  0.00  0.00    -0.100 S 
ATOM     23  C   UNL     1      -5.275  -0.684   0.746  0.00  0.00    +0.007 A 
ATOM     24  C   UNL     1      -5.144  -2.004   0.372  0.00  0.00    +0.013 A 
ATOM     25  C   UNL     1      -6.166  -2.406  -0.536  0.00  0.00    +0.008 A 
ATOM     26  C   UNL     1      -7.038  -1.379  -0.821  0.00  0.00    +0.045 A 
ENDBRANCH  22  23
ENDBRANCH   7  22
ENDBRANCH  20  21
ENDBRANCH  16  20
ENDBRANCH  12  16
TORSDOF 6
