REMARK  Name = 11885917
REMARK  8 active torsions:
REMARK  status: ('A' for Active; 'I' for Inactive)
REMARK    1  A    between atoms: O_4  and  C_29
REMARK    2  A    between atoms: O_4  and  C_31
REMARK    3  A    between atoms: O_5  and  C_30
REMARK    4  A    between atoms: O_5  and  C_32
REMARK    5  A    between atoms: N_8  and  C_22
REMARK    6  A    between atoms: N_9  and  C_20
REMARK    7  A    between atoms: C_23  and  C_26
REMARK    8  A    between atoms: C_26  and  C_29
REMARK                            x       y       z     vdW  Elec       q    Type
REMARK                         _______ _______ _______ _____ _____    ______ ____
ROOT
ATOM      1  O   UNL     1       0.900   1.375   2.518  0.00  0.00    -0.266 OA
ATOM      2  O   UNL     1      -2.225  -0.113  -2.282  0.00  0.00    -0.252 OA
ATOM      6  N   UNL     1      -2.873   1.559  -0.819  0.00  0.00    -0.284 N 
ATOM      7  N   UNL     1      -0.291   2.494   0.848  0.00  0.00    -0.310 N 
ATOM      8  N   UNL     1      -3.250  -0.709  -0.288  0.00  0.00    -0.269 N 
ATOM     10  C   UNL     1      -2.746   3.163   1.108  0.00  0.00    +0.027 C 
ATOM     11  C   UNL     1      -1.561   3.673  -0.981  0.00  0.00    +0.054 C 
ATOM     12  C   UNL     1      -2.406   4.283   0.134  0.00  0.00    +0.018 C 
ATOM     13  C   UNL     1      -3.532   2.037   0.408  0.00  0.00    +0.114 C 
ATOM     14  C   UNL     1      -1.447   2.647   1.739  0.00  0.00    +0.130 C 
ATOM     15  C   UNL     1      -2.391   2.611  -1.722  0.00  0.00    +0.119 C 
ATOM     16  C   UNL     1      -0.290   3.048  -0.436  0.00  0.00    +0.027 A 
ATOM     17  C   UNL     1       0.819   3.001  -1.192  0.00  0.00    +0.024 A 
ATOM     18  C   UNL     1       0.847   1.861   1.387  0.00  0.00    +0.273 A 
ATOM     19  C   UNL     1      -2.737   0.207  -1.206  0.00  0.00    +0.306 C 
ATOM     20  C   UNL     1       2.054   1.806   0.503  0.00  0.00    +0.099 A 
ATOM     21  C   UNL     1       2.013   2.364  -0.711  0.00  0.00    +0.030 A 
ATOM     33  H   UNL     1      -4.024  -0.417   0.300  0.00  0.00    +0.156 HD
ENDROOT
BRANCH   8  22
ATOM     22  C   UNL     1      -2.799  -2.031  -0.051  0.00  0.00    +0.035 A 
ATOM     24  C   UNL     1      -3.427  -2.821   0.911  0.00  0.00    +0.027 A 
ATOM     25  C   UNL     1      -1.726  -2.542  -0.782  0.00  0.00    +0.027 A 
ATOM     27  C   UNL     1      -2.983  -4.123   1.143  0.00  0.00    +0.047 A 
ATOM     28  C   UNL     1      -1.282  -3.844  -0.550  0.00  0.00    +0.047 A 
ATOM     30  C   UNL     1      -1.911  -4.635   0.412  0.00  0.00    +0.120 A 
BRANCH  30   5
ATOM      5  O   UNL     1      -1.479  -5.905   0.637  0.00  0.00    -0.495 OA
ATOM     32  C   UNL     1      -0.377  -6.365  -0.145  0.00  0.00    +0.277 C 
ENDBRANCH  30   5
ENDBRANCH   8  22
BRANCH  20   9
ATOM      3  O   UNL     1       4.044   0.451  -1.047  0.00  0.00    -0.275 OA
ATOM      9  N   UNL     1       3.171   1.186   0.983  0.00  0.00    -0.281 N 
ATOM     23  C   UNL     1       4.102   0.543   0.176  0.00  0.00    +0.220 C 
ATOM     34  H   UNL     1       3.200   1.004   1.983  0.00  0.00    +0.155 HD
BRANCH  23  26
ATOM     26  C   UNL     1       5.234  -0.049   1.002  0.00  0.00    +0.124 C 
BRANCH  26  29
ATOM     29  C   UNL     1       6.277  -0.763   0.155  0.00  0.00    +0.168 C 
BRANCH  29   4
ATOM      4  O   UNL     1       5.666  -1.851  -0.528  0.00  0.00    -0.382 OA
ATOM     31  C   UNL     1       6.605  -2.557  -1.327  0.00  0.00    +0.194 C 
ENDBRANCH  29   4
ENDBRANCH  26  29
ENDBRANCH  23  26
ENDBRANCH  20   9
TORSDOF 6
