REMARK  Name = 11882600
REMARK  11 active torsions:
REMARK  status: ('A' for Active; 'I' for Inactive)
REMARK    1  A    between atoms: S_1  and  N_8
REMARK    2  A    between atoms: S_1  and  C_28
REMARK    3  A    between atoms: O_7  and  C_35
REMARK    4  A    between atoms: O_7  and  C_40
REMARK    5  A    between atoms: N_9  and  C_25
REMARK    6  A    between atoms: N_10  and  C_19
REMARK    7  A    between atoms: C_13  and  C_17
REMARK    8  A    between atoms: C_14  and  C_26
REMARK    9  A    between atoms: C_17  and  C_25
REMARK   10  A    between atoms: C_25  and  C_27
REMARK   11  A    between atoms: C_29  and  C_32
REMARK                            x       y       z     vdW  Elec       q    Type
REMARK                         _______ _______ _______ _____ _____    ______ ____
ROOT
ATOM      8  N   UNL     1       0.215   0.282   1.075  0.00  0.00    -0.165 NA
ATOM     14  C   UNL     1      -0.516  -0.908   1.589  0.00  0.00    +0.167 C 
ATOM     18  C   UNL     1      -2.029  -0.726   1.502  0.00  0.00    +0.052 C 
ATOM     19  C   UNL     1      -2.504  -0.231   0.130  0.00  0.00    +0.076 C 
ATOM     22  C   UNL     1      -1.712   1.000  -0.312  0.00  0.00    +0.039 C 
ATOM     23  C   UNL     1      -0.215   0.725  -0.284  0.00  0.00    +0.112 C 
ENDROOT
BRANCH  14  26
ATOM      2  O   UNL     1      -0.793  -2.847   0.232  0.00  0.00    -0.274 OA
ATOM      9  N   UNL     1       1.349  -2.241   0.913  0.00  0.00    -0.303 N 
ATOM     26  C   UNL     1      -0.025  -2.098   0.830  0.00  0.00    +0.233 C 
ATOM     41  H   UNL     1       1.874  -1.596   1.496  0.00  0.00    +0.149 HD
BRANCH   9  25
ATOM     25  C   UNL     1       2.070  -3.325   0.284  0.00  0.00    +0.159 C 
BRANCH  25  27
ATOM      5  O   UNL     1       2.134  -4.429   2.449  0.00  0.00    -0.274 OA
ATOM     11  N   UNL     1       2.017  -5.729   0.559  0.00  0.00    -0.328 N 
ATOM     27  C   UNL     1       2.068  -4.523   1.225  0.00  0.00    +0.231 C 
ATOM     43  H   UNL     1       2.018  -6.606   1.070  0.00  0.00    +0.145 HD
ATOM     44  H   UNL     1       1.983  -5.793  -0.453  0.00  0.00    +0.145 HD
ENDBRANCH  25  27
BRANCH  25  17
ATOM     17  C   UNL     1       3.481  -2.910  -0.144  0.00  0.00    +0.035 C 
BRANCH  17  13
ATOM     13  C   UNL     1       3.523  -1.690  -1.063  0.00  0.00    -0.009 C 
ATOM     15  C   UNL     1       4.972  -1.319  -1.405  0.00  0.00    +0.003 C 
ATOM     16  C   UNL     1       2.708  -1.943  -2.338  0.00  0.00    +0.003 C 
ATOM     20  C   UNL     1       5.039  -0.134  -2.365  0.00  0.00    +0.000 C 
ATOM     21  C   UNL     1       2.779  -0.757  -3.297  0.00  0.00    +0.000 C 
ATOM     24  C   UNL     1       4.221  -0.386  -3.628  0.00  0.00    +0.000 C 
ENDBRANCH  17  13
ENDBRANCH  25  17
ENDBRANCH   9  25
ENDBRANCH  14  26
BRANCH  19  10
ATOM      6  O   UNL     1      -4.339  -0.496  -2.062  0.00  0.00    -0.270 OA
ATOM     10  N   UNL     1      -3.918   0.056   0.151  0.00  0.00    -0.308 N 
ATOM     29  C   UNL     1      -4.726  -0.104  -0.964  0.00  0.00    +0.244 C 
ATOM     42  H   UNL     1      -4.288   0.489   0.991  0.00  0.00    +0.149 HD
BRANCH  29  32
ATOM     12  N   UNL     1      -8.845   0.945  -0.454  0.00  0.00    -0.263 NA
ATOM     32  C   UNL     1      -6.156   0.260  -0.787  0.00  0.00    +0.040 A 
ATOM     36  C   UNL     1      -6.910   0.678  -1.878  0.00  0.00    +0.033 A 
ATOM     37  C   UNL     1      -6.745   0.184   0.470  0.00  0.00    +0.033 A 
ATOM     38  C   UNL     1      -8.239   1.006  -1.660  0.00  0.00    +0.111 A 
ATOM     39  C   UNL     1      -8.081   0.534   0.583  0.00  0.00    +0.111 A 
ENDBRANCH  29  32
ENDBRANCH  19  10
BRANCH   8   1
ATOM      1  S   UNL     1       0.537   1.525   2.209  0.00  0.00    +0.062 S 
ATOM      3  O   UNL     1       1.095   0.928   3.399  0.00  0.00    -0.153 OA
ATOM      4  O   UNL     1      -0.609   2.399   2.268  0.00  0.00    -0.153 OA
BRANCH   1  28
ATOM     28  C   UNL     1       1.832   2.370   1.362  0.00  0.00    +0.106 A 
ATOM     30  C   UNL     1       3.084   1.770   1.225  0.00  0.00    +0.032 A 
ATOM     31  C   UNL     1       1.605   3.638   0.828  0.00  0.00    +0.032 A 
ATOM     33  C   UNL     1       4.108   2.438   0.554  0.00  0.00    +0.047 A 
ATOM     34  C   UNL     1       2.629   4.306   0.156  0.00  0.00    +0.047 A 
ATOM     35  C   UNL     1       3.881   3.706   0.019  0.00  0.00    +0.120 A 
BRANCH  35   7
ATOM      7  O   UNL     1       4.880   4.358  -0.635  0.00  0.00    -0.495 OA
ATOM     40  C   UNL     1       6.135   3.687  -0.737  0.00  0.00    +0.277 C 
ENDBRANCH  35   7
ENDBRANCH   1  28
ENDBRANCH   8   1
TORSDOF 10
