REMARK  Name = 26743244
REMARK  8 active torsions:
REMARK  status: ('A' for Active; 'I' for Inactive)
REMARK    1  A    between atoms: N_5  and  C_29
REMARK    2  A    between atoms: C_7  and  C_11
REMARK    3  A    between atoms: C_8  and  C_12
REMARK    4  A    between atoms: C_11  and  C_17
REMARK    5  A    between atoms: C_12  and  C_19
REMARK    6  A    between atoms: C_14  and  C_18
REMARK    7  A    between atoms: C_18  and  C_23
REMARK    8  A    between atoms: C_29  and  C_30
REMARK                            x       y       z     vdW  Elec       q    Type
REMARK                         _______ _______ _______ _____ _____    ______ ____
ROOT
ATOM      3  N   UNL     1      -2.147   2.732   0.996  0.00  0.00    -0.316 NA
ATOM      7  C   UNL     1      -0.500   1.337  -1.016  0.00  0.00    +0.004 C 
ATOM      8  C   UNL     1      -1.890   0.822  -0.570  0.00  0.00    +0.012 C 
ATOM      9  C   UNL     1      -0.424   2.853  -0.769  0.00  0.00    +0.019 C 
ATOM     10  C   UNL     1      -2.233   1.277   0.858  0.00  0.00    +0.085 C 
ATOM     13  C   UNL     1      -0.817   3.232   0.658  0.00  0.00    +0.081 C 
ATOM     36  H   UNL     1      -2.373   2.993   1.956  0.00  0.00    +0.122 HD
ENDROOT
BRANCH   7  11
ATOM     11  C   UNL     1       0.676   0.616  -0.347  0.00  0.00    +0.100 C 
BRANCH  11  17
ATOM      2  O   UNL     1       1.867   1.431  -2.226  0.00  0.00    -0.276 OA
ATOM      4  N   UNL     1       3.092   0.217  -0.670  0.00  0.00    -0.299 N 
ATOM      5  N   UNL     1       5.603  -0.240   0.632  0.00  0.00    -0.295 NA
ATOM     17  C   UNL     1       1.926   0.794  -1.171  0.00  0.00    +0.216 C 
ATOM     24  C   UNL     1       4.346   0.350  -1.409  0.00  0.00    +0.123 C 
ATOM     25  C   UNL     1       3.168  -0.654   0.506  0.00  0.00    +0.123 C 
ATOM     27  C   UNL     1       5.501   0.719  -0.478  0.00  0.00    +0.103 C 
ATOM     28  C   UNL     1       4.349  -0.271   1.400  0.00  0.00    +0.103 C 
BRANCH   5  29
ATOM     29  C   UNL     1       6.729   0.097   1.500  0.00  0.00    +0.119 C 
BRANCH  29  30
ATOM     30  C   UNL     1       8.037  -0.376   0.934  0.00  0.00    -0.033 A 
ATOM     31  C   UNL     1       8.513  -1.649   1.249  0.00  0.00    +0.005 A 
ATOM     32  C   UNL     1       8.775   0.457   0.093  0.00  0.00    +0.005 A 
ATOM     33  C   UNL     1       9.728  -2.089   0.723  0.00  0.00    +0.000 A 
ATOM     34  C   UNL     1       9.990   0.017  -0.433  0.00  0.00    +0.000 A 
ATOM     35  C   UNL     1      10.466  -1.256  -0.118  0.00  0.00    +0.000 A 
ENDBRANCH  29  30
ENDBRANCH   5  29
ENDBRANCH  11  17
ENDBRANCH   7  11
BRANCH   8  12
ATOM     12  C   UNL     1      -2.037  -0.694  -0.701  0.00  0.00    +0.064 C 
BRANCH  12  19
ATOM      1  O   UNL     1      -5.382  -1.575  -1.700  0.00  0.00    -0.359 OA
ATOM      6  N   UNL     1      -4.079  -1.182  -1.978  0.00  0.00    -0.083 NA
ATOM     19  C   UNL     1      -3.480  -1.098  -0.786  0.00  0.00    +0.084 A 
ATOM     23  C   UNL     1      -5.530  -1.715  -0.358  0.00  0.00    +0.138 A 
ATOM     26  C   UNL     1      -4.348  -1.424   0.270  0.00  0.00    +0.071 A 
BRANCH  23  18
ATOM     18  C   UNL     1      -6.857  -2.129   0.115  0.00  0.00    +0.080 C 
BRANCH  18  14
ATOM     14  C   UNL     1      -7.879  -0.994   0.106  0.00  0.00    -0.004 C 
ATOM     15  C   UNL     1      -9.253  -1.498   0.570  0.00  0.00    +0.004 C 
ATOM     16  C   UNL     1      -7.401   0.172   0.981  0.00  0.00    +0.004 C 
ATOM     20  C   UNL     1     -10.280  -0.370   0.621  0.00  0.00    +0.000 C 
ATOM     21  C   UNL     1      -8.432   1.298   1.031  0.00  0.00    +0.000 C 
ATOM     22  C   UNL     1      -9.797   0.792   1.484  0.00  0.00    +0.000 C 
ENDBRANCH  18  14
ENDBRANCH  23  18
ENDBRANCH  12  19
ENDBRANCH   8  12
TORSDOF 8
