REMARK  Name = 11884472
REMARK  3 active torsions:
REMARK  status: ('A' for Active; 'I' for Inactive)
REMARK    1  A    between atoms: N_6  and  C_17
REMARK    2  A    between atoms: C_16  and  C_19
REMARK    3  A    between atoms: C_22  and  C_26
REMARK                            x       y       z     vdW  Elec       q    Type
REMARK                         _______ _______ _______ _____ _____    ______ ____
ROOT
ATOM      1  O   UNL     1       0.851   2.121   1.496  0.00  0.00    -0.266 OA
ATOM      2  O   UNL     1      -3.425  -0.616   2.504  0.00  0.00    -0.270 OA
ATOM      4  N   UNL     1      -3.738   0.472   0.456  0.00  0.00    -0.297 N 
ATOM      5  N   UNL     1      -0.938   1.897   0.015  0.00  0.00    -0.310 N 
ATOM      7  C   UNL     1      -3.245   2.911   0.478  0.00  0.00    +0.027 C 
ATOM      8  C   UNL     1      -2.869   1.607  -1.575  0.00  0.00    +0.054 C 
ATOM      9  C   UNL     1      -3.378   2.945  -1.040  0.00  0.00    +0.018 C 
ATOM     10  C   UNL     1      -4.078   1.757   1.065  0.00  0.00    +0.113 C 
ATOM     11  C   UNL     1      -1.759   2.794   0.841  0.00  0.00    +0.130 C 
ATOM     12  C   UNL     1      -3.739   0.463  -1.016  0.00  0.00    +0.117 C 
ATOM     13  C   UNL     1      -1.420   1.381  -1.190  0.00  0.00    +0.027 A 
ATOM     14  C   UNL     1      -0.613   0.659  -1.983  0.00  0.00    +0.024 A 
ATOM     15  C   UNL     1       0.383   1.669   0.448  0.00  0.00    +0.273 A 
ATOM     16  C   UNL     1      -3.427  -0.617   1.274  0.00  0.00    +0.247 C 
ATOM     17  C   UNL     1       1.258   0.832  -0.446  0.00  0.00    +0.099 A 
ATOM     18  C   UNL     1       0.742   0.385  -1.599  0.00  0.00    +0.030 A 
ENDROOT
BRANCH  16  19
ATOM     19  C   UNL     1      -3.050  -1.877   0.626  0.00  0.00    +0.037 A 
ATOM     20  C   UNL     1      -1.712  -2.132   0.333  0.00  0.00    +0.013 A 
ATOM     21  C   UNL     1      -4.030  -2.813   0.308  0.00  0.00    +0.013 A 
ATOM     23  C   UNL     1      -1.353  -3.330  -0.283  0.00  0.00    +0.001 A 
ATOM     24  C   UNL     1      -3.671  -4.012  -0.308  0.00  0.00    +0.001 A 
ATOM     25  C   UNL     1      -2.332  -4.271  -0.604  0.00  0.00    +0.000 A 
ENDBRANCH  16  19
BRANCH  17   6
ATOM      3  O   UNL     1       3.232  -0.611  -1.847  0.00  0.00    -0.270 OA
ATOM      6  N   UNL     1       2.530   0.599  -0.013  0.00  0.00    -0.277 N 
ATOM     22  C   UNL     1       3.478  -0.124  -0.742  0.00  0.00    +0.248 C 
ATOM     32  H   UNL     1       2.781   1.034   0.869  0.00  0.00    +0.155 HD
BRANCH  22  26
ATOM     26  C   UNL     1       4.805  -0.240  -0.118  0.00  0.00    +0.037 A 
ATOM     27  C   UNL     1       5.922  -0.408  -0.922  0.00  0.00    +0.013 A 
ATOM     28  C   UNL     1       4.915  -0.179   1.262  0.00  0.00    +0.013 A 
ATOM     29  C   UNL     1       7.181  -0.518  -0.330  0.00  0.00    +0.001 A 
ATOM     30  C   UNL     1       6.174  -0.288   1.854  0.00  0.00    +0.001 A 
ATOM     31  C   UNL     1       7.307  -0.458   1.058  0.00  0.00    +0.000 A 
ENDBRANCH  22  26
ENDBRANCH  17   6
TORSDOF 3
