REMARK  Name = 26745105
REMARK  9 active torsions:
REMARK  status: ('A' for Active; 'I' for Inactive)
REMARK    1  A    between atoms: O_3  and  C_23
REMARK    2  A    between atoms: C_10  and  C_12
REMARK    3  A    between atoms: C_10  and  C_18
REMARK    4  A    between atoms: C_10  and  C_19
REMARK    5  A    between atoms: C_10  and  C_20
REMARK    6  A    between atoms: C_11  and  C_21
REMARK    7  A    between atoms: C_12  and  C_15
REMARK    8  A    between atoms: C_18  and  C_23
REMARK    9  A    between atoms: C_24  and  C_25
REMARK                            x       y       z     vdW  Elec       q    Type
REMARK                         _______ _______ _______ _____ _____    ______ ____
ROOT
ATOM      1  O   UNL     1      -3.514   1.294   1.069  0.00  0.00    -0.276 OA
ATOM      5  N   UNL     1      -2.104  -0.305   0.128  0.00  0.00    -0.284 N 
ATOM      6  N   UNL     1      -0.919  -3.531  -1.323  0.00  0.00    -0.347 N 
ATOM      7  N   UNL     1      -0.473  -4.071   0.798  0.00  0.00    -0.240 NA
ATOM     11  C   UNL     1      -1.243  -0.389   1.358  0.00  0.00    +0.171 C 
ATOM     13  C   UNL     1      -1.108  -1.860   1.859  0.00  0.00    +0.089 C 
ATOM     14  C   UNL     1      -1.710  -1.123  -1.052  0.00  0.00    +0.163 C 
ATOM     15  C   UNL     1      -3.168   0.606   0.106  0.00  0.00    +0.217 C 
ATOM     16  C   UNL     1      -1.212  -2.429  -0.577  0.00  0.00    +0.056 A 
ATOM     17  C   UNL     1      -0.928  -2.785   0.718  0.00  0.00    +0.066 A 
ATOM     22  C   UNL     1      -0.479  -4.494  -0.450  0.00  0.00    +0.197 A 
ATOM     35  H   UNL     1      -1.005  -3.626  -2.327  0.00  0.00    +0.167 HD
ENDROOT
BRANCH  11  21
ATOM      2  O   UNL     1       0.014   1.719   1.413  0.00  0.00    -0.336 OA
ATOM      8  N   UNL     1       1.231  -0.049   0.772  0.00  0.00    -0.190 NA
ATOM      9  N   UNL     1       1.304   2.204   1.163  0.00  0.00    -0.056 NA
ATOM     21  C   UNL     1       0.058   0.385   1.159  0.00  0.00    +0.249 A 
ATOM     24  C   UNL     1       1.963   1.103   0.790  0.00  0.00    +0.202 A 
BRANCH  24  25
ATOM     25  C   UNL     1       3.352   1.119   0.431  0.00  0.00    +0.023 A 
ATOM     26  C   UNL     1       3.987  -0.064   0.050  0.00  0.00    +0.020 A 
ATOM     27  C   UNL     1       4.064   2.313   0.461  0.00  0.00    +0.012 A 
ATOM     28  C   UNL     1       5.345  -0.065  -0.306  0.00  0.00    -0.017 A 
ATOM     29  C   UNL     1       6.070   1.150  -0.275  0.00  0.00    -0.018 A 
ATOM     30  C   UNL     1       5.415   2.331   0.111  0.00  0.00    +0.009 A 
ATOM     31  C   UNL     1       6.001  -1.246  -0.692  0.00  0.00    +0.008 A 
ATOM     32  C   UNL     1       7.429   1.149  -0.630  0.00  0.00    +0.008 A 
ATOM     33  C   UNL     1       7.351  -1.229  -1.041  0.00  0.00    +0.001 A 
ATOM     34  C   UNL     1       8.064  -0.034  -1.010  0.00  0.00    +0.001 A 
ENDBRANCH  24  25
ENDBRANCH  11  21
BRANCH  15  12
ATOM     12  C   UNL     1      -3.923   0.730  -1.195  0.00  0.00    +0.103 C 
BRANCH  12  10
ATOM     10  C   UNL     1      -5.025   1.807  -1.148  0.00  0.00    -0.017 C 
ATOM     19  C   UNL     1      -5.715   1.832  -2.527  0.00  0.00    +0.012 C 
ATOM     20  C   UNL     1      -4.396   3.198  -0.915  0.00  0.00    +0.012 C 
BRANCH  10  18
ATOM     18  C   UNL     1      -6.067   1.558  -0.031  0.00  0.00    +0.127 C 
BRANCH  18  23
ATOM      4  O   UNL     1      -7.067  -0.539  -0.710  0.00  0.00    -0.251 OA
ATOM     23  C   UNL     1      -6.475   0.112   0.142  0.00  0.00    +0.305 C 
BRANCH  23   3
ATOM      3  O   UNL     1      -6.124  -0.395   1.350  0.00  0.00    -0.481 OA
ATOM     36  H   UNL     1      -6.396  -1.332   1.448  0.00  0.00    +0.295 HD
ENDBRANCH  23   3
ENDBRANCH  18  23
ENDBRANCH  10  18
ENDBRANCH  12  10
ENDBRANCH  15  12
TORSDOF 7
