REMARK  Name = 11885119
REMARK  4 active torsions:
REMARK  status: ('A' for Active; 'I' for Inactive)
REMARK    1  A    between atoms: O_4  and  C_30
REMARK    2  A    between atoms: O_4  and  C_31
REMARK    3  A    between atoms: C_16  and  C_19
REMARK    4  A    between atoms: C_17  and  C_20
REMARK                            x       y       z     vdW  Elec       q    Type
REMARK                         _______ _______ _______ _____ _____    ______ ____
ROOT
ATOM      2  O   UNL     1      -1.307  -2.230   1.305  0.00  0.00    -0.267 OA
ATOM      3  O   UNL     1       2.879   0.387   2.605  0.00  0.00    -0.270 OA
ATOM      5  N   UNL     1       3.368  -0.701   0.592  0.00  0.00    -0.297 N 
ATOM      6  N   UNL     1       0.588  -2.059  -0.043  0.00  0.00    -0.311 N 
ATOM      7  C   UNL     1       2.829  -3.128   0.590  0.00  0.00    +0.027 C 
ATOM      8  C   UNL     1       2.634  -1.831  -1.493  0.00  0.00    +0.054 C 
ATOM      9  C   UNL     1       3.072  -3.176  -0.915  0.00  0.00    +0.018 C 
ATOM     10  C   UNL     1       3.644  -1.989   1.229  0.00  0.00    +0.113 C 
ATOM     11  C   UNL     1       1.324  -2.975   0.842  0.00  0.00    +0.130 C 
ATOM     12  C   UNL     1       3.483  -0.701  -0.876  0.00  0.00    +0.117 C 
ATOM     13  C   UNL     1       1.166  -1.570  -1.217  0.00  0.00    +0.027 A 
ATOM     14  C   UNL     1       0.437  -0.836  -2.072  0.00  0.00    +0.022 A 
ATOM     15  C   UNL     1      -0.751  -1.789   0.297  0.00  0.00    +0.259 A 
ATOM     16  C   UNL     1       2.976   0.385   1.378  0.00  0.00    +0.247 C 
ATOM     17  C   UNL     1      -1.529  -0.925  -0.658  0.00  0.00    +0.047 A 
ATOM     18  C   UNL     1      -0.930  -0.506  -1.782  0.00  0.00    +0.015 A 
ENDROOT
BRANCH  16  19
ATOM      1  F   UNL     1       1.624   5.154  -1.208  0.00  0.00    -0.205 F 
ATOM     19  C   UNL     1       2.622   1.635   0.699  0.00  0.00    +0.037 A 
ATOM     21  C   UNL     1       1.304   1.862   0.308  0.00  0.00    +0.016 A 
ATOM     22  C   UNL     1       3.604   2.591   0.449  0.00  0.00    +0.016 A 
ATOM     25  C   UNL     1       0.967   3.052  -0.337  0.00  0.00    +0.039 A 
ATOM     26  C   UNL     1       3.266   3.781  -0.196  0.00  0.00    +0.039 A 
ATOM     29  C   UNL     1       1.948   4.012  -0.589  0.00  0.00    +0.123 A 
ENDBRANCH  16  19
BRANCH  17  20
ATOM     20  C   UNL     1      -2.916  -0.524  -0.367  0.00  0.00    -0.012 A 
ATOM     23  C   UNL     1      -3.978  -1.314  -0.809  0.00  0.00    +0.012 A 
ATOM     24  C   UNL     1      -3.169   0.646   0.350  0.00  0.00    +0.012 A 
ATOM     27  C   UNL     1      -5.292  -0.934  -0.534  0.00  0.00    +0.046 A 
ATOM     28  C   UNL     1      -4.482   1.025   0.625  0.00  0.00    +0.046 A 
ATOM     30  C   UNL     1      -5.544   0.236   0.183  0.00  0.00    +0.120 A 
BRANCH  30   4
ATOM      4  O   UNL     1      -6.826   0.606   0.451  0.00  0.00    -0.495 OA
ATOM     31  C   UNL     1      -7.012   1.813   1.189  0.00  0.00    +0.277 C 
ENDBRANCH  30   4
ENDBRANCH  17  20
TORSDOF 3
