REMARK  Name = 45784429
REMARK  10 active torsions:
REMARK  status: ('A' for Active; 'I' for Inactive)
REMARK    1  A    between atoms: O_2  and  C_11
REMARK    2  A    between atoms: N_5  and  C_15
REMARK    3  A    between atoms: N_6  and  C_24
REMARK    4  A    between atoms: N_7  and  C_25
REMARK    5  A    between atoms: C_8  and  C_18
REMARK    6  A    between atoms: C_10  and  C_20
REMARK    7  A    between atoms: C_14  and  C_19
REMARK    8  A    between atoms: C_19  and  C_21
REMARK    9  A    between atoms: C_19  and  C_22
REMARK   10  A    between atoms: C_24  and  C_26
REMARK                            x       y       z     vdW  Elec       q    Type
REMARK                         _______ _______ _______ _____ _____    ______ ____
ROOT
ATOM      8  C   UNL     1      -0.710  -0.093   1.360  0.00  0.00    -0.027 C 
ATOM      9  C   UNL     1      -0.370   0.686   0.046  0.00  0.00    +0.028 C 
ATOM     10  C   UNL     1       1.130   1.153   0.045  0.00  0.00    +0.012 C 
ATOM     11  C   UNL     1      -1.417   1.802  -0.234  0.00  0.00    +0.122 C 
ATOM     12  C   UNL     1      -2.157  -0.634   1.280  0.00  0.00    +0.007 C 
ATOM     13  C   UNL     1       0.240  -1.306   1.487  0.00  0.00    +0.009 C 
ATOM     14  C   UNL     1      -2.870   1.274  -0.210  0.00  0.00    +0.029 C 
ATOM     15  C   UNL     1       2.073  -0.067   0.248  0.00  0.00    +0.078 C 
ATOM     16  C   UNL     1      -3.188   0.461   1.045  0.00  0.00    +0.007 C 
ATOM     17  C   UNL     1       1.712  -0.918   1.465  0.00  0.00    +0.023 C 
ATOM     18  C   UNL     1      -0.579   0.792   2.626  0.00  0.00    +0.011 C 
ATOM     20  C   UNL     1       1.541   1.902  -1.234  0.00  0.00    +0.010 C 
ENDROOT
BRANCH  15   5
ATOM      4  O   UNL     1       4.373  -1.545  -0.605  0.00  0.00    -0.253 OA
ATOM      5  N   UNL     1       3.458   0.341   0.368  0.00  0.00    -0.296 N 
ATOM      7  N   UNL     1       5.736   0.201   0.171  0.00  0.00    -0.269 N 
ATOM     23  C   UNL     1       4.523  -0.446  -0.077  0.00  0.00    +0.304 C 
ATOM     37  H   UNL     1       3.666   1.199   0.869  0.00  0.00    +0.151 HD
ATOM     40  H   UNL     1       5.685   1.113   0.618  0.00  0.00    +0.156 HD
BRANCH   7  25
ATOM      1  F   UNL     1      10.496   0.831   0.215  0.00  0.00    -0.205 F 
ATOM     25  C   UNL     1       7.041  -0.257  -0.127  0.00  0.00    +0.037 A 
ATOM     27  C   UNL     1       8.147   0.529   0.197  0.00  0.00    +0.061 A 
ATOM     28  C   UNL     1       7.222  -1.495  -0.744  0.00  0.00    +0.023 A 
ATOM     31  C   UNL     1       9.433   0.076  -0.095  0.00  0.00    +0.125 A 
ATOM     32  C   UNL     1       8.508  -1.948  -1.036  0.00  0.00    +0.005 A 
ATOM     35  C   UNL     1       9.614  -1.161  -0.712  0.00  0.00    +0.038 A 
ENDBRANCH   7  25
ENDBRANCH  15   5
BRANCH  11   2
ATOM      2  O   UNL     1      -1.200   2.343  -1.538  0.00  0.00    -0.391 OA
ATOM     38  H   UNL     1      -1.294   1.622  -2.184  0.00  0.00    +0.210 HD
ENDBRANCH  11   2
BRANCH  14  19
ATOM     19  C   UNL     1      -3.891   2.409  -0.358  0.00  0.00    +0.077 C 
ATOM     21  C   UNL     1      -3.724   3.416   0.775  0.00  0.00    +0.017 C 
BRANCH  19  22
ATOM      3  O   UNL     1      -6.169   2.156   0.423  0.00  0.00    -0.276 OA
ATOM      6  N   UNL     1      -5.487   0.930  -1.424  0.00  0.00    -0.311 N 
ATOM     22  C   UNL     1      -5.304   1.837  -0.390  0.00  0.00    +0.216 C 
ATOM     39  H   UNL     1      -4.738   0.758  -2.086  0.00  0.00    +0.149 HD
BRANCH   6  24
ATOM     24  C   UNL     1      -6.742   0.254  -1.658  0.00  0.00    +0.139 C 
BRANCH  24  26
ATOM     26  C   UNL     1      -6.827  -1.046  -0.911  0.00  0.00    -0.030 A 
ATOM     29  C   UNL     1      -6.381  -2.224  -1.510  0.00  0.00    +0.005 A 
ATOM     30  C   UNL     1      -7.352  -1.075   0.381  0.00  0.00    +0.005 A 
ATOM     33  C   UNL     1      -6.460  -3.432  -0.817  0.00  0.00    +0.000 A 
ATOM     34  C   UNL     1      -7.431  -2.283   1.074  0.00  0.00    +0.000 A 
ATOM     36  C   UNL     1      -6.985  -3.462   0.475  0.00  0.00    +0.000 A 
ENDBRANCH  24  26
ENDBRANCH   6  24
ENDBRANCH  19  22
ENDBRANCH  14  19
TORSDOF 7
