REMARK  Name = 11882071
REMARK  12 active torsions:
REMARK  status: ('A' for Active; 'I' for Inactive)
REMARK    1  A    between atoms: O_6  and  C_33
REMARK    2  A    between atoms: O_6  and  C_36
REMARK    3  A    between atoms: N_8  and  C_12
REMARK    4  A    between atoms: N_9  and  C_18
REMARK    5  A    between atoms: N_10  and  C_25
REMARK    6  A    between atoms: C_13  and  C_16
REMARK    7  A    between atoms: C_17  and  C_20
REMARK    8  A    between atoms: C_18  and  C_21
REMARK    9  A    between atoms: C_18  and  C_22
REMARK   10  A    between atoms: C_21  and  C_24
REMARK   11  A    between atoms: C_23  and  C_26
REMARK   12  A    between atoms: C_23  and  C_27
REMARK                            x       y       z     vdW  Elec       q    Type
REMARK                         _______ _______ _______ _____ _____    ______ ____
ROOT
ATOM      3  O   UNL     1      -1.361   4.900  -0.410  0.00  0.00    -0.271 OA
ATOM      7  N   UNL     1      -0.600   2.937   0.549  0.00  0.00    -0.285 N 
ATOM     12  C   UNL     1       0.776   1.354   1.666  0.00  0.00    +0.105 C 
ATOM     13  C   UNL     1      -0.238   1.517   0.530  0.00  0.00    +0.182 C 
ATOM     14  C   UNL     1       0.388   2.461   2.649  0.00  0.00    +0.043 C 
ATOM     15  C   UNL     1      -0.085   3.591   1.746  0.00  0.00    +0.111 C 
ATOM     17  C   UNL     1      -1.209   3.679  -0.448  0.00  0.00    +0.240 C 
ENDROOT
BRANCH  12   8
ATOM      4  O   UNL     1       2.575  -0.700   0.801  0.00  0.00    -0.252 OA
ATOM      8  N   UNL     1       2.127   1.534   1.190  0.00  0.00    -0.294 N 
ATOM     10  N   UNL     1       4.192   0.948   0.377  0.00  0.00    -0.269 N 
ATOM     19  C   UNL     1       2.943   0.472   0.785  0.00  0.00    +0.304 C 
ATOM     37  H   UNL     1       2.482   2.480   1.084  0.00  0.00    +0.151 HD
ATOM     39  H   UNL     1       4.337   1.954   0.427  0.00  0.00    +0.156 HD
BRANCH  10  25
ATOM     25  C   UNL     1       5.293   0.199  -0.101  0.00  0.00    +0.038 A 
ATOM     29  C   UNL     1       5.198  -1.188  -0.208  0.00  0.00    +0.069 A 
ATOM     30  C   UNL     1       6.473   0.848  -0.466  0.00  0.00    +0.023 A 
ATOM     33  C   UNL     1       6.284  -1.927  -0.680  0.00  0.00    +0.122 A 
ATOM     34  C   UNL     1       7.558   0.109  -0.937  0.00  0.00    +0.005 A 
ATOM     35  C   UNL     1       7.463  -1.278  -1.044  0.00  0.00    +0.046 A 
BRANCH  33   6
ATOM      6  O   UNL     1       6.192  -3.281  -0.784  0.00  0.00    -0.495 OA
ATOM     36  C   UNL     1       4.957  -3.880  -0.395  0.00  0.00    +0.277 C 
ENDBRANCH  33   6
ENDBRANCH  10  25
ENDBRANCH  12   8
BRANCH  13  16
ATOM      2  O   UNL     1      -2.389   1.194   1.516  0.00  0.00    -0.274 OA
ATOM      9  N   UNL     1      -1.458  -0.526   0.253  0.00  0.00    -0.302 N 
ATOM     16  C   UNL     1      -1.484   0.735   0.825  0.00  0.00    +0.236 C 
ATOM     38  H   UNL     1      -0.658  -0.793  -0.314  0.00  0.00    +0.150 HD
BRANCH   9  18
ATOM     18  C   UNL     1      -2.529  -1.485   0.406  0.00  0.00    +0.163 C 
BRANCH  18  22
ATOM      5  O   UNL     1      -0.902  -3.173  -0.236  0.00  0.00    -0.274 OA
ATOM     11  N   UNL     1      -2.511  -3.728   1.307  0.00  0.00    -0.328 N 
ATOM     22  C   UNL     1      -1.891  -2.867   0.426  0.00  0.00    +0.231 C 
ATOM     40  H   UNL     1      -2.175  -4.678   1.429  0.00  0.00    +0.145 HD
ATOM     41  H   UNL     1      -3.321  -3.459   1.857  0.00  0.00    +0.145 HD
ENDBRANCH  18  22
BRANCH  18  21
ATOM     21  C   UNL     1      -3.561  -1.389  -0.724  0.00  0.00    +0.074 C 
BRANCH  21  24
ATOM      1  S   UNL     1      -5.549  -3.255  -1.298  0.00  0.00    -0.102 S 
ATOM     24  C   UNL     1      -4.890  -1.998  -0.340  0.00  0.00    -0.008 A 
ATOM     28  C   UNL     1      -5.703  -1.678   0.725  0.00  0.00    +0.011 A 
ATOM     31  C   UNL     1      -6.883  -2.476   0.755  0.00  0.00    +0.008 A 
ATOM     32  C   UNL     1      -6.926  -3.376  -0.288  0.00  0.00    +0.045 A 
ENDBRANCH  21  24
ENDBRANCH  18  21
ENDBRANCH   9  18
ENDBRANCH  13  16
BRANCH  17  20
ATOM     20  C   UNL     1      -1.705   2.944  -1.628  0.00  0.00    +0.066 C 
ATOM     23  C   UNL     1      -2.987   2.919  -2.033  0.00  0.00    -0.071 C 
ATOM     26  C   UNL     1      -3.530   2.184  -3.227  0.00  0.00    +0.039 C 
ATOM     27  C   UNL     1      -4.030   3.681  -1.257  0.00  0.00    +0.039 C 
ENDBRANCH  17  20
TORSDOF 9
