REMARK  Name = 38030027
REMARK  8 active torsions:
REMARK  status: ('A' for Active; 'I' for Inactive)
REMARK    1  A    between atoms: C_7  and  C_11
REMARK    2  A    between atoms: C_9  and  C_15
REMARK    3  A    between atoms: C_10  and  C_14
REMARK    4  A    between atoms: C_11  and  C_16
REMARK    5  A    between atoms: C_11  and  C_17
REMARK    6  A    between atoms: C_12  and  C_19
REMARK    7  A    between atoms: C_14  and  C_18
REMARK    8  A    between atoms: C_15  and  C_24
REMARK                            x       y       z     vdW  Elec       q    Type
REMARK                         _______ _______ _______ _____ _____    ______ ____
ROOT
ATOM     14  C   UNL     1      -1.276  -0.144  -1.139  0.00  0.00    +0.103 C 
ENDROOT
BRANCH  14  18
ATOM      1  O   UNL     1      -0.624   2.076  -1.672  0.00  0.00    -0.276 OA
ATOM      2  N   UNL     1       1.063   0.627  -0.998  0.00  0.00    -0.298 N 
ATOM      3  N   UNL     1       3.797   0.108  -0.202  0.00  0.00    -0.297 N 
ATOM      5  N   UNL     1       5.564  -1.391   0.042  0.00  0.00    -0.223 NA
ATOM      6  N   UNL     1       5.768   0.903   0.754  0.00  0.00    -0.223 NA
ATOM     18  C   UNL     1      -0.259   0.960  -1.296  0.00  0.00    +0.216 C 
ATOM     20  C   UNL     1       1.495  -0.699  -0.551  0.00  0.00    +0.126 C 
ATOM     21  C   UNL     1       2.106   1.643  -1.120  0.00  0.00    +0.126 C 
ATOM     22  C   UNL     1       2.982  -0.952  -0.800  0.00  0.00    +0.127 C 
ATOM     23  C   UNL     1       3.216   1.449  -0.089  0.00  0.00    +0.127 C 
ATOM     25  C   UNL     1       5.103  -0.138   0.217  0.00  0.00    +0.218 A 
ATOM     26  C   UNL     1       6.832  -1.594   0.459  0.00  0.00    +0.116 A 
ATOM     27  C   UNL     1       7.029   0.629   1.149  0.00  0.00    +0.116 A 
ATOM     28  C   UNL     1       7.619  -0.612   1.025  0.00  0.00    +0.039 A 
ENDBRANCH  14  18
BRANCH  14  10
ATOM      7  C   UNL     1      -3.751   0.463   0.825  0.00  0.00    -0.000 C 
ATOM      8  C   UNL     1      -3.226   1.278  -0.367  0.00  0.00    +0.012 C 
ATOM      9  C   UNL     1      -4.874  -0.501   0.368  0.00  0.00    +0.029 C 
ATOM     10  C   UNL     1      -2.673   0.380  -1.489  0.00  0.00    +0.023 C 
ATOM     12  C   UNL     1      -3.615  -0.762  -1.812  0.00  0.00    -0.073 C 
ATOM     13  C   UNL     1      -4.601  -1.133  -0.976  0.00  0.00    -0.023 C 
ATOM     19  C   UNL     1      -3.426  -1.440  -3.141  0.00  0.00    +0.039 C 
BRANCH   7  11
ATOM     11  C   UNL     1      -4.228   1.410   1.931  0.00  0.00    -0.013 C 
ATOM     16  C   UNL     1      -3.044   1.899   2.760  0.00  0.00    +0.007 C 
ATOM     17  C   UNL     1      -4.991   2.586   1.332  0.00  0.00    +0.007 C 
ENDBRANCH   7  11
BRANCH   9  15
ATOM     15  C   UNL     1      -5.117  -1.599   1.409  0.00  0.00    +0.126 C 
BRANCH  15  24
ATOM      4  N   UNL     1      -2.959  -3.045   1.773  0.00  0.00    -0.197 NA
ATOM     24  C   UNL     1      -3.911  -2.402   1.607  0.00  0.00    +0.063 C 
ENDBRANCH  15  24
ENDBRANCH   9  15
ENDBRANCH  14  10
TORSDOF 5
