REMARK  Name = 11882086
REMARK  10 active torsions:
REMARK  status: ('A' for Active; 'I' for Inactive)
REMARK    1  A    between atoms: O_5  and  C_36
REMARK    2  A    between atoms: O_5  and  C_39
REMARK    3  A    between atoms: N_7  and  C_13
REMARK    4  A    between atoms: N_8  and  C_19
REMARK    5  A    between atoms: N_9  and  C_26
REMARK    6  A    between atoms: C_14  and  C_17
REMARK    7  A    between atoms: C_18  and  C_21
REMARK    8  A    between atoms: C_19  and  C_22
REMARK    9  A    between atoms: C_19  and  C_23
REMARK   10  A    between atoms: C_22  and  C_24
REMARK                            x       y       z     vdW  Elec       q    Type
REMARK                         _______ _______ _______ _____ _____    ______ ____
ROOT
ATOM      2  O   UNL     1      -3.452  -0.424   1.700  0.00  0.00    -0.268 OA
ATOM      6  N   UNL     1      -2.612  -0.699  -0.455  0.00  0.00    -0.283 N 
ATOM     13  C   UNL     1      -0.476  -0.373  -1.431  0.00  0.00    +0.105 C 
ATOM     14  C   UNL     1      -1.358   0.016  -0.244  0.00  0.00    +0.182 C 
ATOM     15  C   UNL     1      -1.485  -0.684  -2.538  0.00  0.00    +0.043 C 
ATOM     16  C   UNL     1      -2.668  -1.287  -1.793  0.00  0.00    +0.111 C 
ATOM     18  C   UNL     1      -3.511  -0.925   0.580  0.00  0.00    +0.267 C 
ENDROOT
BRANCH  13   7
ATOM      3  O   UNL     1       2.206  -0.380  -0.423  0.00  0.00    -0.252 OA
ATOM      7  N   UNL     1       0.329  -1.533  -1.125  0.00  0.00    -0.294 N 
ATOM      9  N   UNL     1       2.163  -2.727  -0.432  0.00  0.00    -0.269 N 
ATOM     20  C   UNL     1       1.636  -1.448  -0.633  0.00  0.00    +0.304 C 
ATOM     40  H   UNL     1      -0.095  -2.452  -1.208  0.00  0.00    +0.151 HD
ATOM     42  H   UNL     1       1.556  -3.511  -0.659  0.00  0.00    +0.156 HD
BRANCH   9  26
ATOM     26  C   UNL     1       3.446  -3.071   0.052  0.00  0.00    +0.038 A 
ATOM     30  C   UNL     1       4.355  -2.068   0.391  0.00  0.00    +0.069 A 
ATOM     32  C   UNL     1       3.804  -4.412   0.189  0.00  0.00    +0.023 A 
ATOM     36  C   UNL     1       5.621  -2.407   0.868  0.00  0.00    +0.122 A 
ATOM     37  C   UNL     1       5.071  -4.750   0.666  0.00  0.00    +0.005 A 
ATOM     38  C   UNL     1       5.979  -3.748   1.005  0.00  0.00    +0.046 A 
BRANCH  36   5
ATOM      5  O   UNL     1       6.509  -1.429   1.198  0.00  0.00    -0.495 OA
ATOM     39  C   UNL     1       6.078  -0.079   1.033  0.00  0.00    +0.277 C 
ENDBRANCH  36   5
ENDBRANCH   9  26
ENDBRANCH  13   7
BRANCH  18  21
ATOM     10  N   UNL     1      -4.292  -3.109  -0.026  0.00  0.00    -0.247 NA
ATOM     12  N   UNL     1      -6.962  -2.273   0.161  0.00  0.00    -0.259 NA
ATOM     21  C   UNL     1      -4.622  -1.847   0.312  0.00  0.00    +0.144 A 
ATOM     25  C   UNL     1      -5.934  -1.437   0.405  0.00  0.00    +0.143 A 
ATOM     29  C   UNL     1      -5.320  -3.946  -0.269  0.00  0.00    +0.131 A 
ATOM     31  C   UNL     1      -6.632  -3.535  -0.177  0.00  0.00    +0.130 A 
ENDBRANCH  18  21
BRANCH  14  17
ATOM      1  O   UNL     1      -2.620   1.920  -0.937  0.00  0.00    -0.274 OA
ATOM      8  N   UNL     1      -0.844   2.221   0.538  0.00  0.00    -0.302 N 
ATOM     17  C   UNL     1      -1.696   1.477  -0.261  0.00  0.00    +0.236 C 
ATOM     41  H   UNL     1      -0.163   1.735   1.115  0.00  0.00    +0.150 HD
BRANCH   8  19
ATOM     19  C   UNL     1      -0.943   3.656   0.677  0.00  0.00    +0.163 C 
BRANCH  19  23
ATOM      4  O   UNL     1      -2.069   3.222   2.786  0.00  0.00    -0.274 OA
ATOM     11  N   UNL     1      -2.663   5.089   1.587  0.00  0.00    -0.328 N 
ATOM     23  C   UNL     1      -1.944   3.930   1.790  0.00  0.00    +0.231 C 
ATOM     43  H   UNL     1      -2.533   5.676   0.770  0.00  0.00    +0.145 HD
ATOM     44  H   UNL     1      -3.356   5.397   2.262  0.00  0.00    +0.145 HD
ENDBRANCH  19  23
BRANCH  19  22
ATOM     22  C   UNL     1       0.408   4.301   1.003  0.00  0.00    +0.067 C 
BRANCH  22  24
ATOM     24  C   UNL     1       1.452   4.037  -0.055  0.00  0.00    -0.045 A 
ATOM     27  C   UNL     1       2.272   2.912   0.039  0.00  0.00    +0.004 A 
ATOM     28  C   UNL     1       1.597   4.918  -1.127  0.00  0.00    +0.004 A 
ATOM     33  C   UNL     1       3.236   2.668  -0.939  0.00  0.00    +0.000 A 
ATOM     34  C   UNL     1       2.561   4.673  -2.105  0.00  0.00    +0.000 A 
ATOM     35  C   UNL     1       3.381   3.549  -2.011  0.00  0.00    +0.000 A 
ENDBRANCH  22  24
ENDBRANCH  19  22
ENDBRANCH   8  19
ENDBRANCH  14  17
TORSDOF 9
