REMARK  Name = 28959825
REMARK  9 active torsions:
REMARK  status: ('A' for Active; 'I' for Inactive)
REMARK    1  A    between atoms: O_3  and  C_29
REMARK    2  A    between atoms: O_5  and  C_30
REMARK    3  A    between atoms: O_5  and  C_31
REMARK    4  A    between atoms: N_6  and  C_16
REMARK    5  A    between atoms: C_14  and  C_18
REMARK    6  A    between atoms: C_16  and  C_18
REMARK    7  A    between atoms: C_17  and  C_23
REMARK    8  A    between atoms: C_23  and  C_29
REMARK    9  A    between atoms: C_26  and  C_30
REMARK                            x       y       z     vdW  Elec       q    Type
REMARK                         _______ _______ _______ _____ _____    ______ ____
ROOT
ATOM      2  O   UNL     1      -1.109  -3.781   1.852  0.00  0.00    -0.272 OA
ATOM      8  N   UNL     1      -2.302  -2.722   0.163  0.00  0.00    -0.298 N 
ATOM     14  C   UNL     1      -2.826  -0.724  -1.219  0.00  0.00    +0.011 C 
ATOM     17  C   UNL     1      -4.113  -0.527  -0.378  0.00  0.00    +0.006 C 
ATOM     20  C   UNL     1      -2.417  -2.208  -1.208  0.00  0.00    +0.111 C 
ATOM     21  C   UNL     1      -3.966  -1.123   1.032  0.00  0.00    +0.023 C 
ATOM     22  C   UNL     1      -3.512  -2.580   0.973  0.00  0.00    +0.108 C 
ATOM     26  C   UNL     1      -1.172  -3.334   0.704  0.00  0.00    +0.253 C 
ENDROOT
BRANCH  14  18
ATOM     18  C   UNL     1      -1.650   0.155  -0.773  0.00  0.00    +0.020 C 
BRANCH  18  16
ATOM     16  C   UNL     1      -0.682   0.412  -1.925  0.00  0.00    +0.085 C 
BRANCH  16   6
ATOM      1  O   UNL     1       0.970   5.735   0.686  0.00  0.00    -0.268 OA
ATOM      6  N   UNL     1       0.438   1.234  -1.471  0.00  0.00    -0.301 NA
ATOM      7  N   UNL     1       1.781   3.591   0.207  0.00  0.00    -0.312 N 
ATOM      9  C   UNL     1       2.288   2.776  -2.168  0.00  0.00    +0.024 C 
ATOM     10  C   UNL     1       2.628   1.268  -0.268  0.00  0.00    +0.050 C 
ATOM     11  C   UNL     1       3.316   1.885  -1.483  0.00  0.00    +0.017 C 
ATOM     12  C   UNL     1       1.064   1.939  -2.596  0.00  0.00    +0.089 C 
ATOM     13  C   UNL     1       1.419   0.424  -0.732  0.00  0.00    +0.094 C 
ATOM     15  C   UNL     1       1.914   3.922  -1.218  0.00  0.00    +0.130 C 
ATOM     19  C   UNL     1       2.183   2.346   0.703  0.00  0.00    +0.026 A 
ATOM     24  C   UNL     1       2.154   2.104   2.025  0.00  0.00    +0.022 A 
ATOM     25  C   UNL     1       1.323   4.615   1.057  0.00  0.00    +0.251 A 
ATOM     27  C   UNL     1       1.694   3.105   2.945  0.00  0.00    +0.007 A 
ATOM     28  C   UNL     1       1.284   4.301   2.512  0.00  0.00    +0.070 A 
ENDBRANCH  16   6
ENDBRANCH  18  16
ENDBRANCH  14  18
BRANCH  17  23
ATOM     23  C   UNL     1      -4.563   0.932  -0.302  0.00  0.00    +0.124 C 
BRANCH  23  29
ATOM      4  O   UNL     1      -6.804   0.122   0.208  0.00  0.00    -0.251 OA
ATOM     29  C   UNL     1      -6.028   1.045   0.019  0.00  0.00    +0.305 C 
BRANCH  29   3
ATOM      3  O   UNL     1      -6.385   2.354   0.072  0.00  0.00    -0.481 OA
ATOM     37  H   UNL     1      -7.337   2.466   0.280  0.00  0.00    +0.295 HD
ENDBRANCH  29   3
ENDBRANCH  23  29
ENDBRANCH  17  23
BRANCH  26  30
ATOM     30  C   UNL     1       0.035  -3.439  -0.194  0.00  0.00    +0.324 C 
BRANCH  30   5
ATOM      5  O   UNL     1       1.050  -4.049   0.566  0.00  0.00    -0.483 OA
BRANCH   5  31
ATOM     31  C   UNL     1       2.349  -3.674   0.303  0.00  0.00    +0.121 A 
ATOM     32  C   UNL     1       2.710  -3.267  -0.981  0.00  0.00    +0.045 A 
ATOM     33  C   UNL     1       3.303  -3.705   1.319  0.00  0.00    +0.045 A 
ATOM     34  C   UNL     1       4.026  -2.889  -1.248  0.00  0.00    +0.004 A 
ATOM     35  C   UNL     1       4.619  -3.327   1.052  0.00  0.00    +0.004 A 
ATOM     36  C   UNL     1       4.981  -2.919  -0.232  0.00  0.00    +0.000 A 
ENDBRANCH   5  31
ENDBRANCH  30   5
ENDBRANCH  26  30
TORSDOF 9
