REMARK  Name = 45783623
REMARK  8 active torsions:
REMARK  status: ('A' for Active; 'I' for Inactive)
REMARK    1  A    between atoms: O_2  and  C_28
REMARK    2  A    between atoms: O_2  and  C_29
REMARK    3  A    between atoms: N_4  and  C_13
REMARK    4  A    between atoms: N_8  and  C_26
REMARK    5  A    between atoms: C_9  and  C_14
REMARK    6  A    between atoms: C_13  and  C_15
REMARK    7  A    between atoms: C_18  and  C_21
REMARK    8  A    between atoms: C_27  and  C_28
REMARK                            x       y       z     vdW  Elec       q    Type
REMARK                         _______ _______ _______ _____ _____    ______ ____
ROOT
ATOM      1  O   UNL     1      -1.861  -3.183   0.899  0.00  0.00    -0.336 OA
ATOM      5  N   UNL     1      -1.113  -1.349  -0.147  0.00  0.00    -0.190 NA
ATOM      6  N   UNL     1      -0.477  -3.146   1.118  0.00  0.00    -0.056 NA
ATOM     14  C   UNL     1      -2.152  -2.090   0.147  0.00  0.00    +0.245 A 
ATOM     18  C   UNL     1      -0.109  -2.037   0.471  0.00  0.00    +0.204 A 
ENDROOT
BRANCH  18  21
ATOM      7  N   UNL     1       3.563  -1.930   1.045  0.00  0.00    -0.239 NA
ATOM     21  C   UNL     1       1.252  -1.589   0.421  0.00  0.00    +0.041 A 
ATOM     23  C   UNL     1       1.601  -0.429  -0.264  0.00  0.00    +0.016 A 
ATOM     24  C   UNL     1       2.262  -2.297   1.053  0.00  0.00    +0.124 A 
ATOM     25  C   UNL     1       2.929  -0.020  -0.295  0.00  0.00    +0.044 A 
ATOM     26  C   UNL     1       3.864  -0.798   0.369  0.00  0.00    +0.125 A 
BRANCH  26   8
ATOM      3  O   UNL     1       5.118   1.597  -0.952  0.00  0.00    -0.273 OA
ATOM      8  N   UNL     1       5.198  -0.376   0.332  0.00  0.00    -0.268 N 
ATOM     27  C   UNL     1       5.727   0.753  -0.301  0.00  0.00    +0.244 C 
ATOM     30  H   UNL     1       5.844  -0.981   0.834  0.00  0.00    +0.156 HD
BRANCH  27  28
ATOM     28  C   UNL     1       7.225   0.859  -0.117  0.00  0.00    +0.255 C 
BRANCH  28   2
ATOM      2  O   UNL     1       7.686   2.015  -0.786  0.00  0.00    -0.374 OA
ATOM     29  C   UNL     1       9.094   2.178  -0.653  0.00  0.00    +0.194 C 
ENDBRANCH  28   2
ENDBRANCH  27  28
ENDBRANCH  26   8
ENDBRANCH  18  21
BRANCH  14   9
ATOM      4  N   UNL     1      -3.953  -0.480  -0.450  0.00  0.00    -0.287 NA
ATOM      9  C   UNL     1      -3.606  -1.898  -0.231  0.00  0.00    +0.146 C 
ATOM     10  C   UNL     1      -3.975  -2.599  -1.551  0.00  0.00    +0.030 C 
ATOM     11  C   UNL     1      -4.577  -1.509  -2.426  0.00  0.00    +0.017 C 
ATOM     12  C   UNL     1      -5.040  -0.467  -1.428  0.00  0.00    +0.085 C 
BRANCH   4  13
ATOM     13  C   UNL     1      -4.311   0.220   0.777  0.00  0.00    +0.120 C 
BRANCH  13  15
ATOM     15  C   UNL     1      -4.179   1.713   0.631  0.00  0.00    -0.033 A 
ATOM     16  C   UNL     1      -2.971   2.340   0.934  0.00  0.00    +0.005 A 
ATOM     17  C   UNL     1      -5.266   2.469   0.191  0.00  0.00    +0.005 A 
ATOM     19  C   UNL     1      -2.849   3.723   0.798  0.00  0.00    +0.000 A 
ATOM     20  C   UNL     1      -5.144   3.851   0.055  0.00  0.00    +0.000 A 
ATOM     22  C   UNL     1      -3.936   4.479   0.358  0.00  0.00    +0.000 A 
ENDBRANCH  13  15
ENDBRANCH   4  13
ENDBRANCH  14   9
TORSDOF 7
