REMARK  Name = 38028098
REMARK  11 active torsions:
REMARK  status: ('A' for Active; 'I' for Inactive)
REMARK    1  A    between atoms: S_1  and  N_6
REMARK    2  A    between atoms: S_1  and  C_26
REMARK    3  A    between atoms: N_6  and  C_16
REMARK    4  A    between atoms: C_9  and  C_13
REMARK    5  A    between atoms: C_10  and  C_16
REMARK    6  A    between atoms: C_12  and  C_17
REMARK    7  A    between atoms: C_13  and  C_18
REMARK    8  A    between atoms: C_13  and  C_19
REMARK    9  A    between atoms: C_14  and  C_20
REMARK   10  A    between atoms: C_17  and  C_21
REMARK   11  A    between atoms: C_31  and  C_32
REMARK                            x       y       z     vdW  Elec       q    Type
REMARK                         _______ _______ _______ _____ _____    ______ ____
ROOT
ATOM      9  C   UNL     1      -0.946  -1.563  -1.186  0.00  0.00    +0.000 C 
ATOM     10  C   UNL     1      -1.860  -2.629  -0.531  0.00  0.00    +0.030 C 
ATOM     11  C   UNL     1       0.397  -2.187  -1.596  0.00  0.00    +0.012 C 
ATOM     12  C   UNL     1       1.145  -2.801  -0.398  0.00  0.00    +0.023 C 
ATOM     14  C   UNL     1       0.233  -3.659   0.456  0.00  0.00    -0.073 C 
ATOM     15  C   UNL     1      -1.107  -3.578   0.373  0.00  0.00    -0.023 C 
ATOM     20  C   UNL     1       0.896  -4.645   1.375  0.00  0.00    +0.039 C 
ENDROOT
BRANCH   9  13
ATOM     13  C   UNL     1      -1.611  -0.916  -2.405  0.00  0.00    -0.013 C 
ATOM     18  C   UNL     1      -0.732   0.200  -2.960  0.00  0.00    +0.007 C 
ATOM     19  C   UNL     1      -1.895  -1.964  -3.475  0.00  0.00    +0.007 C 
ENDBRANCH   9  13
BRANCH  10  16
ATOM     16  C   UNL     1      -3.001  -1.972   0.255  0.00  0.00    +0.113 C 
BRANCH  16   6
ATOM      6  N   UNL     1      -2.436  -1.230   1.392  0.00  0.00    -0.189 NA
ATOM     33  H   UNL     1      -1.849  -1.760   2.047  0.00  0.00    +0.148 HD
BRANCH   6   1
ATOM      1  S   UNL     1      -3.223   0.161   1.983  0.00  0.00    +0.058 S 
ATOM      4  O   UNL     1      -2.845   0.372   3.368  0.00  0.00    -0.153 OA
ATOM      5  O   UNL     1      -4.623   0.110   1.609  0.00  0.00    -0.153 OA
BRANCH   1  26
ATOM     26  C   UNL     1      -2.476   1.437   1.014  0.00  0.00    +0.105 A 
ATOM     27  C   UNL     1      -3.042   1.808  -0.205  0.00  0.00    +0.030 A 
ATOM     28  C   UNL     1      -1.320   2.071   1.469  0.00  0.00    +0.030 A 
ATOM     29  C   UNL     1      -2.452   2.815  -0.970  0.00  0.00    +0.021 A 
ATOM     30  C   UNL     1      -0.730   3.078   0.704  0.00  0.00    +0.021 A 
ATOM     31  C   UNL     1      -1.296   3.450  -0.515  0.00  0.00    +0.052 A 
BRANCH  31  32
ATOM      8  N   UNL     1      -0.201   5.318  -1.936  0.00  0.00    -0.191 NA
ATOM     32  C   UNL     1      -0.692   4.481  -1.299  0.00  0.00    +0.099 C 
ENDBRANCH  31  32
ENDBRANCH   1  26
ENDBRANCH   6   1
ENDBRANCH  16   6
ENDBRANCH  10  16
BRANCH  12  17
ATOM     17  C   UNL     1       1.823  -1.715   0.445  0.00  0.00    +0.103 C 
BRANCH  17  21
ATOM      2  O   UNL     1       3.353  -1.679  -1.366  0.00  0.00    -0.276 OA
ATOM      3  O   UNL     1       4.814   2.280   1.214  0.00  0.00    -0.377 OA
ATOM      7  N   UNL     1       3.768  -0.198   0.374  0.00  0.00    -0.297 N 
ATOM     21  C   UNL     1       3.049  -1.203  -0.269  0.00  0.00    +0.216 C 
ATOM     22  C   UNL     1       4.968   0.358  -0.251  0.00  0.00    +0.136 C 
ATOM     23  C   UNL     1       3.509   0.300   1.729  0.00  0.00    +0.136 C 
ATOM     24  C   UNL     1       4.963   1.877  -0.149  0.00  0.00    +0.179 C 
ATOM     25  C   UNL     1       3.570   1.822   1.752  0.00  0.00    +0.179 C 
ENDBRANCH  17  21
ENDBRANCH  12  17
TORSDOF 8
