REMARK  Name = 11882023
REMARK  10 active torsions:
REMARK  status: ('A' for Active; 'I' for Inactive)
REMARK    1  A    between atoms: N_8  and  C_13
REMARK    2  A    between atoms: N_9  and  C_19
REMARK    3  A    between atoms: N_10  and  C_29
REMARK    4  A    between atoms: C_14  and  C_17
REMARK    5  A    between atoms: C_18  and  C_22
REMARK    6  A    between atoms: C_19  and  C_21
REMARK    7  A    between atoms: C_19  and  C_24
REMARK    8  A    between atoms: C_21  and  C_23
REMARK    9  A    between atoms: C_25  and  C_30
REMARK   10  A    between atoms: C_25  and  C_31
REMARK                            x       y       z     vdW  Elec       q    Type
REMARK                         _______ _______ _______ _____ _____    ______ ____
ROOT
ATOM      4  O   UNL     1       5.208   0.309   0.619  0.00  0.00    -0.271 OA
ATOM      7  N   UNL     1       3.592  -1.135  -0.203  0.00  0.00    -0.285 N 
ATOM     13  C   UNL     1       1.721  -2.235  -1.181  0.00  0.00    +0.094 C 
ATOM     14  C   UNL     1       2.936  -0.153  -1.055  0.00  0.00    +0.164 C 
ATOM     15  C   UNL     1       2.031  -0.966  -1.978  0.00  0.00    +0.056 C 
ATOM     16  C   UNL     1       2.987  -2.461  -0.360  0.00  0.00    +0.131 C 
ATOM     18  C   UNL     1       4.735  -0.823   0.514  0.00  0.00    +0.240 C 
ENDROOT
BRANCH  13   8
ATOM      5  O   UNL     1      -0.988  -2.865  -1.865  0.00  0.00    -0.252 OA
ATOM      8  N   UNL     1       0.560  -2.071  -0.342  0.00  0.00    -0.295 N 
ATOM     10  N   UNL     1      -1.654  -2.138   0.265  0.00  0.00    -0.267 N 
ATOM     20  C   UNL     1      -0.736  -2.405  -0.754  0.00  0.00    +0.304 C 
ATOM     41  H   UNL     1       0.678  -1.637   0.568  0.00  0.00    +0.151 HD
ATOM     43  H   UNL     1      -1.281  -1.754   1.130  0.00  0.00    +0.156 HD
BRANCH  10  29
ATOM      1  F   UNL     1      -3.247  -1.508   2.464  0.00  0.00    -0.203 F 
ATOM      2  F   UNL     1      -7.142  -2.912   0.176  0.00  0.00    -0.205 F 
ATOM     29  C   UNL     1      -3.054  -2.336   0.246  0.00  0.00    +0.070 A 
ATOM     36  C   UNL     1      -3.824  -2.009   1.363  0.00  0.00    +0.147 A 
ATOM     37  C   UNL     1      -3.666  -2.857  -0.894  0.00  0.00    +0.029 A 
ATOM     38  C   UNL     1      -5.205  -2.205   1.339  0.00  0.00    +0.078 A 
ATOM     39  C   UNL     1      -5.046  -3.052  -0.918  0.00  0.00    +0.040 A 
ATOM     40  C   UNL     1      -5.816  -2.726   0.199  0.00  0.00    +0.126 A 
ENDBRANCH  10  29
ENDBRANCH  13   8
BRANCH  14  17
ATOM      3  O   UNL     1       1.661   0.428   0.877  0.00  0.00    -0.274 OA
ATOM      9  N   UNL     1       2.023   2.041  -0.761  0.00  0.00    -0.302 N 
ATOM     17  C   UNL     1       2.145   0.784  -0.194  0.00  0.00    +0.234 C 
ATOM     42  H   UNL     1       2.485   2.233  -1.645  0.00  0.00    +0.150 HD
BRANCH   9  19
ATOM     19  C   UNL     1       1.288   3.121  -0.142  0.00  0.00    +0.163 C 
BRANCH  19  24
ATOM      6  O   UNL     1       3.253   4.490  -0.552  0.00  0.00    -0.274 OA
ATOM     12  N   UNL     1       1.970   4.937   1.300  0.00  0.00    -0.328 N 
ATOM     24  C   UNL     1       2.289   4.226   0.162  0.00  0.00    +0.231 C 
ATOM     45  H   UNL     1       1.155   4.724   1.867  0.00  0.00    +0.145 HD
ATOM     46  H   UNL     1       2.548   5.712   1.609  0.00  0.00    +0.145 HD
ENDBRANCH  19  24
BRANCH  19  21
ATOM     21  C   UNL     1       0.163   3.648  -1.040  0.00  0.00    +0.069 C 
BRANCH  21  23
ATOM     11  N   UNL     1      -2.532   1.195  -1.522  0.00  0.00    -0.360 N 
ATOM     23  C   UNL     1      -1.064   2.782  -1.018  0.00  0.00    -0.020 A 
ATOM     26  C   UNL     1      -2.170   2.901  -0.131  0.00  0.00    +0.003 A 
ATOM     27  C   UNL     1      -1.316   1.724  -1.861  0.00  0.00    +0.087 A 
ATOM     28  C   UNL     1      -3.077   1.894  -0.468  0.00  0.00    +0.047 A 
ATOM     32  C   UNL     1      -2.488   3.772   0.930  0.00  0.00    +0.010 A 
ATOM     33  C   UNL     1      -4.290   1.713   0.205  0.00  0.00    +0.026 A 
ATOM     34  C   UNL     1      -3.698   3.603   1.612  0.00  0.00    +0.001 A 
ATOM     35  C   UNL     1      -4.584   2.589   1.254  0.00  0.00    +0.002 A 
ATOM     44  H   UNL     1      -2.967   0.404  -1.977  0.00  0.00    +0.165 HD
ENDBRANCH  21  23
ENDBRANCH  19  21
ENDBRANCH   9  19
ENDBRANCH  14  17
BRANCH  18  22
ATOM     22  C   UNL     1       5.419  -1.941   1.194  0.00  0.00    +0.066 C 
ATOM     25  C   UNL     1       6.686  -2.322   0.959  0.00  0.00    -0.071 C 
ATOM     30  C   UNL     1       7.510  -1.586  -0.067  0.00  0.00    +0.039 C 
ATOM     31  C   UNL     1       7.416  -3.453   1.630  0.00  0.00    +0.039 C 
ENDBRANCH  18  22
TORSDOF 8
