REMARK  Name = 75536730
REMARK  11 active torsions:
REMARK  status: ('A' for Active; 'I' for Inactive)
REMARK    1  A    between atoms: O_2  and  C_9
REMARK    2  A    between atoms: O_4  and  C_21
REMARK    3  A    between atoms: O_4  and  C_24
REMARK    4  A    between atoms: N_5  and  C_8
REMARK    5  A    between atoms: N_5  and  C_13
REMARK    6  A    between atoms: N_6  and  C_12
REMARK    7  A    between atoms: N_7  and  C_18
REMARK    8  A    between atoms: C_10  and  C_12
REMARK    9  A    between atoms: C_13  and  C_14
REMARK   10  A    between atoms: C_18  and  C_22
REMARK   11  A    between atoms: C_18  and  C_23
REMARK                            x       y       z     vdW  Elec       q    Type
REMARK                         _______ _______ _______ _____ _____    ______ ____
ROOT
ATOM      1  O   UNL     1       3.724   0.480   0.717  0.00  0.00    -0.371 OA
ATOM      8  C   UNL     1       2.411  -1.481   0.909  0.00  0.00    +0.111 C 
ATOM      9  C   UNL     1       3.203  -1.574  -0.384  0.00  0.00    +0.164 C 
ATOM     10  C   UNL     1       3.846  -0.198  -0.548  0.00  0.00    +0.165 C 
ATOM     11  C   UNL     1       3.201  -0.439   1.684  0.00  0.00    +0.181 C 
ENDROOT
BRANCH   9   2
ATOM      2  O   UNL     1       4.231  -2.550  -0.196  0.00  0.00    -0.388 OA
ATOM     26  H   UNL     1       4.754  -2.581  -1.014  0.00  0.00    +0.210 HD
ENDBRANCH   9   2
BRANCH   8   5
ATOM      5  N   UNL     1       1.044  -1.024   0.672  0.00  0.00    -0.305 NA
ATOM     25  H   UNL     1       0.694  -0.558   1.510  0.00  0.00    +0.123 HD
BRANCH   5  13
ATOM     13  C   UNL     1       0.163  -2.142   0.359  0.00  0.00    +0.116 C 
BRANCH  13  14
ATOM     14  C   UNL     1      -1.248  -1.688   0.095  0.00  0.00    -0.033 A 
ATOM     16  C   UNL     1      -2.076  -1.328   1.159  0.00  0.00    +0.008 A 
ATOM     17  C   UNL     1      -1.728  -1.627  -1.213  0.00  0.00    +0.008 A 
ATOM     19  C   UNL     1      -3.383  -0.907   0.914  0.00  0.00    +0.046 A 
ATOM     20  C   UNL     1      -3.035  -1.206  -1.458  0.00  0.00    +0.046 A 
ATOM     21  C   UNL     1      -3.862  -0.846  -0.394  0.00  0.00    +0.120 A 
BRANCH  21   4
ATOM      4  O   UNL     1      -5.137  -0.435  -0.633  0.00  0.00    -0.495 OA
ATOM     24  C   UNL     1      -5.928  -0.080   0.501  0.00  0.00    +0.277 C 
ENDBRANCH  21   4
ENDBRANCH  13  14
ENDBRANCH   5  13
ENDBRANCH   8   5
BRANCH  10  12
ATOM     12  C   UNL     1       3.183   0.660  -1.615  0.00  0.00    +0.140 C 
BRANCH  12   6
ATOM      3  O   UNL     1       2.076   2.838  -0.080  0.00  0.00    -0.253 OA
ATOM      6  N   UNL     1       1.799   0.890  -1.314  0.00  0.00    -0.297 N 
ATOM      7  N   UNL     1      -0.042   1.956  -0.420  0.00  0.00    -0.297 N 
ATOM     15  C   UNL     1       1.343   1.975  -0.559  0.00  0.00    +0.300 C 
ATOM     27  H   UNL     1       1.115   0.224  -1.661  0.00  0.00    +0.150 HD
ATOM     28  H   UNL     1      -0.554   1.162  -0.792  0.00  0.00    +0.150 HD
BRANCH   7  18
ATOM     18  C   UNL     1      -0.768   2.965   0.315  0.00  0.00    +0.068 C 
ATOM     22  C   UNL     1      -2.148   3.180  -0.294  0.00  0.00    +0.027 C 
ATOM     23  C   UNL     1      -0.868   2.580   1.785  0.00  0.00    +0.027 C 
ENDBRANCH   7  18
ENDBRANCH  12   6
ENDBRANCH  10  12
TORSDOF 8
