REMARK  Name = 45361508
REMARK  14 active torsions:
REMARK  status: ('A' for Active; 'I' for Inactive)
REMARK    1  A    between atoms: O_1  and  C_11
REMARK    2  A    between atoms: O_4  and  C_24
REMARK    3  A    between atoms: O_4  and  C_27
REMARK    4  A    between atoms: O_5  and  C_32
REMARK    5  A    between atoms: O_5  and  C_33
REMARK    6  A    between atoms: N_6  and  C_15
REMARK    7  A    between atoms: N_7  and  C_25
REMARK    8  A    between atoms: C_8  and  C_18
REMARK    9  A    between atoms: C_10  and  C_20
REMARK   10  A    between atoms: C_14  and  C_19
REMARK   11  A    between atoms: C_19  and  C_21
REMARK   12  A    between atoms: C_19  and  C_22
REMARK   13  A    between atoms: C_23  and  C_24
REMARK   14  A    between atoms: C_25  and  C_26
REMARK                            x       y       z     vdW  Elec       q    Type
REMARK                         _______ _______ _______ _____ _____    ______ ____
ROOT
ATOM      8  C   UNL     1      -1.091   0.193   1.218  0.00  0.00    -0.027 C 
ATOM      9  C   UNL     1      -1.519  -0.714   0.017  0.00  0.00    +0.028 C 
ATOM     10  C   UNL     1      -3.069  -0.968   0.032  0.00  0.00    +0.012 C 
ATOM     11  C   UNL     1      -0.633  -1.990  -0.070  0.00  0.00    +0.122 C 
ATOM     12  C   UNL     1       0.418   0.515   1.110  0.00  0.00    +0.007 C 
ATOM     13  C   UNL     1      -1.865   1.529   1.142  0.00  0.00    +0.009 C 
ATOM     14  C   UNL     1       0.879  -1.666  -0.073  0.00  0.00    +0.029 C 
ATOM     15  C   UNL     1      -3.836   0.384   0.031  0.00  0.00    +0.076 C 
ATOM     16  C   UNL     1       1.291  -0.732   1.064  0.00  0.00    +0.007 C 
ATOM     17  C   UNL     1      -3.375   1.345   1.127  0.00  0.00    +0.023 C 
ATOM     18  C   UNL     1      -1.359  -0.475   2.591  0.00  0.00    +0.011 C 
ATOM     20  C   UNL     1      -3.563  -1.831  -1.141  0.00  0.00    +0.010 C 
ENDROOT
BRANCH  15   6
ATOM      3  O   UNL     1      -5.933   2.026  -1.098  0.00  0.00    -0.273 OA
ATOM      6  N   UNL     1      -5.265   0.190   0.163  0.00  0.00    -0.310 N 
ATOM     23  C   UNL     1      -6.193   1.036  -0.419  0.00  0.00    +0.239 C 
ATOM     34  H   UNL     1      -5.591  -0.565   0.760  0.00  0.00    +0.149 HD
BRANCH  23  24
ATOM     24  C   UNL     1      -7.611   0.598  -0.121  0.00  0.00    +0.255 C 
BRANCH  24   4
ATOM      4  O   UNL     1      -8.540   1.466  -0.734  0.00  0.00    -0.374 OA
ATOM     27  C   UNL     1      -9.885   1.076  -0.470  0.00  0.00    +0.194 C 
ENDBRANCH  24   4
ENDBRANCH  23  24
ENDBRANCH  15   6
BRANCH  11   1
ATOM      1  O   UNL     1      -0.906  -2.678  -1.291  0.00  0.00    -0.391 OA
ATOM     35  H   UNL     1      -0.706  -2.076  -2.029  0.00  0.00    +0.210 HD
ENDBRANCH  11   1
BRANCH  14  19
ATOM     19  C   UNL     1       1.734  -2.938  -0.027  0.00  0.00    +0.077 C 
ATOM     21  C   UNL     1       1.415  -3.739   1.231  0.00  0.00    +0.017 C 
BRANCH  19  22
ATOM      2  O   UNL     1       4.016  -2.886   0.784  0.00  0.00    -0.276 OA
ATOM      7  N   UNL     1       3.534  -1.858  -1.238  0.00  0.00    -0.311 N 
ATOM     22  C   UNL     1       3.214  -2.573  -0.093  0.00  0.00    +0.216 C 
ATOM     36  H   UNL     1       2.824  -1.684  -1.942  0.00  0.00    +0.149 HD
BRANCH   7  25
ATOM     25  C   UNL     1       4.873  -1.399  -1.524  0.00  0.00    +0.139 C 
BRANCH  25  26
ATOM     26  C   UNL     1       5.128  -0.028  -0.966  0.00  0.00    -0.030 A 
ATOM     28  C   UNL     1       4.587   1.093  -1.594  0.00  0.00    +0.009 A 
ATOM     29  C   UNL     1       5.905   0.123   0.183  0.00  0.00    +0.009 A 
ATOM     30  C   UNL     1       4.824   2.366  -1.075  0.00  0.00    +0.046 A 
ATOM     31  C   UNL     1       6.143   1.395   0.702  0.00  0.00    +0.046 A 
ATOM     32  C   UNL     1       5.602   2.517   0.073  0.00  0.00    +0.120 A 
BRANCH  32   5
ATOM      5  O   UNL     1       5.832   3.759   0.580  0.00  0.00    -0.495 OA
ATOM     33  C   UNL     1       5.249   4.862  -0.113  0.00  0.00    +0.277 C 
ENDBRANCH  32   5
ENDBRANCH  25  26
ENDBRANCH   7  25
ENDBRANCH  19  22
ENDBRANCH  14  19
TORSDOF 9
