REMARK  Name = 7675147
REMARK  4 active torsions:
REMARK  status: ('A' for Active; 'I' for Inactive)
REMARK    1  A    between atoms: N_5  and  C_13
REMARK    2  A    between atoms: C_13  and  C_15
REMARK    3  A    between atoms: C_13  and  C_16
REMARK    4  A    between atoms: C_14  and  C_17
REMARK                            x       y       z     vdW  Elec       q    Type
REMARK                         _______ _______ _______ _____ _____    ______ ____
ROOT
ATOM      1  O   UNL     1       0.618   0.750  -1.880  0.00  0.00    -0.273 OA
ATOM      2  O   UNL     1       0.238  -2.811   1.022  0.00  0.00    -0.252 OA
ATOM      3  O   UNL     1      -5.561   0.911   0.662  0.00  0.00    -0.276 OA
ATOM      4  N   UNL     1      -1.335  -1.393   0.021  0.00  0.00    -0.271 N 
ATOM      5  N   UNL     1       0.813  -1.116  -0.484  0.00  0.00    -0.217 N 
ATOM      6  N   UNL     1      -3.287   0.564   0.342  0.00  0.00    -0.298 N 
ATOM      7  C   UNL     1      -1.348  -0.282  -0.904  0.00  0.00    +0.181 C 
ATOM      8  C   UNL     1      -1.994   0.937  -0.262  0.00  0.00    +0.139 C 
ATOM      9  C   UNL     1      -2.574  -1.782   0.671  0.00  0.00    +0.129 C 
ATOM     10  C   UNL     1      -3.224  -0.551   1.301  0.00  0.00    +0.127 C 
ATOM     11  C   UNL     1       0.140  -0.123  -1.168  0.00  0.00    +0.246 C 
ATOM     12  C   UNL     1      -0.055  -1.891   0.269  0.00  0.00    +0.312 C 
ATOM     14  C   UNL     1      -4.500   1.210   0.109  0.00  0.00    +0.213 C 
ATOM     17  C   UNL     1      -4.481   2.340  -0.889  0.00  0.00    +0.109 C 
ENDROOT
BRANCH   5  13
ATOM     13  C   UNL     1       2.252  -1.286  -0.502  0.00  0.00    +0.113 C 
ATOM     16  C   UNL     1       2.736  -1.626  -1.910  0.00  0.00    +0.034 C 
BRANCH  13  15
ATOM     15  C   UNL     1       2.955  -0.076   0.075  0.00  0.00    -0.027 A 
ATOM     18  C   UNL     1       3.135   0.012   1.445  0.00  0.00    +0.005 A 
ATOM     19  C   UNL     1       3.402   0.917  -0.779  0.00  0.00    +0.005 A 
ATOM     20  C   UNL     1       3.782   1.127   1.977  0.00  0.00    +0.000 A 
ATOM     21  C   UNL     1       4.050   2.032  -0.247  0.00  0.00    +0.000 A 
ATOM     22  C   UNL     1       4.240   2.137   1.131  0.00  0.00    +0.000 A 
ENDBRANCH  13  15
ENDBRANCH   5  13
TORSDOF 2
