REMARK  Name = 7155442
REMARK  5 active torsions:
REMARK  status: ('A' for Active; 'I' for Inactive)
REMARK    1  A    between atoms: S_1  and  N_6
REMARK    2  A    between atoms: S_1  and  C_19
REMARK    3  A    between atoms: O_5  and  C_29
REMARK    4  A    between atoms: O_5  and  C_31
REMARK    5  A    between atoms: C_15  and  C_20
REMARK                            x       y       z     vdW  Elec       q    Type
REMARK                         _______ _______ _______ _____ _____    ______ ____
ROOT
ATOM      4  O   UNL     1      -3.880  -3.556   0.276  0.00  0.00    -0.268 OA
ATOM      6  N   UNL     1       0.528  -1.299   0.226  0.00  0.00    -0.176 NA
ATOM      7  N   UNL     1      -2.505  -1.806  -0.455  0.00  0.00    -0.311 N 
ATOM      8  C   UNL     1      -0.416  -2.245  -1.876  0.00  0.00    +0.025 C 
ATOM      9  C   UNL     1      -0.988   0.049  -1.215  0.00  0.00    +0.053 C 
ATOM     10  C   UNL     1      -0.664  -0.844  -2.410  0.00  0.00    +0.017 C 
ATOM     11  C   UNL     1       0.765  -2.254  -0.892  0.00  0.00    +0.114 C 
ATOM     12  C   UNL     1       0.218   0.079  -0.256  0.00  0.00    +0.119 C 
ATOM     13  C   UNL     1      -1.707  -2.760  -1.238  0.00  0.00    +0.130 C 
ATOM     14  C   UNL     1      -2.250  -0.421  -0.486  0.00  0.00    +0.034 A 
ATOM     15  C   UNL     1      -3.101   0.437   0.135  0.00  0.00    +0.002 A 
ATOM     16  C   UNL     1      -3.604  -2.357   0.229  0.00  0.00    +0.252 A 
ATOM     17  C   UNL     1      -4.243  -0.095   0.854  0.00  0.00    +0.015 A 
ATOM     18  C   UNL     1      -4.495  -1.401   0.925  0.00  0.00    +0.071 A 
ENDROOT
BRANCH  15  20
ATOM     20  C   UNL     1      -2.887   1.901   0.113  0.00  0.00    -0.016 A 
ATOM     23  C   UNL     1      -2.118   2.502   1.104  0.00  0.00    +0.008 A 
ATOM     24  C   UNL     1      -3.456   2.667  -0.900  0.00  0.00    +0.008 A 
ATOM     27  C   UNL     1      -1.915   3.882   1.083  0.00  0.00    +0.001 A 
ATOM     28  C   UNL     1      -3.254   4.047  -0.922  0.00  0.00    +0.001 A 
ATOM     30  C   UNL     1      -2.483   4.654   0.070  0.00  0.00    +0.000 A 
ENDBRANCH  15  20
BRANCH   6   1
ATOM      1  S   UNL     1       1.630  -1.397   1.531  0.00  0.00    +0.061 S 
ATOM      2  O   UNL     1       1.956  -2.786   1.773  0.00  0.00    -0.153 OA
ATOM      3  O   UNL     1       1.166  -0.543   2.605  0.00  0.00    -0.153 OA
BRANCH   1  19
ATOM     19  C   UNL     1       3.043  -0.630   0.801  0.00  0.00    +0.106 A 
ATOM     21  C   UNL     1       3.208   0.740   0.920  0.00  0.00    +0.032 A 
ATOM     22  C   UNL     1       3.963  -1.412   0.121  0.00  0.00    +0.032 A 
ATOM     25  C   UNL     1       4.325   1.345   0.343  0.00  0.00    +0.047 A 
ATOM     26  C   UNL     1       5.080  -0.807  -0.455  0.00  0.00    +0.047 A 
ATOM     29  C   UNL     1       5.260   0.572  -0.344  0.00  0.00    +0.120 A 
BRANCH  29   5
ATOM      5  O   UNL     1       6.350   1.163  -0.906  0.00  0.00    -0.495 OA
ATOM     31  C   UNL     1       6.473   2.576  -0.754  0.00  0.00    +0.277 C 
ENDBRANCH  29   5
ENDBRANCH   1  19
ENDBRANCH   6   1
TORSDOF 4
