REMARK  Name = 11887644
REMARK  6 active torsions:
REMARK  status: ('A' for Active; 'I' for Inactive)
REMARK    1  A    between atoms: O_4  and  C_17
REMARK    2  A    between atoms: O_4  and  C_23
REMARK    3  A    between atoms: O_5  and  C_22
REMARK    4  A    between atoms: O_5  and  C_26
REMARK    5  A    between atoms: N_8  and  C_16
REMARK    6  A    between atoms: C_14  and  C_17
REMARK                            x       y       z     vdW  Elec       q    Type
REMARK                         _______ _______ _______ _____ _____    ______ ____
ROOT
ATOM      1  O   UNL     1      -0.224   0.355  -0.262  0.00  0.00    -0.273 OA
ATOM      2  O   UNL     1      -2.902   0.313  -1.825  0.00  0.00    -0.272 OA
ATOM      3  O   UNL     1       2.157   4.407  -0.076  0.00  0.00    -0.252 OA
ATOM      6  N   UNL     1      -2.546   1.733  -0.033  0.00  0.00    -0.285 N 
ATOM      7  N   UNL     1      -0.092   4.380   0.140  0.00  0.00    -0.293 N 
ATOM      8  N   UNL     1       1.056   2.326  -0.174  0.00  0.00    -0.193 N 
ATOM      9  C   UNL     1      -1.368   3.730   0.181  0.00  0.00    +0.105 C 
ATOM     10  C   UNL     1      -1.386   2.429  -0.592  0.00  0.00    +0.183 C 
ATOM     11  C   UNL     1      -1.825   3.312   1.578  0.00  0.00    +0.043 C 
ATOM     12  C   UNL     1      -2.914   2.291   1.270  0.00  0.00    +0.110 C 
ATOM     13  C   UNL     1      -0.143   1.584  -0.323  0.00  0.00    +0.250 C 
ATOM     14  C   UNL     1      -3.244   0.759  -0.728  0.00  0.00    +0.254 C 
ATOM     15  C   UNL     1       1.120   3.738  -0.023  0.00  0.00    +0.313 C 
ATOM     35  H   UNL     1      -0.072   5.389   0.258  0.00  0.00    +0.151 HD
ENDROOT
BRANCH   8  16
ATOM     16  C   UNL     1       2.304   1.590  -0.157  0.00  0.00    +0.046 A 
ATOM     18  C   UNL     1       3.380   2.084   0.568  0.00  0.00    +0.027 A 
ATOM     19  C   UNL     1       2.407   0.402  -0.867  0.00  0.00    +0.027 A 
ATOM     20  C   UNL     1       4.582   1.375   0.584  0.00  0.00    +0.048 A 
ATOM     21  C   UNL     1       3.609  -0.307  -0.851  0.00  0.00    +0.048 A 
ATOM     22  C   UNL     1       4.696   0.180  -0.126  0.00  0.00    +0.129 A 
BRANCH  22   5
ATOM      5  O   UNL     1       5.869  -0.510  -0.112  0.00  0.00    -0.456 OA
BRANCH   5  26
ATOM     26  C   UNL     1       5.807  -1.881   0.077  0.00  0.00    +0.128 A 
ATOM     30  C   UNL     1       4.982  -2.389   1.064  0.00  0.00    +0.046 A 
ATOM     31  C   UNL     1       6.572  -2.707  -0.727  0.00  0.00    +0.046 A 
ATOM     32  C   UNL     1       4.920  -3.769   1.254  0.00  0.00    +0.004 A 
ATOM     33  C   UNL     1       6.510  -4.087  -0.536  0.00  0.00    +0.004 A 
ATOM     34  C   UNL     1       5.684  -4.618   0.454  0.00  0.00    +0.000 A 
ENDBRANCH   5  26
ENDBRANCH  22   5
ENDBRANCH   8  16
BRANCH  14  17
ATOM     17  C   UNL     1      -4.488   0.243  -0.049  0.00  0.00    +0.324 C 
BRANCH  17   4
ATOM      4  O   UNL     1      -5.062  -0.699  -0.923  0.00  0.00    -0.483 OA
BRANCH   4  23
ATOM     23  C   UNL     1      -5.819  -1.703  -0.361  0.00  0.00    +0.121 A 
ATOM     24  C   UNL     1      -6.503  -1.461   0.820  0.00  0.00    +0.045 A 
ATOM     25  C   UNL     1      -5.882  -2.939  -0.987  0.00  0.00    +0.045 A 
ATOM     27  C   UNL     1      -7.269  -2.479   1.389  0.00  0.00    +0.004 A 
ATOM     28  C   UNL     1      -6.647  -3.957  -0.418  0.00  0.00    +0.004 A 
ATOM     29  C   UNL     1      -7.341  -3.727   0.770  0.00  0.00    +0.000 A 
ENDBRANCH   4  23
ENDBRANCH  17   4
ENDBRANCH  14  17
TORSDOF 6
