REMARK  Name = 45784092
REMARK  12 active torsions:
REMARK  status: ('A' for Active; 'I' for Inactive)
REMARK    1  A    between atoms: N_2  and  C_15
REMARK    2  A    between atoms: N_2  and  C_21
REMARK    3  A    between atoms: N_5  and  C_31
REMARK    4  A    between atoms: C_8  and  C_12
REMARK    5  A    between atoms: C_9  and  C_15
REMARK    6  A    between atoms: C_11  and  C_16
REMARK    7  A    between atoms: C_12  and  C_17
REMARK    8  A    between atoms: C_12  and  C_18
REMARK    9  A    between atoms: C_13  and  C_19
REMARK   10  A    between atoms: C_16  and  C_20
REMARK   11  A    between atoms: C_21  and  C_22
REMARK   12  A    between atoms: C_23  and  C_26
REMARK                            x       y       z     vdW  Elec       q    Type
REMARK                         _______ _______ _______ _____ _____    ______ ____
ROOT
ATOM      8  C   UNL     1      -1.087  -1.922  -0.859  0.00  0.00    +0.000 C 
ATOM      9  C   UNL     1      -1.970  -2.647   0.184  0.00  0.00    +0.029 C 
ATOM     10  C   UNL     1       0.267  -1.540  -0.245  0.00  0.00    +0.012 C 
ATOM     11  C   UNL     1       1.039  -2.745   0.332  0.00  0.00    +0.024 C 
ATOM     13  C   UNL     1       0.139  -3.741   1.048  0.00  0.00    -0.073 C 
ATOM     14  C   UNL     1      -1.203  -3.673   0.978  0.00  0.00    -0.023 C 
ATOM     19  C   UNL     1       0.803  -4.861   1.801  0.00  0.00    +0.039 C 
ENDROOT
BRANCH   8  12
ATOM     12  C   UNL     1      -0.903  -2.773  -2.123  0.00  0.00    -0.013 C 
ATOM     17  C   UNL     1      -2.176  -2.761  -2.963  0.00  0.00    +0.007 C 
ATOM     18  C   UNL     1       0.285  -2.269  -2.935  0.00  0.00    +0.007 C 
ENDBRANCH   8  12
BRANCH   9  15
ATOM     15  C   UNL     1      -2.634  -1.658   1.148  0.00  0.00    +0.089 C 
BRANCH  15   2
ATOM      2  N   UNL     1      -3.403  -0.666   0.416  0.00  0.00    -0.311 NA
ATOM     32  H   UNL     1      -4.111  -1.116  -0.163  0.00  0.00    +0.122 HD
BRANCH   2  21
ATOM     21  C   UNL     1      -4.031   0.286   1.324  0.00  0.00    +0.116 C 
BRANCH  21  22
ATOM      6  N   UNL     1      -5.081   3.950  -0.670  0.00  0.00    -0.263 NA
ATOM     22  C   UNL     1      -4.398   1.569   0.626  0.00  0.00    -0.031 A 
ATOM     24  C   UNL     1      -3.415   2.503   0.320  0.00  0.00    +0.024 A 
ATOM     25  C   UNL     1      -5.722   1.823   0.285  0.00  0.00    +0.024 A 
ATOM     27  C   UNL     1      -3.805   3.667  -0.322  0.00  0.00    +0.111 A 
ATOM     28  C   UNL     1      -6.008   3.017  -0.356  0.00  0.00    +0.111 A 
ENDBRANCH  21  22
ENDBRANCH   2  21
ENDBRANCH  15   2
ENDBRANCH   9  15
BRANCH  11  16
ATOM     16  C   UNL     1       2.172  -2.220   1.222  0.00  0.00    +0.105 C 
BRANCH  16  20
ATOM      1  O   UNL     1       2.867   0.076   0.772  0.00  0.00    -0.419 OA
ATOM      3  N   UNL     1       3.967  -1.464  -0.421  0.00  0.00    -0.112 NA
ATOM      4  N   UNL     1       4.457  -0.220  -0.773  0.00  0.00    -0.106 NA
ATOM     20  C   UNL     1       3.042  -1.243   0.484  0.00  0.00    +0.218 A 
ATOM     23  C   UNL     1       3.786   0.648  -0.053  0.00  0.00    +0.266 A 
BRANCH  23  26
ATOM      5  N   UNL     1       3.318   2.978   0.609  0.00  0.00    -0.329 N 
ATOM      7  N   UNL     1       4.746   4.120  -0.651  0.00  0.00    -0.243 NA
ATOM     26  C   UNL     1       3.997   2.047  -0.125  0.00  0.00    +0.125 A 
ATOM     29  C   UNL     1       4.872   2.776  -0.895  0.00  0.00    +0.143 A 
ATOM     30  C   UNL     1       3.802   4.208   0.260  0.00  0.00    +0.199 A 
ATOM     31  C   UNL     1       2.278   2.735   1.582  0.00  0.00    +0.150 C 
ENDBRANCH  23  26
ENDBRANCH  16  20
ENDBRANCH  11  16
TORSDOF 8
