REMARK  Name = 7051289
REMARK  7 active torsions:
REMARK  status: ('A' for Active; 'I' for Inactive)
REMARK    1  A    between atoms: S_2  and  N_10
REMARK    2  A    between atoms: S_2  and  C_25
REMARK    3  A    between atoms: O_5  and  C_24
REMARK    4  A    between atoms: O_5  and  C_26
REMARK    5  A    between atoms: N_10  and  C_21
REMARK    6  A    between atoms: C_20  and  C_23
REMARK    7  A    between atoms: C_23  and  C_24
REMARK                            x       y       z     vdW  Elec       q    Type
REMARK                         _______ _______ _______ _____ _____    ______ ____
ROOT
ATOM      3  O   UNL     1      -0.446   2.118   1.936  0.00  0.00    -0.266 OA
ATOM      4  O   UNL     1      -3.206  -2.427   1.275  0.00  0.00    -0.276 OA
ATOM      8  N   UNL     1      -3.814  -0.856  -0.325  0.00  0.00    -0.300 N 
ATOM      9  N   UNL     1      -1.939   1.682   0.184  0.00  0.00    -0.310 N 
ATOM     11  C   UNL     1      -4.458   1.399   0.534  0.00  0.00    +0.027 C 
ATOM     12  C   UNL     1      -3.508   1.180  -1.724  0.00  0.00    +0.054 C 
ATOM     13  C   UNL     1      -4.573   1.901  -0.900  0.00  0.00    +0.018 C 
ATOM     14  C   UNL     1      -4.685  -0.121   0.594  0.00  0.00    +0.113 C 
ATOM     15  C   UNL     1      -3.087   1.799   1.092  0.00  0.00    +0.130 C 
ATOM     16  C   UNL     1      -3.777  -0.338  -1.701  0.00  0.00    +0.117 C 
ATOM     17  C   UNL     1      -2.117   1.464  -1.189  0.00  0.00    +0.027 A 
ATOM     18  C   UNL     1      -1.061   1.476  -2.023  0.00  0.00    +0.024 A 
ATOM     19  C   UNL     1      -0.664   1.904   0.744  0.00  0.00    +0.274 A 
ATOM     20  C   UNL     1      -3.163  -2.009   0.116  0.00  0.00    +0.218 C 
ATOM     21  C   UNL     1       0.463   1.883  -0.222  0.00  0.00    +0.112 A 
ATOM     22  C   UNL     1       0.272   1.690  -1.528  0.00  0.00    +0.031 A 
ENDROOT
BRANCH  21  10
ATOM     10  N   UNL     1       1.781   2.082   0.223  0.00  0.00    -0.211 N 
ATOM     32  H   UNL     1       2.429   2.323  -0.541  0.00  0.00    +0.174 HD
BRANCH  10   2
ATOM      2  S   UNL     1       2.394   0.967   1.340  0.00  0.00    +0.072 S 
ATOM      6  O   UNL     1       2.922   1.671   2.493  0.00  0.00    -0.150 OA
ATOM      7  O   UNL     1       1.448  -0.118   1.516  0.00  0.00    -0.150 OA
BRANCH   2  25
ATOM      1 CL   UNL     1       7.273  -1.311  -1.847  0.00  0.00    -0.084 Cl
ATOM     25  C   UNL     1       3.774   0.323   0.439  0.00  0.00    +0.109 A 
ATOM     27  C   UNL     1       3.592  -0.782  -0.374  0.00  0.00    +0.030 A 
ATOM     28  C   UNL     1       5.007   0.937   0.564  0.00  0.00    +0.030 A 
ATOM     29  C   UNL     1       4.680  -1.290  -1.084  0.00  0.00    +0.022 A 
ATOM     30  C   UNL     1       6.095   0.429  -0.146  0.00  0.00    +0.022 A 
ATOM     31  C   UNL     1       5.931  -0.684  -0.971  0.00  0.00    +0.041 A 
ENDBRANCH   2  25
ENDBRANCH  10   2
ENDBRANCH  21  10
BRANCH  20  23
ATOM     23  C   UNL     1      -2.358  -2.764  -0.911  0.00  0.00    +0.124 C 
BRANCH  23  24
ATOM     24  C   UNL     1      -1.726  -3.978  -0.265  0.00  0.00    +0.168 C 
BRANCH  24   5
ATOM      5  O   UNL     1      -0.841  -3.560   0.767  0.00  0.00    -0.382 OA
ATOM     26  C   UNL     1      -0.208  -4.668   1.392  0.00  0.00    +0.194 C 
ENDBRANCH  24   5
ENDBRANCH  23  24
ENDBRANCH  20  23
TORSDOF 6
