REMARK  Name = 45783342
REMARK  9 active torsions:
REMARK  status: ('A' for Active; 'I' for Inactive)
REMARK    1  A    between atoms: O_3  and  C_25
REMARK    2  A    between atoms: O_3  and  C_27
REMARK    3  A    between atoms: O_4  and  C_28
REMARK    4  A    between atoms: O_4  and  C_29
REMARK    5  A    between atoms: N_5  and  C_13
REMARK    6  A    between atoms: C_9  and  C_14
REMARK    7  A    between atoms: C_13  and  C_15
REMARK    8  A    between atoms: C_18  and  C_21
REMARK    9  A    between atoms: C_27  and  C_28
REMARK                            x       y       z     vdW  Elec       q    Type
REMARK                         _______ _______ _______ _____ _____    ______ ____
ROOT
ATOM      2  O   UNL     1       0.962   3.746   0.504  0.00  0.00    -0.336 OA
ATOM      6  N   UNL     1       0.238   1.735  -0.164  0.00  0.00    -0.190 NA
ATOM      7  N   UNL     1      -0.382   3.669   0.890  0.00  0.00    -0.056 NA
ATOM     14  C   UNL     1       1.246   2.568  -0.109  0.00  0.00    +0.245 A 
ATOM     18  C   UNL     1      -0.739   2.454   0.461  0.00  0.00    +0.202 A 
ENDROOT
BRANCH  18  21
ATOM      8  N   UNL     1      -4.641   0.911   0.991  0.00  0.00    -0.221 NA
ATOM     21  C   UNL     1      -2.062   1.931   0.641  0.00  0.00    +0.029 A 
ATOM     23  C   UNL     1      -2.380   0.660   0.173  0.00  0.00    +0.079 A 
ATOM     24  C   UNL     1      -3.032   2.692   1.283  0.00  0.00    +0.031 A 
ATOM     25  C   UNL     1      -3.672   0.201   0.371  0.00  0.00    +0.215 A 
ATOM     26  C   UNL     1      -4.295   2.142   1.431  0.00  0.00    +0.115 A 
BRANCH  25   3
ATOM      3  O   UNL     1      -4.010  -1.048  -0.080  0.00  0.00    -0.474 OA
BRANCH   3  27
ATOM     27  C   UNL     1      -5.349  -1.471   0.149  0.00  0.00    +0.258 C 
BRANCH  27  28
ATOM     28  C   UNL     1      -5.537  -2.857  -0.438  0.00  0.00    +0.200 C 
BRANCH  28   4
ATOM      4  O   UNL     1      -5.297  -2.804  -1.839  0.00  0.00    -0.380 OA
ATOM     29  C   UNL     1      -5.439  -4.084  -2.439  0.00  0.00    +0.194 C 
ENDBRANCH  28   4
ENDBRANCH  27  28
ENDBRANCH   3  27
ENDBRANCH  25   3
ENDBRANCH  18  21
BRANCH  14   9
ATOM      5  N   UNL     1       3.082   0.985  -0.673  0.00  0.00    -0.287 NA
ATOM      9  C   UNL     1       2.660   2.399  -0.625  0.00  0.00    +0.146 C 
ATOM     10  C   UNL     1       2.831   2.907  -2.068  0.00  0.00    +0.030 C 
ATOM     11  C   UNL     1       3.409   1.729  -2.839  0.00  0.00    +0.017 C 
ATOM     12  C   UNL     1       4.053   0.880  -1.762  0.00  0.00    +0.085 C 
BRANCH   5  13
ATOM     13  C   UNL     1       3.622   0.503   0.592  0.00  0.00    +0.120 C 
BRANCH  13  15
ATOM      1 CL   UNL     1       3.460  -5.500   0.952  0.00  0.00    -0.084 Cl
ATOM     15  C   UNL     1       3.582  -1.000   0.682  0.00  0.00    -0.033 A 
ATOM     16  C   UNL     1       2.462  -1.636   1.217  0.00  0.00    +0.006 A 
ATOM     17  C   UNL     1       4.665  -1.755   0.232  0.00  0.00    +0.006 A 
ATOM     19  C   UNL     1       2.425  -3.028   1.301  0.00  0.00    +0.020 A 
ATOM     20  C   UNL     1       4.628  -3.147   0.316  0.00  0.00    +0.020 A 
ATOM     22  C   UNL     1       3.508  -3.783   0.851  0.00  0.00    +0.041 A 
ENDBRANCH  13  15
ENDBRANCH   5  13
ENDBRANCH  14   9
TORSDOF 8
