REMARK  Name = 7049571
REMARK  12 active torsions:
REMARK  status: ('A' for Active; 'I' for Inactive)
REMARK    1  A    between atoms: O_6  and  C_23
REMARK    2  A    between atoms: O_6  and  C_33
REMARK    3  A    between atoms: N_9  and  C_13
REMARK    4  A    between atoms: N_10  and  C_19
REMARK    5  A    between atoms: N_11  and  C_29
REMARK    6  A    between atoms: N_12  and  C_30
REMARK    7  A    between atoms: C_14  and  C_17
REMARK    8  A    between atoms: C_18  and  C_21
REMARK    9  A    between atoms: C_19  and  C_20
REMARK   10  A    between atoms: C_19  and  C_23
REMARK   11  A    between atoms: C_20  and  C_24
REMARK   12  A    between atoms: C_20  and  C_25
REMARK                            x       y       z     vdW  Elec       q    Type
REMARK                         _______ _______ _______ _____ _____    ______ ____
ROOT
ATOM      4  O   UNL     1       2.588   1.120   1.595  0.00  0.00    -0.268 OA
ATOM      8  N   UNL     1       1.621   1.493  -0.466  0.00  0.00    -0.283 N 
ATOM     13  C   UNL     1      -0.110   0.390  -1.656  0.00  0.00    +0.105 C 
ATOM     14  C   UNL     1       0.886   0.232  -0.506  0.00  0.00    +0.182 C 
ATOM     15  C   UNL     1       0.590   1.376  -2.595  0.00  0.00    +0.043 C 
ATOM     16  C   UNL     1       1.337   2.307  -1.649  0.00  0.00    +0.111 C 
ATOM     18  C   UNL     1       2.397   1.867   0.634  0.00  0.00    +0.264 C 
ENDROOT
BRANCH  13   9
ATOM      5  O   UNL     1      -2.424  -1.110  -0.884  0.00  0.00    -0.252 OA
ATOM      9  N   UNL     1      -1.367   0.923  -1.189  0.00  0.00    -0.294 N 
ATOM     12  N   UNL     1      -3.530   0.907  -0.418  0.00  0.00    -0.267 N 
ATOM     22  C   UNL     1      -2.453   0.117  -0.830  0.00  0.00    +0.304 C 
ATOM     37  H   UNL     1      -1.448   1.926  -1.052  0.00  0.00    +0.151 HD
ATOM     39  H   UNL     1      -3.391   1.915  -0.434  0.00  0.00    +0.156 HD
BRANCH  12  30
ATOM      1  F   UNL     1      -5.498   2.726   0.345  0.00  0.00    -0.203 F 
ATOM      2  F   UNL     1      -8.521  -0.786   1.297  0.00  0.00    -0.205 F 
ATOM     30  C   UNL     1      -4.804   0.478   0.021  0.00  0.00    +0.070 A 
ATOM     31  C   UNL     1      -5.768   1.414   0.396  0.00  0.00    +0.147 A 
ATOM     32  C   UNL     1      -5.095  -0.885   0.078  0.00  0.00    +0.029 A 
ATOM     34  C   UNL     1      -7.024   0.987   0.827  0.00  0.00    +0.078 A 
ATOM     35  C   UNL     1      -6.351  -1.312   0.510  0.00  0.00    +0.040 A 
ATOM     36  C   UNL     1      -7.315  -0.376   0.884  0.00  0.00    +0.126 A 
ENDBRANCH  12  30
ENDBRANCH  13   9
BRANCH  18  21
ATOM     11  N   UNL     1       4.351   3.433   0.633  0.00  0.00    -0.346 N 
ATOM     21  C   UNL     1       3.003   3.191   0.582  0.00  0.00    +0.104 A 
ATOM     26  C   UNL     1       2.361   4.405   0.476  0.00  0.00    +0.032 A 
ATOM     27  C   UNL     1       4.579   4.782   0.562  0.00  0.00    +0.086 A 
ATOM     28  C   UNL     1       3.358   5.412   0.464  0.00  0.00    +0.020 A 
ATOM     29  C   UNL     1       5.388   2.430   0.745  0.00  0.00    +0.149 C 
ENDBRANCH  18  21
BRANCH  14  17
ATOM      3  O   UNL     1       2.893  -0.628  -1.474  0.00  0.00    -0.274 OA
ATOM     10  N   UNL     1       1.530  -2.064  -0.249  0.00  0.00    -0.301 N 
ATOM     17  C   UNL     1       1.889  -0.844  -0.800  0.00  0.00    +0.236 C 
ATOM     38  H   UNL     1       0.703  -2.107   0.338  0.00  0.00    +0.150 HD
BRANCH  10  19
ATOM     19  C   UNL     1       2.314  -3.264  -0.406  0.00  0.00    +0.184 C 
BRANCH  19  20
ATOM     20  C   UNL     1       1.446  -4.542  -0.403  0.00  0.00    +0.014 C 
ATOM     24  C   UNL     1       0.845  -4.800   0.983  0.00  0.00    +0.009 C 
ATOM     25  C   UNL     1       0.336  -4.522  -1.459  0.00  0.00    +0.009 C 
ENDBRANCH  19  20
BRANCH  19  23
ATOM      7  O   UNL     1       3.545  -2.535   1.544  0.00  0.00    -0.249 OA
ATOM     23  C   UNL     1       3.427  -3.348   0.633  0.00  0.00    +0.328 C 
BRANCH  23   6
ATOM      6  O   UNL     1       4.251  -4.412   0.421  0.00  0.00    -0.467 OA
ATOM     33  C   UNL     1       5.327  -4.562   1.354  0.00  0.00    +0.280 C 
ENDBRANCH  23   6
ENDBRANCH  19  23
ENDBRANCH  10  19
ENDBRANCH  14  17
TORSDOF 8
