REMARK  Name = 75367689
REMARK  5 active torsions:
REMARK  status: ('A' for Active; 'I' for Inactive)
REMARK    1  A    between atoms: S_1  and  C_20
REMARK    2  A    between atoms: S_1  and  C_24
REMARK    3  A    between atoms: O_3  and  C_10
REMARK    4  A    between atoms: O_3  and  C_16
REMARK    5  A    between atoms: C_15  and  C_17
REMARK                            x       y       z     vdW  Elec       q    Type
REMARK                         _______ _______ _______ _____ _____    ______ ____
ROOT
ATOM      2  O   UNL     1       0.948  -3.450  -0.605  0.00  0.00    -0.375 OA
ATOM      4  O   UNL     1       4.752  -1.218   1.359  0.00  0.00    -0.268 OA
ATOM      7  N   UNL     1       2.499  -1.075   0.729  0.00  0.00    -0.290 N 
ATOM     10  C   UNL     1       0.248  -1.116  -0.476  0.00  0.00    +0.216 C 
ATOM     11  C   UNL     1       1.425  -0.311   0.083  0.00  0.00    +0.155 C 
ATOM     12  C   UNL     1       0.684  -2.277  -1.368  0.00  0.00    +0.206 C 
ATOM     13  C   UNL     1       2.193  -2.415   1.232  0.00  0.00    +0.136 C 
ATOM     14  C   UNL     1       2.184  -3.436   0.101  0.00  0.00    +0.179 C 
ATOM     15  C   UNL     1       3.815  -0.600   0.855  0.00  0.00    +0.267 C 
ENDROOT
BRANCH  15  17
ATOM      8  N   UNL     1       3.437   1.769   0.901  0.00  0.00    -0.247 NA
ATOM      9  N   UNL     1       5.348   2.176  -1.111  0.00  0.00    -0.259 NA
ATOM     17  C   UNL     1       4.122   0.747   0.349  0.00  0.00    +0.144 A 
ATOM     23  C   UNL     1       5.060   0.947  -0.639  0.00  0.00    +0.143 A 
ATOM     25  C   UNL     1       3.725   2.998   0.428  0.00  0.00    +0.131 A 
ATOM     26  C   UNL     1       4.664   3.198  -0.560  0.00  0.00    +0.130 A 
ENDBRANCH  15  17
BRANCH  10   3
ATOM      3  O   UNL     1      -0.542  -0.209  -1.246  0.00  0.00    -0.485 OA
BRANCH   3  16
ATOM     16  C   UNL     1      -1.825  -0.003  -0.819  0.00  0.00    +0.121 A 
ATOM     18  C   UNL     1      -2.243   1.279  -0.461  0.00  0.00    +0.047 A 
ATOM     19  C   UNL     1      -2.715  -1.074  -0.743  0.00  0.00    +0.047 A 
ATOM     20  C   UNL     1      -4.442   0.418   0.051  0.00  0.00    +0.088 A 
ATOM     21  C   UNL     1      -3.551   1.489  -0.026  0.00  0.00    +0.030 A 
ATOM     22  C   UNL     1      -4.024  -0.863  -0.307  0.00  0.00    +0.030 A 
BRANCH  20   1
ATOM      1  S   UNL     1      -6.079   0.681   0.600  0.00  0.00    -0.006 S 
ATOM      5  O   UNL     1      -6.605  -0.570   1.129  0.00  0.00    -0.170 OA
ATOM      6  O   UNL     1      -6.087   1.877   1.429  0.00  0.00    -0.170 OA
ATOM     24  C   UNL     1      -6.990   1.039  -0.885  0.00  0.00    +0.200 C 
ENDBRANCH  20   1
ENDBRANCH   3  16
ENDBRANCH  10   3
TORSDOF 4
