REMARK  Name = 75367638
REMARK  4 active torsions:
REMARK  status: ('A' for Active; 'I' for Inactive)
REMARK    1  A    between atoms: O_3  and  C_12
REMARK    2  A    between atoms: O_3  and  C_18
REMARK    3  A    between atoms: C_7  and  C_10
REMARK    4  A    between atoms: C_20  and  C_23
REMARK                            x       y       z     vdW  Elec       q    Type
REMARK                         _______ _______ _______ _____ _____    ______ ____
ROOT
ATOM      2  O   UNL     1       0.279   3.469  -0.289  0.00  0.00    -0.375 OA
ATOM      4  O   UNL     1      -3.295   0.589   1.454  0.00  0.00    -0.275 OA
ATOM      5  N   UNL     1      -1.115   0.803   0.654  0.00  0.00    -0.295 N 
ATOM     10  C   UNL     1      -2.350   0.154   0.790  0.00  0.00    +0.219 C 
ATOM     11  C   UNL     1      -0.012   0.244  -0.134  0.00  0.00    +0.154 C 
ATOM     12  C   UNL     1       1.132   1.191  -0.505  0.00  0.00    +0.218 C 
ATOM     13  C   UNL     1      -0.911   2.083   1.337  0.00  0.00    +0.136 C 
ATOM     16  C   UNL     1       0.656   2.456  -1.214  0.00  0.00    +0.206 C 
ATOM     17  C   UNL     1      -0.970   3.248   0.357  0.00  0.00    +0.179 C 
ENDROOT
BRANCH  10   7
ATOM      1  O   UNL     1      -5.221  -1.645  -0.781  0.00  0.00    -0.380 OA
ATOM      7  C   UNL     1      -2.504  -1.149   0.062  0.00  0.00    +0.079 C 
ATOM      8  C   UNL     1      -3.442  -2.091   0.816  0.00  0.00    +0.041 C 
ATOM      9  C   UNL     1      -2.986  -0.898  -1.367  0.00  0.00    +0.041 C 
ATOM     14  C   UNL     1      -4.911  -1.737   0.608  0.00  0.00    +0.160 C 
ATOM     15  C   UNL     1      -4.482  -0.609  -1.425  0.00  0.00    +0.160 C 
ENDBRANCH  10   7
BRANCH  12   3
ATOM      3  O   UNL     1       2.004   0.494  -1.397  0.00  0.00    -0.469 OA
BRANCH   3  18
ATOM      6  N   UNL     1       3.082  -0.222   0.526  0.00  0.00    -0.218 NA
ATOM     18  C   UNL     1       3.009  -0.234  -0.823  0.00  0.00    +0.215 A 
ATOM     19  C   UNL     1       3.885  -0.931  -1.641  0.00  0.00    +0.067 A 
ATOM     20  C   UNL     1       4.081  -0.944   1.081  0.00  0.00    +0.042 A 
ATOM     21  C   UNL     1       4.899  -1.663  -1.034  0.00  0.00    +0.007 A 
ATOM     22  C   UNL     1       5.006  -1.675   0.353  0.00  0.00    +0.023 A 
ATOM     23  C   UNL     1       4.167  -0.932   2.571  0.00  0.00    +0.066 C 
ENDBRANCH   3  18
ENDBRANCH  12   3
TORSDOF 3
