REMARK  Name = 11885096
REMARK  13 active torsions:
REMARK  status: ('A' for Active; 'I' for Inactive)
REMARK    1  A    between atoms: O_2  and  C_14
REMARK    2  A    between atoms: O_3  and  C_19
REMARK    3  A    between atoms: C_9  and  C_17
REMARK    4  A    between atoms: C_11  and  C_19
REMARK    5  A    between atoms: C_11  and  C_20
REMARK    6  A    between atoms: C_12  and  C_22
REMARK    7  A    between atoms: C_22  and  C_23
REMARK    8  A    between atoms: C_29  and  C_30
REMARK    9  A    between atoms: C_31  and  C_32
REMARK   10  A    between atoms: C_32  and  C_33
REMARK   11  A    between atoms: C_33  and  C_34
REMARK   12  A    between atoms: C_34  and  C_35
REMARK   13  A    between atoms: C_35  and  C_36
REMARK                            x       y       z     vdW  Elec       q    Type
REMARK                         _______ _______ _______ _____ _____    ______ ____
ROOT
ATOM      1  S   UNL     1      -0.360   3.154   0.652  0.00  0.00    -0.057 S 
ATOM      5  O   UNL     1       3.442   0.666  -0.384  0.00  0.00    -0.275 OA
ATOM      6  N   UNL     1       0.492   0.843  -0.139  0.00  0.00    -0.229 NA
ATOM      8  N   UNL     1       2.161   2.527   0.293  0.00  0.00    -0.265 N 
ATOM      9  C   UNL     1      -3.138  -0.435   0.107  0.00  0.00    -0.019 C 
ATOM     10  C   UNL     1      -3.747   0.993  -0.248  0.00  0.00    +0.011 C 
ATOM     11  C   UNL     1      -5.316   1.137  -0.183  0.00  0.00    +0.021 C 
ATOM     12  C   UNL     1      -1.636  -0.478  -0.437  0.00  0.00    +0.054 C 
ATOM     13  C   UNL     1      -3.952  -1.538  -0.617  0.00  0.00    +0.010 C 
ATOM     14  C   UNL     1      -5.973  -0.069  -0.914  0.00  0.00    +0.123 C 
ATOM     15  C   UNL     1      -2.982   2.136   0.480  0.00  0.00    +0.049 C 
ATOM     16  C   UNL     1      -5.457  -1.418  -0.427  0.00  0.00    +0.032 C 
ATOM     17  C   UNL     1      -3.143  -0.729   1.627  0.00  0.00    +0.012 C 
ATOM     18  C   UNL     1      -0.886   0.774  -0.062  0.00  0.00    +0.058 A 
ATOM     20  C   UNL     1      -5.739   2.425  -0.946  0.00  0.00    +0.016 C 
ATOM     21  C   UNL     1      -1.511   1.941   0.329  0.00  0.00    +0.015 A 
ATOM     24  C   UNL     1       0.881   2.047   0.222  0.00  0.00    +0.165 A 
ATOM     31  C   UNL     1       3.346   1.828  -0.006  0.00  0.00    +0.219 C 
ATOM     39  H   UNL     1       2.240   3.495   0.597  0.00  0.00    +0.157 HD
ENDROOT
BRANCH  14   2
ATOM      2  O   UNL     1      -7.391  -0.037  -0.762  0.00  0.00    -0.391 OA
ATOM     37  H   UNL     1      -7.741   0.651  -1.352  0.00  0.00    +0.210 HD
ENDBRANCH  14   2
BRANCH  11  19
ATOM     19  C   UNL     1      -5.887   1.294   1.243  0.00  0.00    +0.165 C 
BRANCH  19   3
ATOM      3  O   UNL     1      -7.287   1.422   1.137  0.00  0.00    -0.394 OA
ATOM     38  H   UNL     1      -7.495   2.363   1.009  0.00  0.00    +0.209 HD
ENDBRANCH  19   3
ENDBRANCH  11  19
BRANCH  12  22
ATOM     22  C   UNL     1      -0.853  -1.739  -0.048  0.00  0.00    +0.106 C 
BRANCH  22  23
ATOM      4  O   UNL     1       0.582  -1.218  -1.860  0.00  0.00    -0.276 OA
ATOM      7  N   UNL     1       1.532  -2.383  -0.088  0.00  0.00    -0.301 N 
ATOM     23  C   UNL     1       0.481  -1.752  -0.752  0.00  0.00    +0.216 C 
ATOM     25  C   UNL     1       2.867  -2.402  -0.690  0.00  0.00    +0.108 C 
ATOM     26  C   UNL     1       1.443  -3.026   1.228  0.00  0.00    +0.108 C 
ATOM     27  C   UNL     1       3.395  -3.831  -0.797  0.00  0.00    +0.022 C 
ATOM     28  C   UNL     1       1.943  -4.468   1.161  0.00  0.00    +0.022 C 
ATOM     29  C   UNL     1       3.357  -4.541   0.564  0.00  0.00    -0.011 C 
ATOM     30  C   UNL     1       3.817  -5.991   0.434  0.00  0.00    +0.007 C 
ENDBRANCH  22  23
ENDBRANCH  12  22
BRANCH  31  32
ATOM     32  C   UNL     1       4.571   2.711   0.196  0.00  0.00    +0.096 C 
BRANCH  32  33
ATOM     33  C   UNL     1       5.878   1.986  -0.120  0.00  0.00    +0.009 C 
BRANCH  33  34
ATOM     34  C   UNL     1       7.083   2.911   0.056  0.00  0.00    +0.000 C 
BRANCH  34  35
ATOM     35  C   UNL     1       8.393   2.176  -0.227  0.00  0.00    -0.003 C 
ATOM     36  C   UNL     1       9.596   3.083  -0.021  0.00  0.00    +0.004 C 
ENDBRANCH  34  35
ENDBRANCH  33  34
ENDBRANCH  32  33
ENDBRANCH  31  32
TORSDOF 9
