REMARK  Name = 25389733
REMARK  9 active torsions:
REMARK  status: ('A' for Active; 'I' for Inactive)
REMARK    1  A    between atoms: O_2  and  C_21
REMARK    2  A    between atoms: O_2  and  C_33
REMARK    3  A    between atoms: N_6  and  C_12
REMARK    4  A    between atoms: N_6  and  C_22
REMARK    5  A    between atoms: N_8  and  C_27
REMARK    6  A    between atoms: C_10  and  C_18
REMARK    7  A    between atoms: C_14  and  C_21
REMARK    8  A    between atoms: C_22  and  C_27
REMARK    9  A    between atoms: C_34  and  C_35
REMARK                            x       y       z     vdW  Elec       q    Type
REMARK                         _______ _______ _______ _____ _____    ______ ____
ROOT
ATOM      5  N   UNL     1      -0.563  -0.545   0.243  0.00  0.00    -0.274 NA
ATOM      7  N   UNL     1      -2.719   2.496  -0.216  0.00  0.00    -0.356 N 
ATOM      9  C   UNL     1      -0.814   0.793  -0.375  0.00  0.00    +0.106 C 
ATOM     10  C   UNL     1       0.801  -1.049  -0.059  0.00  0.00    +0.093 C 
ATOM     11  C   UNL     1       0.222   1.819   0.111  0.00  0.00    +0.044 C 
ATOM     12  C   UNL     1       1.637   1.352  -0.229  0.00  0.00    +0.057 C 
ATOM     13  C   UNL     1       1.881  -0.029   0.377  0.00  0.00    +0.042 C 
ATOM     14  C   UNL     1      -1.659  -1.518  -0.016  0.00  0.00    +0.172 C 
ATOM     15  C   UNL     1      -2.214   1.234  -0.071  0.00  0.00    +0.038 A 
ATOM     16  C   UNL     1      -3.019  -1.048   0.561  0.00  0.00    +0.068 C 
ATOM     17  C   UNL     1      -3.238   0.407   0.339  0.00  0.00    -0.016 A 
ATOM     19  C   UNL     1      -4.406   1.203   0.485  0.00  0.00    +0.003 A 
ATOM     20  C   UNL     1      -4.053   2.509   0.132  0.00  0.00    +0.047 A 
ATOM     25  C   UNL     1      -5.735   0.943   0.878  0.00  0.00    +0.010 A 
ATOM     26  C   UNL     1      -4.966   3.569   0.155  0.00  0.00    +0.026 A 
ATOM     28  C   UNL     1      -6.657   1.995   0.907  0.00  0.00    +0.001 A 
ATOM     31  C   UNL     1      -6.277   3.287   0.551  0.00  0.00    +0.002 A 
ATOM     37  H   UNL     1      -2.198   3.305  -0.527  0.00  0.00    +0.166 HD
ENDROOT
BRANCH  10  18
ATOM      1  F   UNL     1       1.514  -3.386  -1.515  0.00  0.00    -0.205 F 
ATOM     18  C   UNL     1       1.133  -2.384   0.603  0.00  0.00    +0.005 A 
ATOM     23  C   UNL     1       1.474  -3.488  -0.179  0.00  0.00    +0.128 A 
ATOM     24  C   UNL     1       1.095  -2.499   1.992  0.00  0.00    +0.008 A 
ATOM     29  C   UNL     1       1.777  -4.706   0.428  0.00  0.00    +0.038 A 
ATOM     30  C   UNL     1       1.398  -3.718   2.600  0.00  0.00    +0.000 A 
ATOM     32  C   UNL     1       1.739  -4.822   1.818  0.00  0.00    +0.003 A 
ENDBRANCH  10  18
BRANCH  14  21
ATOM      3  O   UNL     1      -1.058  -1.296  -2.341  0.00  0.00    -0.249 OA
ATOM     21  C   UNL     1      -1.771  -1.805  -1.487  0.00  0.00    +0.325 C 
BRANCH  21   2
ATOM      2  O   UNL     1      -2.774  -2.704  -1.700  0.00  0.00    -0.467 OA
ATOM     33  C   UNL     1      -2.990  -3.070  -3.067  0.00  0.00    +0.280 C 
ENDBRANCH  21   2
ENDBRANCH  14  21
BRANCH  12   6
ATOM      6  N   UNL     1       2.617   2.318   0.266  0.00  0.00    -0.312 NA
ATOM     36  H   UNL     1       2.268   3.267   0.130  0.00  0.00    +0.122 HD
BRANCH   6  22
ATOM     22  C   UNL     1       3.881   2.179  -0.442  0.00  0.00    +0.100 C 
BRANCH  22  27
ATOM     27  C   UNL     1       4.905   3.160   0.107  0.00  0.00    +0.119 C 
BRANCH  27   8
ATOM      4  O   UNL     1       7.112   1.429   0.856  0.00  0.00    -0.276 OA
ATOM      8  N   UNL     1       6.171   3.020  -0.561  0.00  0.00    -0.314 N 
ATOM     34  C   UNL     1       7.173   2.162  -0.128  0.00  0.00    +0.210 C 
ATOM     35  C   UNL     1       8.383   2.191  -1.022  0.00  0.00    +0.109 C 
ATOM     38  H   UNL     1       6.323   3.570  -1.401  0.00  0.00    +0.149 HD
ENDBRANCH  27   8
ENDBRANCH  22  27
ENDBRANCH   6  22
ENDBRANCH  12   6
TORSDOF 7
