REMARK  Name = 26742452
REMARK  7 active torsions:
REMARK  status: ('A' for Active; 'I' for Inactive)
REMARK    1  A    between atoms: S_1  and  N_6
REMARK    2  A    between atoms: S_1  and  C_21
REMARK    3  A    between atoms: N_6  and  C_16
REMARK    4  A    between atoms: C_10  and  C_17
REMARK    5  A    between atoms: C_11  and  C_16
REMARK    6  A    between atoms: C_19  and  C_22
REMARK    7  A    between atoms: C_20  and  C_23
REMARK                            x       y       z     vdW  Elec       q    Type
REMARK                         _______ _______ _______ _____ _____    ______ ____
ROOT
ATOM      5  N   UNL     1      -2.255  -2.055   1.365  0.00  0.00    -0.297 NA
ATOM      9  C   UNL     1      -1.451  -2.247  -1.105  0.00  0.00    +0.002 C 
ATOM     10  C   UNL     1      -0.240  -2.043  -0.153  0.00  0.00    +0.055 C 
ATOM     11  C   UNL     1      -3.042  -1.136   0.501  0.00  0.00    +0.072 C 
ATOM     12  C   UNL     1      -2.446  -1.081  -0.922  0.00  0.00    +0.024 C 
ATOM     13  C   UNL     1      -2.170  -3.533  -0.643  0.00  0.00    +0.019 C 
ATOM     14  C   UNL     1      -0.809  -1.737   1.262  0.00  0.00    +0.094 C 
ATOM     15  C   UNL     1      -2.462  -3.436   0.865  0.00  0.00    +0.085 C 
ENDROOT
BRANCH  10  17
ATOM      7  N   UNL     1       0.658  -0.411  -1.739  0.00  0.00    -0.237 NA
ATOM      8  N   UNL     1       2.747   0.729  -1.362  0.00  0.00    -0.229 NA
ATOM     17  C   UNL     1       0.841  -1.055  -0.567  0.00  0.00    +0.050 A 
ATOM     18  C   UNL     1       1.936  -0.863   0.251  0.00  0.00    +0.055 A 
ATOM     19  C   UNL     1       2.866   0.050  -0.202  0.00  0.00    +0.110 A 
ATOM     20  C   UNL     1       1.636   0.454  -2.071  0.00  0.00    +0.127 A 
ATOM     23  C   UNL     1       1.468   1.186  -3.359  0.00  0.00    +0.088 C 
BRANCH  19  22
ATOM      4  O   UNL     1       4.887   1.264  -0.009  0.00  0.00    -0.461 OA
ATOM     22  C   UNL     1       4.056   0.346   0.551  0.00  0.00    +0.153 A 
ATOM     24  C   UNL     1       4.565  -0.100   1.748  0.00  0.00    +0.051 A 
ATOM     25  C   UNL     1       5.788   0.588   1.936  0.00  0.00    +0.042 A 
ATOM     26  C   UNL     1       5.939   1.405   0.839  0.00  0.00    +0.196 A 
ENDBRANCH  19  22
ENDBRANCH  10  17
BRANCH  11  16
ATOM     16  C   UNL     1      -3.184   0.260   1.113  0.00  0.00    +0.124 C 
BRANCH  16   6
ATOM      6  N   UNL     1      -4.074   1.071   0.267  0.00  0.00    -0.193 NA
ATOM     27  H   UNL     1      -5.048   0.740   0.260  0.00  0.00    +0.148 HD
BRANCH   6   1
ATOM      1  S   UNL     1      -3.851   2.763   0.202  0.00  0.00    +0.027 S 
ATOM      2  O   UNL     1      -4.997   3.385  -0.432  0.00  0.00    -0.158 OA
ATOM      3  O   UNL     1      -2.506   3.033  -0.267  0.00  0.00    -0.158 OA
ATOM     21  C   UNL     1      -3.900   3.164   1.934  0.00  0.00    +0.214 C 
ENDBRANCH   6   1
ENDBRANCH  16   6
ENDBRANCH  11  16
TORSDOF 5
