REMARK  Name = 7685329
REMARK  7 active torsions:
REMARK  status: ('A' for Active; 'I' for Inactive)
REMARK    1  A    between atoms: O_3  and  C_22
REMARK    2  A    between atoms: O_3  and  C_28
REMARK    3  A    between atoms: N_7  and  C_27
REMARK    4  A    between atoms: C_15  and  C_20
REMARK    5  A    between atoms: C_17  and  C_21
REMARK    6  A    between atoms: C_21  and  C_22
REMARK    7  A    between atoms: C_29  and  C_30
REMARK                            x       y       z     vdW  Elec       q    Type
REMARK                         _______ _______ _______ _____ _____    ______ ____
ROOT
ATOM      1  O   UNL     1      -3.660   2.371   1.962  0.00  0.00    -0.268 OA
ATOM      2  O   UNL     1      -3.863  -2.035  -0.917  0.00  0.00    -0.276 OA
ATOM      5  N   UNL     1      -2.147  -0.672  -1.689  0.00  0.00    -0.300 N 
ATOM      6  N   UNL     1      -2.107   1.810   0.302  0.00  0.00    -0.311 N 
ATOM      8  C   UNL     1      -2.772   1.690  -2.171  0.00  0.00    +0.027 C 
ATOM      9  C   UNL     1      -0.470   1.157  -1.492  0.00  0.00    +0.054 C 
ATOM     10  C   UNL     1      -1.311   2.021  -2.431  0.00  0.00    +0.018 C 
ATOM     11  C   UNL     1      -3.050   0.201  -2.438  0.00  0.00    +0.113 C 
ATOM     12  C   UNL     1      -3.112   2.087  -0.734  0.00  0.00    +0.130 C 
ATOM     13  C   UNL     1      -0.722  -0.333  -1.803  0.00  0.00    +0.117 C 
ATOM     14  C   UNL     1      -0.783   1.452  -0.022  0.00  0.00    +0.034 A 
ATOM     15  C   UNL     1       0.151   1.354   0.959  0.00  0.00    +0.002 A 
ATOM     16  C   UNL     1      -2.522   2.043   1.625  0.00  0.00    +0.252 A 
ATOM     17  C   UNL     1      -2.661  -1.770  -0.999  0.00  0.00    +0.218 C 
ATOM     18  C   UNL     1      -0.242   1.584   2.337  0.00  0.00    +0.015 A 
ATOM     19  C   UNL     1      -1.492   1.895   2.678  0.00  0.00    +0.071 A 
ENDROOT
BRANCH  15  20
ATOM     20  C   UNL     1       1.557   1.000   0.665  0.00  0.00    -0.016 A 
ATOM     23  C   UNL     1       1.943  -0.337   0.647  0.00  0.00    +0.010 A 
ATOM     24  C   UNL     1       2.484   2.006   0.410  0.00  0.00    +0.010 A 
ATOM     25  C   UNL     1       3.269  -0.670   0.370  0.00  0.00    +0.024 A 
ATOM     26  C   UNL     1       3.810   1.672   0.133  0.00  0.00    +0.024 A 
ATOM     27  C   UNL     1       4.202   0.334   0.113  0.00  0.00    +0.033 A 
BRANCH  27   7
ATOM      4  O   UNL     1       5.546  -2.355  -0.058  0.00  0.00    -0.276 OA
ATOM      7  N   UNL     1       5.528  -0.000  -0.166  0.00  0.00    -0.286 N 
ATOM     29  C   UNL     1       6.103  -1.276  -0.231  0.00  0.00    +0.214 C 
ATOM     30  C   UNL     1       7.573  -1.211  -0.562  0.00  0.00    +0.109 C 
ATOM     31  H   UNL     1       6.147   0.789  -0.342  0.00  0.00    +0.155 HD
ENDBRANCH  27   7
ENDBRANCH  15  20
BRANCH  17  21
ATOM     21  C   UNL     1      -1.661  -2.665  -0.312  0.00  0.00    +0.124 C 
BRANCH  21  22
ATOM     22  C   UNL     1      -2.388  -3.796   0.383  0.00  0.00    +0.168 C 
BRANCH  22   3
ATOM      3  O   UNL     1      -3.256  -3.264   1.375  0.00  0.00    -0.382 OA
ATOM     28  C   UNL     1      -3.949  -4.294   2.067  0.00  0.00    +0.194 C 
ENDBRANCH  22   3
ENDBRANCH  21  22
ENDBRANCH  17  21
TORSDOF 5
