REMARK  Name = 11867600
REMARK  11 active torsions:
REMARK  status: ('A' for Active; 'I' for Inactive)
REMARK    1  A    between atoms: O_5  and  C_23
REMARK    2  A    between atoms: O_5  and  C_35
REMARK    3  A    between atoms: N_9  and  C_19
REMARK    4  A    between atoms: N_10  and  C_20
REMARK    5  A    between atoms: C_12  and  C_16
REMARK    6  A    between atoms: C_18  and  C_21
REMARK    7  A    between atoms: C_19  and  C_22
REMARK    8  A    between atoms: C_19  and  C_23
REMARK    9  A    between atoms: C_20  and  C_25
REMARK   10  A    between atoms: C_20  and  C_26
REMARK   11  A    between atoms: C_22  and  C_24
REMARK                            x       y       z     vdW  Elec       q    Type
REMARK                         _______ _______ _______ _____ _____    ______ ____
ROOT
ATOM      3  O   UNL     1       2.114  -4.485  -0.237  0.00  0.00    -0.253 OA
ATOM      4  O   UNL     1      -2.944   0.650  -1.626  0.00  0.00    -0.270 OA
ATOM      7  N   UNL     1       0.918  -2.537  -0.657  0.00  0.00    -0.271 N 
ATOM      8  N   UNL     1      -1.627  -1.128  -0.871  0.00  0.00    -0.294 N 
ATOM     10  N   UNL     1       3.282  -2.542  -0.619  0.00  0.00    -0.297 N 
ATOM     12  C   UNL     1       0.858  -1.140  -1.116  0.00  0.00    +0.181 C 
ATOM     13  C   UNL     1      -0.495  -0.772  -1.728  0.00  0.00    +0.140 C 
ATOM     14  C   UNL     1      -0.362  -3.240  -0.529  0.00  0.00    +0.129 C 
ATOM     15  C   UNL     1      -1.478  -2.328  -0.039  0.00  0.00    +0.127 C 
ATOM     17  C   UNL     1       2.107  -3.275  -0.488  0.00  0.00    +0.303 C 
ATOM     18  C   UNL     1      -2.795  -0.359  -0.937  0.00  0.00    +0.247 C 
ATOM     38  H   UNL     1       3.245  -1.534  -0.704  0.00  0.00    +0.150 HD
ENDROOT
BRANCH  18  21
ATOM      1  F   UNL     1      -5.327  -0.216   3.198  0.00  0.00    -0.205 F 
ATOM     21  C   UNL     1      -3.946  -0.775  -0.121  0.00  0.00    +0.040 A 
ATOM     27  C   UNL     1      -4.093  -0.288   1.178  0.00  0.00    +0.051 A 
ATOM     28  C   UNL     1      -4.891  -1.657  -0.647  0.00  0.00    +0.013 A 
ATOM     29  C   UNL     1      -5.185  -0.683   1.951  0.00  0.00    +0.124 A 
ATOM     30  C   UNL     1      -5.983  -2.051   0.126  0.00  0.00    +0.004 A 
ATOM     33  C   UNL     1      -6.130  -1.565   1.425  0.00  0.00    +0.038 A 
ENDBRANCH  18  21
BRANCH  12  16
ATOM      2  O   UNL     1       0.826  -0.586   1.208  0.00  0.00    -0.274 OA
ATOM      9  N   UNL     1       1.749   0.929  -0.298  0.00  0.00    -0.301 N 
ATOM     16  C   UNL     1       1.139  -0.258   0.067  0.00  0.00    +0.236 C 
ATOM     37  H   UNL     1       2.033   1.060  -1.265  0.00  0.00    +0.150 HD
BRANCH   9  19
ATOM     19  C   UNL     1       2.103   1.960   0.650  0.00  0.00    +0.186 C 
BRANCH  19  23
ATOM      6  O   UNL     1       4.194   0.785   0.947  0.00  0.00    -0.249 OA
ATOM     23  C   UNL     1       3.460   1.705   1.294  0.00  0.00    +0.328 C 
BRANCH  23   5
ATOM      5  O   UNL     1       3.733   2.596   2.288  0.00  0.00    -0.467 OA
ATOM     35  C   UNL     1       4.984   2.414   2.959  0.00  0.00    +0.280 C 
ENDBRANCH  23   5
ENDBRANCH  19  23
BRANCH  19  22
ATOM     22  C   UNL     1       2.016   3.363   0.030  0.00  0.00    +0.070 C 
BRANCH  22  24
ATOM     11  N   UNL     1      -1.540   4.640  -0.280  0.00  0.00    -0.263 NA
ATOM     24  C   UNL     1       0.671   3.706  -0.568  0.00  0.00    -0.027 A 
ATOM     31  C   UNL     1       0.386   3.426  -1.900  0.00  0.00    +0.006 A 
ATOM     32  C   UNL     1      -0.318   4.308   0.193  0.00  0.00    +0.114 A 
ATOM     34  C   UNL     1      -0.860   3.752  -2.423  0.00  0.00    +0.020 A 
ATOM     36  C   UNL     1      -1.780   4.352  -1.579  0.00  0.00    +0.111 A 
ENDBRANCH  22  24
ENDBRANCH  19  22
ENDBRANCH   9  19
ENDBRANCH  12  16
BRANCH  10  20
ATOM     20  C   UNL     1       4.588  -3.144  -0.471  0.00  0.00    +0.068 C 
ATOM     25  C   UNL     1       5.024  -3.113   0.988  0.00  0.00    +0.027 C 
ATOM     26  C   UNL     1       5.604  -2.445  -1.366  0.00  0.00    +0.027 C 
ENDBRANCH  10  20
TORSDOF 8
