REMARK  Name = 26743246
REMARK  10 active torsions:
REMARK  status: ('A' for Active; 'I' for Inactive)
REMARK    1  A    between atoms: N_4  and  C_24
REMARK    2  A    between atoms: C_6  and  C_10
REMARK    3  A    between atoms: C_7  and  C_12
REMARK    4  A    between atoms: C_10  and  C_20
REMARK    5  A    between atoms: C_11  and  C_16
REMARK    6  A    between atoms: C_12  and  C_22
REMARK    7  A    between atoms: C_16  and  C_21
REMARK    8  A    between atoms: C_24  and  C_25
REMARK    9  A    between atoms: C_24  and  C_26
REMARK   10  A    between atoms: C_24  and  C_27
REMARK                            x       y       z     vdW  Elec       q    Type
REMARK                         _______ _______ _______ _____ _____    ______ ____
ROOT
ATOM      3  N   UNL     1       0.394   2.839   0.348  0.00  0.00    -0.316 NA
ATOM      6  C   UNL     1       0.652   0.472  -0.358  0.00  0.00    +0.012 C 
ATOM      7  C   UNL     1       2.132   0.715  -0.736  0.00  0.00    +0.004 C 
ATOM      8  C   UNL     1       2.333   2.208  -1.047  0.00  0.00    +0.019 C 
ATOM      9  C   UNL     1       0.177   1.445   0.735  0.00  0.00    +0.085 C 
ATOM     13  C   UNL     1       1.802   3.112   0.065  0.00  0.00    +0.081 C 
ATOM     28  H   UNL     1       0.076   3.451   1.099  0.00  0.00    +0.122 HD
ENDROOT
BRANCH   6  10
ATOM     10  C   UNL     1       0.366  -0.974   0.049  0.00  0.00    +0.064 C 
BRANCH  10  20
ATOM      1  O   UNL     1      -2.896  -2.001  -1.075  0.00  0.00    -0.359 OA
ATOM      5  N   UNL     1      -1.534  -1.804  -1.269  0.00  0.00    -0.083 NA
ATOM     20  C   UNL     1      -1.088  -1.310  -0.110  0.00  0.00    +0.084 A 
ATOM     21  C   UNL     1      -3.229  -1.622   0.185  0.00  0.00    +0.138 A 
ATOM     23  C   UNL     1      -2.113  -1.174   0.842  0.00  0.00    +0.071 A 
BRANCH  21  16
ATOM     16  C   UNL     1      -4.641  -1.764   0.561  0.00  0.00    +0.080 C 
BRANCH  16  11
ATOM     11  C   UNL     1      -5.531  -0.666  -0.019  0.00  0.00    -0.004 C 
ATOM     14  C   UNL     1      -6.997  -0.893   0.374  0.00  0.00    +0.004 C 
ATOM     15  C   UNL     1      -5.051   0.718   0.436  0.00  0.00    +0.004 C 
ATOM     17  C   UNL     1      -7.900   0.221  -0.150  0.00  0.00    +0.000 C 
ATOM     18  C   UNL     1      -5.957   1.830  -0.088  0.00  0.00    +0.000 C 
ATOM     19  C   UNL     1      -7.415   1.596   0.298  0.00  0.00    +0.000 C 
ENDBRANCH  16  11
ENDBRANCH  21  16
ENDBRANCH  10  20
ENDBRANCH   6  10
BRANCH   7  12
ATOM     12  C   UNL     1       3.133   0.240   0.325  0.00  0.00    +0.099 C 
BRANCH  12  22
ATOM      2  O   UNL     1       4.792   0.185  -1.434  0.00  0.00    -0.276 OA
ATOM      4  N   UNL     1       5.406  -0.390   0.732  0.00  0.00    -0.311 N 
ATOM     22  C   UNL     1       4.516   0.019  -0.249  0.00  0.00    +0.214 C 
ATOM     29  H   UNL     1       5.067  -0.496   1.685  0.00  0.00    +0.149 HD
BRANCH   4  24
ATOM     24  C   UNL     1       6.798  -0.676   0.466  0.00  0.00    +0.026 C 
ATOM     25  C   UNL     1       7.486  -1.100   1.768  0.00  0.00    +0.031 C 
ATOM     26  C   UNL     1       6.888  -1.809  -0.561  0.00  0.00    +0.031 C 
ATOM     27  C   UNL     1       7.476   0.582  -0.088  0.00  0.00    +0.031 C 
ENDBRANCH   4  24
ENDBRANCH  12  22
ENDBRANCH   7  12
TORSDOF 7
