REMARK  Name = 40777673
REMARK  7 active torsions:
REMARK  status: ('A' for Active; 'I' for Inactive)
REMARK    1  A    between atoms: N_6  and  C_11
REMARK    2  A    between atoms: N_7  and  C_19
REMARK    3  A    between atoms: C_9  and  C_12
REMARK    4  A    between atoms: C_15  and  C_17
REMARK    5  A    between atoms: C_16  and  C_18
REMARK    6  A    between atoms: C_20  and  C_23
REMARK    7  A    between atoms: C_26  and  C_28
REMARK                            x       y       z     vdW  Elec       q    Type
REMARK                         _______ _______ _______ _____ _____    ______ ____
ROOT
ATOM      7  N   UNL     1      -2.060  -0.943  -0.156  0.00  0.00    -0.236 N 
ATOM      8  N   UNL     1      -1.776  -2.145  -0.684  0.00  0.00    -0.171 NA
ATOM     12  C   UNL     1       0.098  -1.123   0.131  0.00  0.00    +0.003 A 
ATOM     15  C   UNL     1      -0.973  -0.290   0.346  0.00  0.00    +0.046 A 
ATOM     16  C   UNL     1      -0.456  -2.250  -0.506  0.00  0.00    +0.064 A 
ATOM     17  C   UNL     1      -1.047   1.046   0.973  0.00  0.00    +0.066 C 
ATOM     18  C   UNL     1       0.244  -3.462  -0.968  0.00  0.00    +0.068 C 
ENDROOT
BRANCH   7  19
ATOM     19  C   UNL     1      -3.376  -0.479  -0.160  0.00  0.00    +0.066 A 
ATOM     21  C   UNL     1      -4.374  -1.202   0.494  0.00  0.00    +0.028 A 
ATOM     22  C   UNL     1      -3.695   0.706  -0.823  0.00  0.00    +0.028 A 
ATOM     24  C   UNL     1      -5.689  -0.739   0.486  0.00  0.00    +0.014 A 
ATOM     25  C   UNL     1      -5.011   1.168  -0.832  0.00  0.00    +0.014 A 
ATOM     26  C   UNL     1      -6.008   0.446  -0.177  0.00  0.00    +0.055 A 
BRANCH  26  28
ATOM      2  F   UNL     1      -8.264   0.118   0.497  0.00  0.00    -0.166 F 
ATOM      3  F   UNL     1      -7.566   2.174   0.379  0.00  0.00    -0.166 F 
ATOM      4  F   UNL     1      -7.947   1.054  -1.439  0.00  0.00    -0.166 F 
ATOM     28  C   UNL     1      -7.415   0.939  -0.186  0.00  0.00    +0.417 C 
ENDBRANCH  26  28
ENDBRANCH   7  19
BRANCH  12   9
ATOM      9  C   UNL     1       1.544  -0.881   0.496  0.00  0.00    +0.047 C 
ATOM     10  C   UNL     1       2.132   0.393  -0.147  0.00  0.00    +0.039 C 
ATOM     11  C   UNL     1       3.102   0.976   0.886  0.00  0.00    +0.097 C 
ATOM     13  C   UNL     1       1.790  -0.649   1.959  0.00  0.00    -0.021 C 
ATOM     14  C   UNL     1       2.643   0.359   2.165  0.00  0.00    -0.009 C 
BRANCH  11   6
ATOM      5  O   UNL     1       5.101   2.365  -0.684  0.00  0.00    -0.270 OA
ATOM      6  N   UNL     1       4.486   0.538   0.607  0.00  0.00    -0.305 N 
ATOM     20  C   UNL     1       5.369   1.285  -0.164  0.00  0.00    +0.251 C 
ATOM     31  H   UNL     1       4.788  -0.363   0.967  0.00  0.00    +0.150 HD
BRANCH  20  23
ATOM      1  S   UNL     1       7.078  -0.825   0.330  0.00  0.00    -0.092 S 
ATOM     23  C   UNL     1       6.716   0.694  -0.373  0.00  0.00    +0.074 A 
ATOM     27  C   UNL     1       7.781   1.202  -1.083  0.00  0.00    +0.021 A 
ATOM     29  C   UNL     1       8.910   0.332  -1.050  0.00  0.00    +0.008 A 
ATOM     30  C   UNL     1       8.664  -0.807  -0.316  0.00  0.00    +0.046 A 
ENDBRANCH  20  23
ENDBRANCH  11   6
ENDBRANCH  12   9
TORSDOF 5
