REMARK  Name = 26743252
REMARK  10 active torsions:
REMARK  status: ('A' for Active; 'I' for Inactive)
REMARK    1  A    between atoms: O_3  and  C_31
REMARK    2  A    between atoms: O_3  and  C_32
REMARK    3  A    between atoms: N_6  and  C_25
REMARK    4  A    between atoms: C_7  and  C_11
REMARK    5  A    between atoms: C_8  and  C_14
REMARK    6  A    between atoms: C_11  and  C_21
REMARK    7  A    between atoms: C_12  and  C_19
REMARK    8  A    between atoms: C_14  and  C_24
REMARK    9  A    between atoms: C_19  and  C_22
REMARK   10  A    between atoms: C_25  and  C_26
REMARK                            x       y       z     vdW  Elec       q    Type
REMARK                         _______ _______ _______ _____ _____    ______ ____
ROOT
ATOM      4  N   UNL     1      -4.122   3.284   0.357  0.00  0.00    -0.316 NA
ATOM      7  C   UNL     1      -3.086   1.016   0.416  0.00  0.00    +0.012 C 
ATOM      8  C   UNL     1      -4.427   0.400  -0.052  0.00  0.00    +0.004 C 
ATOM      9  C   UNL     1      -5.267   1.430  -0.823  0.00  0.00    +0.019 C 
ATOM     10  C   UNL     1      -3.362   2.331   1.168  0.00  0.00    +0.085 C 
ATOM     13  C   UNL     1      -5.418   2.730  -0.034  0.00  0.00    +0.081 C 
ATOM     33  H   UNL     1      -3.589   3.522  -0.479  0.00  0.00    +0.122 HD
ENDROOT
BRANCH   7  11
ATOM     11  C   UNL     1      -2.077   1.240  -0.719  0.00  0.00    +0.064 C 
BRANCH  11  21
ATOM      1  O   UNL     1       0.630   3.344   0.378  0.00  0.00    -0.359 OA
ATOM      5  N   UNL     1      -0.646   3.150  -0.136  0.00  0.00    -0.083 NA
ATOM     21  C   UNL     1      -0.794   1.824  -0.202  0.00  0.00    +0.084 A 
ATOM     22  C   UNL     1       1.210   2.138   0.605  0.00  0.00    +0.138 A 
ATOM     23  C   UNL     1       0.344   1.136   0.253  0.00  0.00    +0.071 A 
BRANCH  22  19
ATOM     19  C   UNL     1       2.571   2.158   1.153  0.00  0.00    +0.080 C 
BRANCH  19  12
ATOM     12  C   UNL     1       3.584   1.427   0.274  0.00  0.00    -0.004 C 
ATOM     15  C   UNL     1       3.624   2.042  -1.132  0.00  0.00    +0.004 C 
ATOM     16  C   UNL     1       4.977   1.448   0.918  0.00  0.00    +0.004 C 
ATOM     17  C   UNL     1       4.668   1.363  -2.015  0.00  0.00    +0.000 C 
ATOM     18  C   UNL     1       6.019   0.770   0.032  0.00  0.00    +0.000 C 
ATOM     20  C   UNL     1       6.049   1.378  -1.367  0.00  0.00    +0.000 C 
ENDBRANCH  19  12
ENDBRANCH  22  19
ENDBRANCH  11  21
ENDBRANCH   7  11
BRANCH   8  14
ATOM     14  C   UNL     1      -4.255  -0.881  -0.867  0.00  0.00    +0.099 C 
BRANCH  14  24
ATOM      2  O   UNL     1      -3.517  -2.047   1.120  0.00  0.00    -0.276 OA
ATOM      6  N   UNL     1      -2.801  -2.781  -0.966  0.00  0.00    -0.311 N 
ATOM     24  C   UNL     1      -3.501  -1.949  -0.104  0.00  0.00    +0.214 C 
ATOM     34  H   UNL     1      -2.843  -2.614  -1.967  0.00  0.00    +0.149 HD
BRANCH   6  25
ATOM     25  C   UNL     1      -1.991  -3.887  -0.510  0.00  0.00    +0.139 C 
BRANCH  25  26
ATOM     26  C   UNL     1      -0.571  -3.474  -0.250  0.00  0.00    -0.030 A 
ATOM     27  C   UNL     1       0.298  -3.252  -1.319  0.00  0.00    +0.009 A 
ATOM     28  C   UNL     1      -0.121  -3.313   1.060  0.00  0.00    +0.009 A 
ATOM     29  C   UNL     1       1.617  -2.868  -1.077  0.00  0.00    +0.046 A 
ATOM     30  C   UNL     1       1.198  -2.929   1.302  0.00  0.00    +0.046 A 
ATOM     31  C   UNL     1       2.067  -2.707   0.234  0.00  0.00    +0.120 A 
BRANCH  31   3
ATOM      3  O   UNL     1       3.354  -2.332   0.470  0.00  0.00    -0.495 OA
ATOM     32  C   UNL     1       3.748  -2.186   1.833  0.00  0.00    +0.277 C 
ENDBRANCH  31   3
ENDBRANCH  25  26
ENDBRANCH   6  25
ENDBRANCH  14  24
ENDBRANCH   8  14
TORSDOF 9
