REMARK  Name = 26743189
REMARK  9 active torsions:
REMARK  status: ('A' for Active; 'I' for Inactive)
REMARK    1  A    between atoms: O_3  and  C_20
REMARK    2  A    between atoms: O_3  and  C_24
REMARK    3  A    between atoms: N_5  and  C_19
REMARK    4  A    between atoms: C_8  and  C_14
REMARK    5  A    between atoms: C_9  and  C_13
REMARK    6  A    between atoms: C_13  and  C_15
REMARK    7  A    between atoms: C_14  and  C_16
REMARK    8  A    between atoms: C_18  and  C_20
REMARK    9  A    between atoms: C_19  and  C_21
REMARK                            x       y       z     vdW  Elec       q    Type
REMARK                         _______ _______ _______ _____ _____    ______ ____
ROOT
ATOM      4  N   UNL     1       6.441  -0.611   0.034  0.00  0.00    -0.316 NA
ATOM      8  C   UNL     1       3.559  -0.203   0.520  0.00  0.00    +0.004 C 
ATOM      9  C   UNL     1       4.107  -1.379  -0.323  0.00  0.00    +0.012 C 
ATOM     10  C   UNL     1       4.652   0.269   1.494  0.00  0.00    +0.019 C 
ATOM     11  C   UNL     1       5.461  -1.035  -0.966  0.00  0.00    +0.085 C 
ATOM     12  C   UNL     1       5.978   0.552   0.789  0.00  0.00    +0.081 C 
ATOM     32  H   UNL     1       7.320  -0.384  -0.430  0.00  0.00    +0.122 HD
ENDROOT
BRANCH   9  13
ATOM     13  C   UNL     1       3.118  -1.869  -1.381  0.00  0.00    +0.064 C 
BRANCH  13  15
ATOM      2  O   UNL     1       0.372  -3.623   0.150  0.00  0.00    -0.356 OA
ATOM      6  N   UNL     1       1.658  -3.569  -0.372  0.00  0.00    -0.083 NA
ATOM     15  C   UNL     1       1.821  -2.301  -0.761  0.00  0.00    +0.084 A 
ATOM     17  C   UNL     1       0.682  -1.516  -0.511  0.00  0.00    +0.074 A 
ATOM     18  C   UNL     1      -0.200  -2.394   0.062  0.00  0.00    +0.175 A 
BRANCH  18  20
ATOM     20  C   UNL     1      -1.570  -2.271   0.572  0.00  0.00    +0.306 C 
BRANCH  20   3
ATOM      3  O   UNL     1      -2.452  -1.845  -0.471  0.00  0.00    -0.484 OA
BRANCH   3  24
ATOM     24  C   UNL     1      -3.753  -1.626  -0.116  0.00  0.00    +0.121 A 
ATOM     27  C   UNL     1      -4.159  -1.820   1.204  0.00  0.00    +0.045 A 
ATOM     28  C   UNL     1      -4.676  -1.210  -1.075  0.00  0.00    +0.045 A 
ATOM     29  C   UNL     1      -5.487  -1.596   1.566  0.00  0.00    +0.004 A 
ATOM     30  C   UNL     1      -6.005  -0.986  -0.714  0.00  0.00    +0.004 A 
ATOM     31  C   UNL     1      -6.410  -1.179   0.607  0.00  0.00    +0.000 A 
ENDBRANCH   3  24
ENDBRANCH  20   3
ENDBRANCH  18  20
ENDBRANCH  13  15
ENDBRANCH   9  13
BRANCH   8  14
ATOM     14  C   UNL     1       3.029   0.969  -0.315  0.00  0.00    +0.099 C 
BRANCH  14  16
ATOM      1  O   UNL     1       1.746   1.621   1.629  0.00  0.00    -0.276 OA
ATOM      5  N   UNL     1       1.622   2.906  -0.303  0.00  0.00    -0.311 N 
ATOM     16  C   UNL     1       2.072   1.843   0.466  0.00  0.00    +0.214 C 
ATOM     33  H   UNL     1       1.939   2.993  -1.264  0.00  0.00    +0.149 HD
BRANCH   5  19
ATOM     19  C   UNL     1       0.696   3.900   0.189  0.00  0.00    +0.141 C 
BRANCH  19  21
ATOM      7  N   UNL     1      -2.562   3.283  -1.629  0.00  0.00    -0.263 NA
ATOM     21  C   UNL     1      -0.732   3.512  -0.066  0.00  0.00    -0.012 A 
ATOM     22  C   UNL     1      -1.542   3.042   0.962  0.00  0.00    +0.008 A 
ATOM     23  C   UNL     1      -1.285   3.613  -1.332  0.00  0.00    +0.115 A 
ATOM     25  C   UNL     1      -2.861   2.692   0.696  0.00  0.00    +0.020 A 
ATOM     26  C   UNL     1      -3.318   2.830  -0.605  0.00  0.00    +0.111 A 
ENDBRANCH  19  21
ENDBRANCH   5  19
ENDBRANCH  14  16
ENDBRANCH   8  14
TORSDOF 9
