REMARK  Name = 45783622
REMARK  10 active torsions:
REMARK  status: ('A' for Active; 'I' for Inactive)
REMARK    1  A    between atoms: O_2  and  C_23
REMARK    2  A    between atoms: O_2  and  C_28
REMARK    3  A    between atoms: O_3  and  C_30
REMARK    4  A    between atoms: O_3  and  C_31
REMARK    5  A    between atoms: N_5  and  C_14
REMARK    6  A    between atoms: N_9  and  C_27
REMARK    7  A    between atoms: C_10  and  C_15
REMARK    8  A    between atoms: C_14  and  C_16
REMARK    9  A    between atoms: C_19  and  C_22
REMARK   10  A    between atoms: C_29  and  C_30
REMARK                            x       y       z     vdW  Elec       q    Type
REMARK                         _______ _______ _______ _____ _____    ______ ____
ROOT
ATOM      1  O   UNL     1      -2.806  -1.630   1.856  0.00  0.00    -0.336 OA
ATOM      6  N   UNL     1      -1.707  -1.106  -0.024  0.00  0.00    -0.190 NA
ATOM      7  N   UNL     1      -1.448  -1.600   2.195  0.00  0.00    -0.056 NA
ATOM     15  C   UNL     1      -2.871  -1.328   0.532  0.00  0.00    +0.245 A 
ATOM     19  C   UNL     1      -0.865  -1.284   1.035  0.00  0.00    +0.204 A 
ENDROOT
BRANCH  19  22
ATOM      8  N   UNL     1       2.745  -1.203   1.923  0.00  0.00    -0.239 NA
ATOM     22  C   UNL     1       0.556  -1.140   0.899  0.00  0.00    +0.041 A 
ATOM     24  C   UNL     1       1.130  -0.812  -0.324  0.00  0.00    +0.016 A 
ATOM     25  C   UNL     1       1.400  -1.324   1.983  0.00  0.00    +0.124 A 
ATOM     26  C   UNL     1       2.510  -0.679  -0.425  0.00  0.00    +0.044 A 
ATOM     27  C   UNL     1       3.267  -0.883   0.718  0.00  0.00    +0.125 A 
BRANCH  27   9
ATOM      4  O   UNL     1       4.974  -0.197  -1.663  0.00  0.00    -0.273 OA
ATOM      9  N   UNL     1       4.655  -0.747   0.606  0.00  0.00    -0.268 N 
ATOM     29  C   UNL     1       5.399  -0.424  -0.534  0.00  0.00    +0.244 C 
ATOM     32  H   UNL     1       5.165  -0.907   1.471  0.00  0.00    +0.156 HD
BRANCH  29  30
ATOM     30  C   UNL     1       6.885  -0.380  -0.249  0.00  0.00    +0.255 C 
BRANCH  30   3
ATOM      3  O   UNL     1       7.568  -0.055  -1.442  0.00  0.00    -0.374 OA
ATOM     31  C   UNL     1       8.978   0.004  -1.247  0.00  0.00    +0.194 C 
ENDBRANCH  30   3
ENDBRANCH  29  30
ENDBRANCH  27   9
ENDBRANCH  19  22
BRANCH  15  10
ATOM      5  N   UNL     1      -4.333  -0.386  -1.247  0.00  0.00    -0.287 NA
ATOM     10  C   UNL     1      -4.253  -1.294  -0.086  0.00  0.00    +0.146 C 
ATOM     11  C   UNL     1      -4.694  -2.666  -0.630  0.00  0.00    +0.030 C 
ATOM     12  C   UNL     1      -5.061  -2.416  -2.086  0.00  0.00    +0.017 C 
ATOM     13  C   UNL     1      -5.365  -0.932  -2.128  0.00  0.00    +0.085 C 
BRANCH   5  14
ATOM     14  C   UNL     1      -4.604   0.997  -0.877  0.00  0.00    +0.120 C 
BRANCH  14  16
ATOM     16  C   UNL     1      -3.363   1.702  -0.398  0.00  0.00    -0.033 A 
ATOM     17  C   UNL     1      -3.325   2.255   0.882  0.00  0.00    +0.008 A 
ATOM     18  C   UNL     1      -2.251   1.802  -1.234  0.00  0.00    +0.008 A 
ATOM     20  C   UNL     1      -2.175   2.908   1.326  0.00  0.00    +0.046 A 
ATOM     21  C   UNL     1      -1.101   2.455  -0.790  0.00  0.00    +0.046 A 
ATOM     23  C   UNL     1      -1.063   3.009   0.489  0.00  0.00    +0.120 A 
BRANCH  23   2
ATOM      2  O   UNL     1       0.059   3.645   0.923  0.00  0.00    -0.495 OA
ATOM     28  C   UNL     1       1.159   3.711   0.016  0.00  0.00    +0.277 C 
ENDBRANCH  23   2
ENDBRANCH  14  16
ENDBRANCH   5  14
ENDBRANCH  15  10
TORSDOF 8
