REMARK  Name = 75536856
REMARK  5 active torsions:
REMARK  status: ('A' for Active; 'I' for Inactive)
REMARK    1  A    between atoms: O_5  and  C_10
REMARK    2  A    between atoms: O_5  and  C_17
REMARK    3  A    between atoms: C_15  and  C_16
REMARK    4  A    between atoms: C_24  and  C_27
REMARK    5  A    between atoms: C_25  and  C_28
REMARK                            x       y       z     vdW  Elec       q    Type
REMARK                         _______ _______ _______ _____ _____    ______ ____
ROOT
ATOM      4  O   UNL     1       3.652   2.249  -1.337  0.00  0.00    -0.375 OA
ATOM      6  O   UNL     1       4.282  -1.711  -0.321  0.00  0.00    -0.270 OA
ATOM      7  N   UNL     1       3.270   0.194   0.579  0.00  0.00    -0.292 N 
ATOM     10  C   UNL     1       1.623   1.971  -0.048  0.00  0.00    +0.218 C 
ATOM     11  C   UNL     1       2.070   0.934   0.986  0.00  0.00    +0.155 C 
ATOM     12  C   UNL     1       4.515   0.953   0.617  0.00  0.00    +0.136 C 
ATOM     13  C   UNL     1       2.734   2.925  -0.489  0.00  0.00    +0.206 C 
ATOM     14  C   UNL     1       4.789   1.678  -0.698  0.00  0.00    +0.179 C 
ATOM     15  C   UNL     1       3.289  -1.115   0.092  0.00  0.00    +0.247 C 
ENDROOT
BRANCH  15  16
ATOM     16  C   UNL     1       2.023  -1.855   0.057  0.00  0.00    +0.037 A 
ATOM     18  C   UNL     1       1.211  -1.795  -1.076  0.00  0.00    +0.014 A 
ATOM     19  C   UNL     1       1.631  -2.619   1.156  0.00  0.00    +0.014 A 
ATOM     21  C   UNL     1       0.008  -2.499  -1.110  0.00  0.00    +0.019 A 
ATOM     22  C   UNL     1       0.428  -3.324   1.122  0.00  0.00    +0.019 A 
ATOM     25  C   UNL     1      -0.384  -3.264  -0.011  0.00  0.00    +0.052 A 
BRANCH  25  28
ATOM      9  N   UNL     1      -2.618  -4.571  -0.074  0.00  0.00    -0.191 NA
ATOM     28  C   UNL     1      -1.617  -3.985  -0.046  0.00  0.00    +0.099 C 
ENDBRANCH  25  28
ENDBRANCH  15  16
BRANCH  10   5
ATOM      5  O   UNL     1       0.571   2.750   0.518  0.00  0.00    -0.469 OA
BRANCH   5  17
ATOM      8  N   UNL     1      -0.835   1.112  -0.329  0.00  0.00    -0.221 NA
ATOM     17  C   UNL     1      -0.700   2.272   0.353  0.00  0.00    +0.215 A 
ATOM     20  C   UNL     1      -1.761   2.989   0.882  0.00  0.00    +0.068 A 
ATOM     23  C   UNL     1      -3.043   2.483   0.701  0.00  0.00    +0.019 A 
ATOM     24  C   UNL     1      -3.223   1.292   0.006  0.00  0.00    +0.073 A 
ATOM     26  C   UNL     1      -2.096   0.651  -0.485  0.00  0.00    +0.127 A 
BRANCH  24  27
ATOM      1  F   UNL     1      -4.748  -0.521   0.333  0.00  0.00    -0.166 F 
ATOM      2  F   UNL     1      -4.924   0.589  -1.522  0.00  0.00    -0.166 F 
ATOM      3  F   UNL     1      -5.567   1.493   0.348  0.00  0.00    -0.166 F 
ATOM     27  C   UNL     1      -4.581   0.725  -0.205  0.00  0.00    +0.419 C 
ENDBRANCH  24  27
ENDBRANCH   5  17
ENDBRANCH  10   5
TORSDOF 5
