REMARK  Name = 38026931
REMARK  12 active torsions:
REMARK  status: ('A' for Active; 'I' for Inactive)
REMARK    1  A    between atoms: O_4  and  C_33
REMARK    2  A    between atoms: O_4  and  C_34
REMARK    3  A    between atoms: N_5  and  C_16
REMARK    4  A    between atoms: C_8  and  C_12
REMARK    5  A    between atoms: C_9  and  C_16
REMARK    6  A    between atoms: C_11  and  C_15
REMARK    7  A    between atoms: C_12  and  C_17
REMARK    8  A    between atoms: C_12  and  C_18
REMARK    9  A    between atoms: C_13  and  C_19
REMARK   10  A    between atoms: C_15  and  C_20
REMARK   11  A    between atoms: C_25  and  C_27
REMARK   12  A    between atoms: C_26  and  C_28
REMARK                            x       y       z     vdW  Elec       q    Type
REMARK                         _______ _______ _______ _____ _____    ______ ____
ROOT
ATOM      8  C   UNL     1      -2.818   1.785   0.525  0.00  0.00    +0.000 C 
ATOM      9  C   UNL     1      -3.804   1.400  -0.607  0.00  0.00    +0.032 C 
ATOM     10  C   UNL     1      -1.918   2.947   0.080  0.00  0.00    +0.012 C 
ATOM     11  C   UNL     1      -1.103   2.603  -1.181  0.00  0.00    +0.023 C 
ATOM     13  C   UNL     1      -1.965   1.966  -2.253  0.00  0.00    -0.073 C 
ATOM     14  C   UNL     1      -3.175   1.446  -1.980  0.00  0.00    -0.022 C 
ATOM     19  C   UNL     1      -1.424   1.982  -3.655  0.00  0.00    +0.039 C 
ENDROOT
BRANCH   8  12
ATOM     12  C   UNL     1      -3.553   2.162   1.815  0.00  0.00    -0.013 C 
ATOM     17  C   UNL     1      -2.647   1.951   3.024  0.00  0.00    +0.007 C 
ATOM     18  C   UNL     1      -4.037   3.607   1.748  0.00  0.00    +0.007 C 
ENDBRANCH   8  12
BRANCH  11  15
ATOM     15  C   UNL     1       0.095   1.710  -0.839  0.00  0.00    +0.103 C 
BRANCH  15  20
ATOM      1  O   UNL     1       0.987   3.736   0.009  0.00  0.00    -0.276 OA
ATOM      3  O   UNL     1       6.276  -1.062   0.325  0.00  0.00    -0.276 OA
ATOM      6  N   UNL     1       2.323   1.848   0.215  0.00  0.00    -0.298 N 
ATOM      7  N   UNL     1       4.966   0.837   0.058  0.00  0.00    -0.299 N 
ATOM     20  C   UNL     1       1.169   2.528  -0.167  0.00  0.00    +0.216 C 
ATOM     21  C   UNL     1       3.416   2.571   0.871  0.00  0.00    +0.126 C 
ATOM     22  C   UNL     1       2.540   0.400   0.088  0.00  0.00    +0.126 C 
ATOM     23  C   UNL     1       4.749   2.285   0.186  0.00  0.00    +0.126 C 
ATOM     24  C   UNL     1       3.873   0.114  -0.598  0.00  0.00    +0.126 C 
ATOM     26  C   UNL     1       6.119   0.156   0.443  0.00  0.00    +0.213 C 
ATOM     28  C   UNL     1       7.226   0.988   1.041  0.00  0.00    +0.109 C 
ENDBRANCH  15  20
ENDBRANCH  11  15
BRANCH   9  16
ATOM     16  C   UNL     1      -4.406   0.011  -0.368  0.00  0.00    +0.112 C 
BRANCH  16   5
ATOM      2  O   UNL     1      -3.643  -1.823   1.705  0.00  0.00    -0.270 OA
ATOM      5  N   UNL     1      -3.399  -1.000  -0.451  0.00  0.00    -0.311 N 
ATOM     25  C   UNL     1      -3.090  -1.852   0.608  0.00  0.00    +0.244 C 
ATOM     35  H   UNL     1      -2.964  -1.146  -1.356  0.00  0.00    +0.149 HD
BRANCH  25  27
ATOM     27  C   UNL     1      -2.000  -2.833   0.371  0.00  0.00    +0.037 A 
ATOM     29  C   UNL     1      -1.980  -4.037   1.074  0.00  0.00    +0.016 A 
ATOM     30  C   UNL     1      -0.995  -2.548  -0.554  0.00  0.00    +0.016 A 
ATOM     31  C   UNL     1      -0.955  -4.957   0.853  0.00  0.00    +0.046 A 
ATOM     32  C   UNL     1       0.030  -3.468  -0.776  0.00  0.00    +0.046 A 
ATOM     33  C   UNL     1       0.050  -4.672  -0.072  0.00  0.00    +0.120 A 
BRANCH  33   4
ATOM      4  O   UNL     1       1.050  -5.570  -0.289  0.00  0.00    -0.495 OA
ATOM     34  C   UNL     1       2.045  -5.214  -1.248  0.00  0.00    +0.277 C 
ENDBRANCH  33   4
ENDBRANCH  25  27
ENDBRANCH  16   5
ENDBRANCH   9  16
TORSDOF 7
