REMARK  Name = 11912880
REMARK  3 active torsions:
REMARK  status: ('A' for Active; 'I' for Inactive)
REMARK    1  A    between atoms: N_6  and  C_13
REMARK    2  A    between atoms: N_7  and  C_14
REMARK    3  A    between atoms: C_23  and  C_26
REMARK                            x       y       z     vdW  Elec       q    Type
REMARK                         _______ _______ _______ _____ _____    ______ ____
ROOT
ATOM      2  O   UNL     1      -0.193   0.874   1.812  0.00  0.00    -0.370 OA
ATOM      3  O   UNL     1      -0.707   3.461   0.146  0.00  0.00    -0.370 OA
ATOM     11  C   UNL     1      -1.046   2.079  -0.053  0.00  0.00    +0.171 C 
ATOM     12  C   UNL     1       0.116   1.251   0.460  0.00  0.00    +0.171 C 
ATOM     13  C   UNL     1      -2.200   1.687   0.842  0.00  0.00    +0.131 C 
ATOM     14  C   UNL     1       1.287   2.204   0.436  0.00  0.00    +0.130 C 
ATOM     15  C   UNL     1      -1.501   1.359   2.149  0.00  0.00    +0.185 C 
ATOM     16  C   UNL     1       0.626   3.550   0.670  0.00  0.00    +0.185 C 
ENDROOT
BRANCH  13   6
ATOM      4  O   UNL     1      -4.890   1.033   1.348  0.00  0.00    -0.253 OA
ATOM      5  O   UNL     1      -6.199  -2.791  -1.477  0.00  0.00    -0.377 OA
ATOM      6  N   UNL     1      -2.900   0.536   0.319  0.00  0.00    -0.292 N 
ATOM      8  N   UNL     1      -4.774  -0.879   0.041  0.00  0.00    -0.281 N 
ATOM     17  C   UNL     1      -4.234   0.283   0.618  0.00  0.00    +0.303 C 
ATOM     19  C   UNL     1      -6.115  -1.315   0.435  0.00  0.00    +0.137 C 
ATOM     20  C   UNL     1      -4.064  -1.821  -0.836  0.00  0.00    +0.137 C 
ATOM     21  C   UNL     1      -6.917  -1.775  -0.772  0.00  0.00    +0.179 C 
ATOM     22  C   UNL     1      -4.963  -2.281  -1.979  0.00  0.00    +0.179 C 
ATOM     30  H   UNL     1      -2.335  -0.170  -0.134  0.00  0.00    +0.151 HD
ENDBRANCH  13   6
BRANCH  14   7
ATOM      7  N   UNL     1       1.921   2.176  -0.864  0.00  0.00    -0.306 N 
ATOM      9  N   UNL     1       3.249   0.325  -0.300  0.00  0.00    -0.214 NA
ATOM     10  N   UNL     1       3.399   1.338  -2.482  0.00  0.00    -0.223 NA
ATOM     18  C   UNL     1       2.885   1.252  -1.226  0.00  0.00    +0.216 A 
ATOM     23  C   UNL     1       4.191  -0.560  -0.687  0.00  0.00    +0.083 A 
ATOM     24  C   UNL     1       4.336   0.421  -2.802  0.00  0.00    +0.116 A 
ATOM     25  C   UNL     1       4.775  -0.560  -1.937  0.00  0.00    +0.049 A 
ATOM     31  H   UNL     1       1.620   2.829  -1.579  0.00  0.00    +0.149 HD
BRANCH  23  26
ATOM      1  S   UNL     1       3.385  -2.013   1.469  0.00  0.00    -0.095 S 
ATOM     26  C   UNL     1       4.556  -1.527   0.314  0.00  0.00    +0.038 A 
ATOM     27  C   UNL     1       5.763  -2.167   0.510  0.00  0.00    +0.017 A 
ATOM     28  C   UNL     1       5.724  -3.063   1.617  0.00  0.00    +0.008 A 
ATOM     29  C   UNL     1       4.490  -3.076   2.229  0.00  0.00    +0.046 A 
ENDBRANCH  23  26
ENDBRANCH  14   7
TORSDOF 3
