REMARK  Name = 11941628
REMARK  2 active torsions:
REMARK  status: ('A' for Active; 'I' for Inactive)
REMARK    1  A    between atoms: O_3  and  C_10
REMARK    2  A    between atoms: C_18  and  C_20
REMARK                            x       y       z     vdW  Elec       q    Type
REMARK                         _______ _______ _______ _____ _____    ______ ____
ROOT
ATOM      4  O   UNL     1      -4.490   2.084   0.080  0.00  0.00    -0.273 OA
ATOM      5  O   UNL     1      -1.234  -1.887   1.297  0.00  0.00    -0.270 OA
ATOM      6  N   UNL     1      -2.912  -0.817   0.146  0.00  0.00    -0.283 N 
ATOM      7  N   UNL     1      -2.216   2.043   0.234  0.00  0.00    -0.283 N 
ATOM      8  C   UNL     1      -3.375   0.151  -0.827  0.00  0.00    +0.165 C 
ATOM      9  C   UNL     1      -4.736  -0.380  -1.273  0.00  0.00    +0.065 C 
ATOM     10  C   UNL     1      -5.237  -1.153  -0.054  0.00  0.00    +0.134 C 
ATOM     11  C   UNL     1      -3.961  -1.760   0.507  0.00  0.00    +0.140 C 
ATOM     12  C   UNL     1      -3.431   1.482  -0.105  0.00  0.00    +0.238 C 
ATOM     13  C   UNL     1      -1.615  -0.954   0.590  0.00  0.00    +0.249 C 
ATOM     14  C   UNL     1      -0.633   0.097   0.215  0.00  0.00    +0.059 A 
ATOM     15  C   UNL     1      -0.928   1.470   0.150  0.00  0.00    +0.046 A 
ATOM     16  C   UNL     1       0.702  -0.330   0.092  0.00  0.00    +0.023 A 
ATOM     17  C   UNL     1       0.132   2.385   0.027  0.00  0.00    +0.024 A 
ATOM     18  C   UNL     1       1.734   0.591  -0.076  0.00  0.00    -0.014 A 
ATOM     19  C   UNL     1       1.451   1.950  -0.096  0.00  0.00    +0.010 A 
ATOM     26  H   UNL     1      -2.249   3.025   0.498  0.00  0.00    +0.155 HD
ENDROOT
BRANCH  18  20
ATOM      1  F   UNL     1       3.405   0.208   2.150  0.00  0.00    -0.205 F 
ATOM      2  F   UNL     1       6.999  -1.173  -0.598  0.00  0.00    -0.205 F 
ATOM     20  C   UNL     1       3.101   0.133  -0.208  0.00  0.00    +0.018 A 
ATOM     21  C   UNL     1       3.893  -0.044   0.926  0.00  0.00    +0.134 A 
ATOM     22  C   UNL     1       3.625  -0.131  -1.473  0.00  0.00    +0.014 A 
ATOM     23  C   UNL     1       5.210  -0.485   0.795  0.00  0.00    +0.077 A 
ATOM     24  C   UNL     1       4.941  -0.572  -1.605  0.00  0.00    +0.039 A 
ATOM     25  C   UNL     1       5.734  -0.749  -0.470  0.00  0.00    +0.126 A 
ENDBRANCH  18  20
BRANCH  10   3
ATOM      3  O   UNL     1      -6.159  -2.159  -0.423  0.00  0.00    -0.390 OA
ATOM     27  H   UNL     1      -6.370  -2.669   0.377  0.00  0.00    +0.210 HD
ENDBRANCH  10   3
TORSDOF 2
