REMARK  Name = 11885156
REMARK  3 active torsions:
REMARK  status: ('A' for Active; 'I' for Inactive)
REMARK    1  A    between atoms: S_1  and  N_6
REMARK    2  A    between atoms: S_1  and  C_19
REMARK    3  A    between atoms: C_17  and  C_20
REMARK                            x       y       z     vdW  Elec       q    Type
REMARK                         _______ _______ _______ _____ _____    ______ ____
ROOT
ATOM      5  O   UNL     1      -0.918   1.977  -1.570  0.00  0.00    -0.267 OA
ATOM      6  N   UNL     1       3.633   0.262  -0.473  0.00  0.00    -0.175 NA
ATOM      7  N   UNL     1       0.967   1.936  -0.197  0.00  0.00    -0.311 N 
ATOM      8  C   UNL     1       3.281   2.675  -1.009  0.00  0.00    +0.025 C 
ATOM      9  C   UNL     1       2.993   1.885   1.299  0.00  0.00    +0.052 C 
ATOM     10  C   UNL     1       3.522   3.039   0.451  0.00  0.00    +0.017 C 
ATOM     11  C   UNL     1       4.029   1.382  -1.374  0.00  0.00    +0.114 C 
ATOM     12  C   UNL     1       3.782   0.604   0.973  0.00  0.00    +0.119 C 
ATOM     13  C   UNL     1       1.771   2.568  -1.253  0.00  0.00    +0.130 C 
ATOM     14  C   UNL     1       1.511   1.666   1.061  0.00  0.00    +0.026 A 
ATOM     15  C   UNL     1       0.728   1.197   2.046  0.00  0.00    +0.022 A 
ATOM     16  C   UNL     1      -0.395   1.718  -0.484  0.00  0.00    +0.259 A 
ATOM     17  C   UNL     1      -1.239   1.158   0.628  0.00  0.00    +0.047 A 
ATOM     18  C   UNL     1      -0.665   0.935   1.820  0.00  0.00    +0.015 A 
ENDROOT
BRANCH  17  20
ATOM     20  C   UNL     1      -2.664   0.848   0.424  0.00  0.00    -0.012 A 
ATOM     22  C   UNL     1      -3.048  -0.417  -0.023  0.00  0.00    +0.017 A 
ATOM     23  C   UNL     1      -3.631   1.818   0.677  0.00  0.00    +0.009 A 
ATOM     26  C   UNL     1      -4.403  -0.728  -0.223  0.00  0.00    -0.017 A 
ATOM     27  C   UNL     1      -4.982   1.527   0.485  0.00  0.00    +0.009 A 
ATOM     28  C   UNL     1      -5.384   0.259   0.035  0.00  0.00    -0.018 A 
ATOM     29  C   UNL     1      -4.806  -1.996  -0.672  0.00  0.00    +0.008 A 
ATOM     30  C   UNL     1      -6.739  -0.052  -0.164  0.00  0.00    +0.008 A 
ATOM     31  C   UNL     1      -6.156  -2.287  -0.865  0.00  0.00    +0.001 A 
ATOM     32  C   UNL     1      -7.121  -1.317  -0.612  0.00  0.00    +0.001 A 
ENDBRANCH  17  20
BRANCH   6   1
ATOM      1  S   UNL     1       4.195  -1.288  -0.929  0.00  0.00    +0.067 S 
ATOM      3  O   UNL     1       5.560  -1.438  -0.469  0.00  0.00    -0.152 OA
ATOM      4  O   UNL     1       3.818  -1.546  -2.303  0.00  0.00    -0.152 OA
BRANCH   1  19
ATOM      2  S   UNL     1       1.633  -2.617  -0.461  0.00  0.00    -0.077 S 
ATOM     19  C   UNL     1       3.263  -2.495   0.006  0.00  0.00    +0.143 A 
ATOM     21  C   UNL     1       3.610  -3.331   1.017  0.00  0.00    +0.036 A 
ATOM     24  C   UNL     1       2.497  -4.114   1.439  0.00  0.00    +0.010 A 
ATOM     25  C   UNL     1       1.359  -3.827   0.719  0.00  0.00    +0.047 A 
ENDBRANCH   1  19
ENDBRANCH   6   1
TORSDOF 3
