REMARK  Name = 26745538
REMARK  5 active torsions:
REMARK  status: ('A' for Active; 'I' for Inactive)
REMARK    1  A    between atoms: O_2  and  C_13
REMARK    2  A    between atoms: O_2  and  C_20
REMARK    3  A    between atoms: N_6  and  C_16
REMARK    4  A    between atoms: C_8  and  C_13
REMARK    5  A    between atoms: C_14  and  C_17
REMARK                            x       y       z     vdW  Elec       q    Type
REMARK                         _______ _______ _______ _____ _____    ______ ____
ROOT
ATOM      3  O   UNL     1       0.960   2.252  -1.541  0.00  0.00    -0.270 OA
ATOM      5  N   UNL     1      -0.261   0.540  -0.500  0.00  0.00    -0.278 N 
ATOM      6  N   UNL     1      -1.780  -2.737   0.491  0.00  0.00    -0.336 N 
ATOM      7  N   UNL     1      -3.539  -2.045  -0.699  0.00  0.00    -0.240 NA
ATOM      8  C   UNL     1      -1.567   1.189  -0.788  0.00  0.00    +0.191 C 
ATOM      9  C   UNL     1      -2.647   0.235  -1.340  0.00  0.00    +0.091 C 
ATOM     10  C   UNL     1      -0.244  -0.714   0.307  0.00  0.00    +0.164 C 
ATOM     11  C   UNL     1      -1.476  -1.483   0.049  0.00  0.00    +0.059 A 
ATOM     12  C   UNL     1      -2.571  -1.080  -0.673  0.00  0.00    +0.066 A 
ATOM     14  C   UNL     1       0.911   1.217  -0.878  0.00  0.00    +0.248 C 
ATOM     15  C   UNL     1      -3.032  -3.031   0.014  0.00  0.00    +0.199 A 
ATOM     16  C   UNL     1      -0.959  -3.599   1.306  0.00  0.00    +0.150 C 
ENDROOT
BRANCH  14  17
ATOM      1  F   UNL     1       5.830  -0.902   0.752  0.00  0.00    -0.205 F 
ATOM     17  C   UNL     1       2.202   0.661  -0.450  0.00  0.00    +0.037 A 
ATOM     18  C   UNL     1       2.868  -0.260  -1.260  0.00  0.00    +0.016 A 
ATOM     19  C   UNL     1       2.763   1.053   0.766  0.00  0.00    +0.016 A 
ATOM     21  C   UNL     1       4.093  -0.788  -0.854  0.00  0.00    +0.039 A 
ATOM     22  C   UNL     1       3.988   0.525   1.172  0.00  0.00    +0.039 A 
ATOM     23  C   UNL     1       4.653  -0.396   0.362  0.00  0.00    +0.123 A 
ENDBRANCH  14  17
BRANCH   8  13
ATOM      4  O   UNL     1      -1.378   1.757   1.547  0.00  0.00    -0.249 OA
ATOM     13  C   UNL     1      -1.993   1.846   0.494  0.00  0.00    +0.328 C 
BRANCH  13   2
ATOM      2  O   UNL     1      -3.149   2.539   0.288  0.00  0.00    -0.467 OA
ATOM     20  C   UNL     1      -3.671   3.219   1.434  0.00  0.00    +0.280 C 
ENDBRANCH  13   2
ENDBRANCH   8  13
TORSDOF 3
