REMARK  Name = 45361340
REMARK  12 active torsions:
REMARK  status: ('A' for Active; 'I' for Inactive)
REMARK    1  A    between atoms: O_2  and  C_12
REMARK    2  A    between atoms: N_6  and  C_26
REMARK    3  A    between atoms: N_6  and  C_27
REMARK    4  A    between atoms: N_8  and  C_35
REMARK    5  A    between atoms: C_10  and  C_18
REMARK    6  A    between atoms: C_13  and  C_19
REMARK    7  A    between atoms: C_15  and  C_22
REMARK    8  A    between atoms: C_19  and  C_23
REMARK    9  A    between atoms: C_19  and  C_24
REMARK   10  A    between atoms: C_26  and  C_29
REMARK   11  A    between atoms: C_28  and  C_30
REMARK   12  A    between atoms: C_29  and  C_31
REMARK                            x       y       z     vdW  Elec       q    Type
REMARK                         _______ _______ _______ _____ _____    ______ ____
ROOT
ATOM      1  S   UNL     1       3.071  -1.973  -1.245  0.00  0.00    -0.057 S 
ATOM      4  O   UNL     1       5.410   1.607   0.656  0.00  0.00    -0.268 OA
ATOM      5  N   UNL     1       2.798   0.206   0.120  0.00  0.00    -0.229 NA
ATOM      7  N   UNL     1       5.040  -0.396  -0.529  0.00  0.00    -0.259 N 
ATOM     10  C   UNL     1      -0.877  -1.919  -0.092  0.00  0.00    -0.022 C 
ATOM     11  C   UNL     1      -1.008  -0.346  -0.033  0.00  0.00    +0.033 C 
ATOM     12  C   UNL     1      -2.293   0.088   0.727  0.00  0.00    +0.123 C 
ATOM     13  C   UNL     1      -3.566  -0.602   0.190  0.00  0.00    +0.029 C 
ATOM     14  C   UNL     1      -2.180  -2.529  -0.660  0.00  0.00    +0.008 C 
ATOM     15  C   UNL     1       0.311   0.338   0.516  0.00  0.00    +0.042 C 
ATOM     16  C   UNL     1      -3.422  -2.122   0.121  0.00  0.00    +0.007 C 
ATOM     17  C   UNL     1       0.283  -2.316  -1.057  0.00  0.00    +0.051 C 
ATOM     18  C   UNL     1      -0.601  -2.533   1.305  0.00  0.00    +0.012 C 
ATOM     20  C   UNL     1       1.535  -0.326  -0.067  0.00  0.00    +0.057 A 
ATOM     21  C   UNL     1       1.504  -1.519  -0.760  0.00  0.00    +0.015 A 
ATOM     22  C   UNL     1       0.363   1.851   0.257  0.00  0.00    +0.014 C 
ATOM     25  C   UNL     1       3.683  -0.570  -0.467  0.00  0.00    +0.165 A 
ATOM     28  C   UNL     1       5.827   0.649   0.015  0.00  0.00    +0.266 C 
ATOM     37  H   UNL     1       5.525  -1.137  -1.029  0.00  0.00    +0.157 HD
ENDROOT
BRANCH  28  30
ATOM      8  N   UNL     1       8.243   1.035   0.660  0.00  0.00    -0.346 N 
ATOM     30  C   UNL     1       7.295   0.544  -0.199  0.00  0.00    +0.105 A 
ATOM     32  C   UNL     1       7.949  -0.045  -1.258  0.00  0.00    +0.032 A 
ATOM     33  C   UNL     1       9.493   0.766   0.166  0.00  0.00    +0.086 A 
ATOM     34  C   UNL     1       9.340   0.095  -1.028  0.00  0.00    +0.020 A 
ATOM     35  C   UNL     1       7.984   1.730   1.901  0.00  0.00    +0.149 C 
ENDBRANCH  28  30
BRANCH  12   2
ATOM      2  O   UNL     1      -2.480   1.494   0.579  0.00  0.00    -0.391 OA
ATOM     36  H   UNL     1      -2.585   1.686  -0.368  0.00  0.00    +0.210 HD
ENDBRANCH  12   2
BRANCH  13  19
ATOM     19  C   UNL     1      -4.803  -0.241   1.022  0.00  0.00    +0.078 C 
ATOM     23  C   UNL     1      -4.592  -0.687   2.470  0.00  0.00    +0.017 C 
BRANCH  19  24
ATOM      3  O   UNL     1      -6.363  -2.042   0.780  0.00  0.00    -0.275 OA
ATOM      6  N   UNL     1      -6.762  -0.188  -0.545  0.00  0.00    -0.303 N 
ATOM     24  C   UNL     1      -6.045  -0.904   0.418  0.00  0.00    +0.219 C 
ATOM     27  C   UNL     1      -7.938  -0.799  -1.157  0.00  0.00    +0.132 C 
BRANCH   6  26
ATOM     26  C   UNL     1      -6.475   1.171  -1.002  0.00  0.00    +0.122 C 
BRANCH  26  29
ATOM     29  C   UNL     1      -7.199   2.228  -0.176  0.00  0.00    +0.137 C 
BRANCH  29  31
ATOM      9  N   UNL     1      -6.639   4.665  -0.993  0.00  0.00    -0.197 NA
ATOM     31  C   UNL     1      -6.885   3.590  -0.633  0.00  0.00    +0.064 C 
ENDBRANCH  29  31
ENDBRANCH  26  29
ENDBRANCH   6  26
ENDBRANCH  19  24
ENDBRANCH  13  19
TORSDOF 7
