REMARK  Name = 75537095
REMARK  5 active torsions:
REMARK  status: ('A' for Active; 'I' for Inactive)
REMARK    1  A    between atoms: N_4  and  C_13
REMARK    2  A    between atoms: N_5  and  C_14
REMARK    3  A    between atoms: C_13  and  C_15
REMARK    4  A    between atoms: C_14  and  C_16
REMARK    5  A    between atoms: C_17  and  C_21
REMARK                            x       y       z     vdW  Elec       q    Type
REMARK                         _______ _______ _______ _____ _____    ______ ____
ROOT
ATOM      2  O   UNL     1       2.257   3.034   0.126  0.00  0.00    -0.252 OA
ATOM      3  N   UNL     1       0.194   1.929  -0.079  0.00  0.00    -0.278 N 
ATOM      4  N   UNL     1      -2.254   0.776   0.689  0.00  0.00    -0.293 NA
ATOM      5  N   UNL     1       1.958   1.106  -1.200  0.00  0.00    -0.279 N 
ATOM      7  C   UNL     1      -0.352   0.847  -0.872  0.00  0.00    +0.109 C 
ATOM      8  C   UNL     1      -1.245  -0.045  -0.011  0.00  0.00    +0.109 C 
ATOM      9  C   UNL     1       0.885   0.158  -1.444  0.00  0.00    +0.133 C 
ATOM     10  C   UNL     1      -0.691   2.707   0.763  0.00  0.00    +0.125 C 
ATOM     11  C   UNL     1      -1.606   1.776   1.562  0.00  0.00    +0.104 C 
ATOM     12  C   UNL     1       1.557   2.140  -0.330  0.00  0.00    +0.305 C 
ENDROOT
BRANCH   4  13
ATOM     13  C   UNL     1      -3.151  -0.076   1.468  0.00  0.00    +0.140 C 
BRANCH  13  15
ATOM      6  N   UNL     1      -3.948  -2.074   0.366  0.00  0.00    -0.258 NA
ATOM     15  C   UNL     1      -4.168  -0.762   0.603  0.00  0.00    +0.058 A 
ATOM     17  C   UNL     1      -5.248  -0.053   0.100  0.00  0.00    -0.028 A 
ATOM     20  C   UNL     1      -6.160  -0.736  -0.698  0.00  0.00    +0.006 A 
ATOM     21  C   UNL     1      -5.449   1.394   0.389  0.00  0.00    +0.045 C 
ATOM     24  C   UNL     1      -4.855  -2.705  -0.413  0.00  0.00    +0.111 A 
ATOM     25  C   UNL     1      -5.967  -2.087  -0.964  0.00  0.00    +0.020 A 
ENDBRANCH  13  15
ENDBRANCH   4  13
BRANCH   5  14
ATOM     14  C   UNL     1       3.301   0.887  -1.690  0.00  0.00    +0.144 C 
BRANCH  14  16
ATOM      1  F   UNL     1       6.197  -2.643   1.605  0.00  0.00    -0.205 F 
ATOM     16  C   UNL     1       4.073  -0.054  -0.811  0.00  0.00    -0.030 A 
ATOM     18  C   UNL     1       4.824   0.444   0.254  0.00  0.00    +0.008 A 
ATOM     19  C   UNL     1       4.040  -1.427  -1.060  0.00  0.00    +0.008 A 
ATOM     22  C   UNL     1       5.541  -0.431   1.070  0.00  0.00    +0.038 A 
ATOM     23  C   UNL     1       4.758  -2.301  -0.244  0.00  0.00    +0.038 A 
ATOM     26  C   UNL     1       5.508  -1.803   0.821  0.00  0.00    +0.123 A 
ENDBRANCH  14  16
ENDBRANCH   5  14
TORSDOF 4
