REMARK  Name = 45784118
REMARK  13 active torsions:
REMARK  status: ('A' for Active; 'I' for Inactive)
REMARK    1  A    between atoms: N_2  and  C_13
REMARK    2  A    between atoms: N_2  and  C_19
REMARK    3  A    between atoms: C_6  and  C_10
REMARK    4  A    between atoms: C_7  and  C_13
REMARK    5  A    between atoms: C_9  and  C_14
REMARK    6  A    between atoms: C_10  and  C_15
REMARK    7  A    between atoms: C_10  and  C_16
REMARK    8  A    between atoms: C_11  and  C_17
REMARK    9  A    between atoms: C_14  and  C_18
REMARK   10  A    between atoms: C_20  and  C_21
REMARK   11  A    between atoms: C_20  and  C_23
REMARK   12  A    between atoms: C_20  and  C_24
REMARK   13  A    between atoms: C_20  and  C_25
REMARK                            x       y       z     vdW  Elec       q    Type
REMARK                         _______ _______ _______ _____ _____    ______ ____
ROOT
ATOM      6  C   UNL     1      -0.574  -1.136  -1.195  0.00  0.00    +0.000 C 
ATOM      7  C   UNL     1      -1.782  -1.975  -0.707  0.00  0.00    +0.032 C 
ATOM      8  C   UNL     1       0.744  -1.764  -0.716  0.00  0.00    +0.012 C 
ATOM      9  C   UNL     1       0.813  -1.872   0.820  0.00  0.00    +0.024 C 
ATOM     11  C   UNL     1      -0.462  -2.448   1.401  0.00  0.00    -0.073 C 
ATOM     12  C   UNL     1      -1.608  -2.498   0.700  0.00  0.00    -0.022 C 
ATOM     17  C   UNL     1      -0.378  -3.008   2.794  0.00  0.00    +0.039 C 
ENDROOT
BRANCH   6  10
ATOM     10  C   UNL     1      -0.558  -0.997  -2.720  0.00  0.00    -0.013 C 
ATOM     15  C   UNL     1       0.212   0.255  -3.132  0.00  0.00    +0.007 C 
ATOM     16  C   UNL     1       0.049  -2.240  -3.361  0.00  0.00    +0.007 C 
ENDBRANCH   6  10
BRANCH   7  13
ATOM     13  C   UNL     1      -3.085  -1.173  -0.796  0.00  0.00    +0.109 C 
BRANCH  13   2
ATOM      2  N   UNL     1      -3.028  -0.061   0.112  0.00  0.00    -0.342 N 
ATOM     29  H   UNL     1      -2.215   0.060   0.707  0.00  0.00    +0.146 HD
BRANCH   2  19
ATOM      5  N   UNL     1      -6.262   1.626  -0.347  0.00  0.00    -0.261 NA
ATOM     19  C   UNL     1      -4.053   0.863   0.273  0.00  0.00    +0.045 A 
ATOM     22  C   UNL     1      -3.933   1.918   1.170  0.00  0.00    +0.026 A 
ATOM     26  C   UNL     1      -5.228   0.762  -0.456  0.00  0.00    +0.133 A 
ATOM     27  C   UNL     1      -4.976   2.827   1.310  0.00  0.00    +0.021 A 
ATOM     28  C   UNL     1      -6.109   2.638   0.536  0.00  0.00    +0.111 A 
ENDBRANCH   2  19
ENDBRANCH  13   2
ENDBRANCH   7  13
BRANCH   9  14
ATOM     14  C   UNL     1       1.143  -0.517   1.455  0.00  0.00    +0.105 C 
BRANCH  14  18
ATOM      1  O   UNL     1       2.919   0.744   0.355  0.00  0.00    -0.424 OA
ATOM      3  N   UNL     1       3.637  -0.644   1.956  0.00  0.00    -0.112 NA
ATOM      4  N   UNL     1       4.738   0.000   1.424  0.00  0.00    -0.112 NA
ATOM     18  C   UNL     1       2.598  -0.179   1.303  0.00  0.00    +0.218 A 
ATOM     21  C   UNL     1       4.272   0.800   0.493  0.00  0.00    +0.223 A 
BRANCH  21  20
ATOM     20  C   UNL     1       4.991   1.724  -0.393  0.00  0.00    +0.040 C 
ATOM     23  C   UNL     1       6.444   1.224  -0.711  0.00  0.00    +0.020 C 
ATOM     24  C   UNL     1       5.134   3.153   0.237  0.00  0.00    +0.020 C 
ATOM     25  C   UNL     1       4.343   1.978  -1.806  0.00  0.00    +0.020 C 
ENDBRANCH  21  20
ENDBRANCH  14  18
ENDBRANCH   9  14
TORSDOF 7
