REMARK  Name = 56775002
REMARK  6 active torsions:
REMARK  status: ('A' for Active; 'I' for Inactive)
REMARK    1  A    between atoms: O_3  and  C_24
REMARK    2  A    between atoms: N_5  and  C_11
REMARK    3  A    between atoms: N_6  and  C_17
REMARK    4  A    between atoms: C_7  and  C_11
REMARK    5  A    between atoms: C_17  and  C_18
REMARK    6  A    between atoms: C_23  and  C_24
REMARK                            x       y       z     vdW  Elec       q    Type
REMARK                         _______ _______ _______ _____ _____    ______ ____
ROOT
ATOM      1  O   UNL     1       2.203  -2.433  -0.485  0.00  0.00    -0.364 OA
ATOM      2  O   UNL     1       5.512  -1.519   0.309  0.00  0.00    -0.273 OA
ATOM      5  N   UNL     1       3.634  -0.158   0.118  0.00  0.00    -0.293 N 
ATOM      6  N   UNL     1      -0.002  -0.168   0.446  0.00  0.00    -0.294 NA
ATOM      8  C   UNL     1       2.214  -0.036  -0.198  0.00  0.00    +0.120 C 
ATOM     12  C   UNL     1       1.618  -1.220  -0.954  0.00  0.00    +0.154 C 
ATOM     13  C   UNL     1       1.320   0.036   1.037  0.00  0.00    +0.110 C 
ATOM     14  C   UNL     1       0.138  -1.231  -0.558  0.00  0.00    +0.118 C 
ATOM     15  C   UNL     1       4.340  -1.348  -0.030  0.00  0.00    +0.242 C 
ATOM     16  C   UNL     1       3.589  -2.455  -0.738  0.00  0.00    +0.256 C 
ENDROOT
BRANCH   5  11
ATOM     11  C   UNL     1       4.285   1.010   0.699  0.00  0.00    +0.111 C 
BRANCH  11   7
ATOM      7  C   UNL     1       4.961   1.826  -0.349  0.00  0.00    +0.006 C 
ATOM      9  C   UNL     1       4.194   2.917  -1.036  0.00  0.00    +0.005 C 
ATOM     10  C   UNL     1       5.284   3.264  -0.065  0.00  0.00    +0.005 C 
ENDBRANCH  11   7
ENDBRANCH   5  11
BRANCH   6  17
ATOM     17  C   UNL     1      -1.024  -0.459   1.439  0.00  0.00    +0.119 C 
BRANCH  17  18
ATOM     18  C   UNL     1      -2.409  -0.193   0.912  0.00  0.00    -0.033 A 
ATOM     19  C   UNL     1      -2.875   1.118   0.808  0.00  0.00    +0.006 A 
ATOM     20  C   UNL     1      -3.226  -1.256   0.529  0.00  0.00    +0.006 A 
ATOM     21  C   UNL     1      -4.159   1.365   0.320  0.00  0.00    +0.015 A 
ATOM     22  C   UNL     1      -4.509  -1.009   0.041  0.00  0.00    +0.015 A 
ATOM     23  C   UNL     1      -4.976   0.301  -0.064  0.00  0.00    +0.059 A 
BRANCH  23  24
ATOM      4  O   UNL     1      -6.826   1.674  -0.708  0.00  0.00    -0.245 OA
ATOM     24  C   UNL     1      -6.313   0.558  -0.573  0.00  0.00    +0.337 C 
BRANCH  24   3
ATOM      3  O   UNL     1      -6.974  -0.586  -0.901  0.00  0.00    -0.477 OA
ATOM     25  H   UNL     1      -7.875  -0.401  -1.243  0.00  0.00    +0.295 HD
ENDBRANCH  24   3
ENDBRANCH  23  24
ENDBRANCH  17  18
ENDBRANCH   6  17
TORSDOF 6
