REMARK  Name = 40780407
REMARK  9 active torsions:
REMARK  status: ('A' for Active; 'I' for Inactive)
REMARK    1  A    between atoms: O_2  and  C_25
REMARK    2  A    between atoms: O_2  and  C_29
REMARK    3  A    between atoms: N_3  and  C_8
REMARK    4  A    between atoms: N_3  and  C_14
REMARK    5  A    between atoms: N_4  and  C_17
REMARK    6  A    between atoms: C_6  and  C_9
REMARK    7  A    between atoms: C_12  and  C_15
REMARK    8  A    between atoms: C_13  and  C_16
REMARK    9  A    between atoms: C_14  and  C_18
REMARK                            x       y       z     vdW  Elec       q    Type
REMARK                         _______ _______ _______ _____ _____    ______ ____
ROOT
ATOM      6  C   UNL     1      -0.484  -0.791  -0.091  0.00  0.00    +0.047 C 
ATOM      7  C   UNL     1      -1.019   0.441   0.663  0.00  0.00    +0.035 C 
ATOM      8  C   UNL     1      -2.119   1.044  -0.228  0.00  0.00    +0.078 C 
ATOM     10  C   UNL     1      -0.872  -0.489  -1.509  0.00  0.00    -0.021 C 
ATOM     11  C   UNL     1      -1.766   0.503  -1.578  0.00  0.00    -0.012 C 
ENDROOT
BRANCH   6   9
ATOM      4  N   UNL     1       3.168  -0.831   0.200  0.00  0.00    -0.236 N 
ATOM      5  N   UNL     1       2.946  -2.049   0.723  0.00  0.00    -0.171 NA
ATOM      9  C   UNL     1       0.994  -1.027   0.123  0.00  0.00    +0.003 A 
ATOM     12  C   UNL     1       2.031  -0.178  -0.175  0.00  0.00    +0.046 A 
ATOM     13  C   UNL     1       1.617  -2.163   0.674  0.00  0.00    +0.064 A 
ATOM     15  C   UNL     1       2.032   1.173  -0.772  0.00  0.00    +0.066 C 
ATOM     16  C   UNL     1       0.976  -3.393   1.172  0.00  0.00    +0.068 C 
BRANCH   4  17
ATOM     17  C   UNL     1       4.474  -0.354   0.086  0.00  0.00    +0.066 A 
ATOM     19  C   UNL     1       4.847   0.820   0.740  0.00  0.00    +0.031 A 
ATOM     20  C   UNL     1       5.407  -1.050  -0.683  0.00  0.00    +0.031 A 
ATOM     23  C   UNL     1       6.153   1.298   0.626  0.00  0.00    +0.048 A 
ATOM     24  C   UNL     1       6.712  -0.573  -0.797  0.00  0.00    +0.048 A 
ATOM     25  C   UNL     1       7.085   0.601  -0.143  0.00  0.00    +0.120 A 
BRANCH  25   2
ATOM      2  O   UNL     1       8.359   1.067  -0.254  0.00  0.00    -0.495 OA
ATOM     29  C   UNL     1       8.673   2.272   0.443  0.00  0.00    +0.277 C 
ENDBRANCH  25   2
ENDBRANCH   4  17
ENDBRANCH   6   9
BRANCH   8   3
ATOM      3  N   UNL     1      -3.451   0.620   0.185  0.00  0.00    -0.306 NA
ATOM     30  H   UNL     1      -3.536   0.713   1.198  0.00  0.00    +0.123 HD
BRANCH   3  14
ATOM     14  C   UNL     1      -4.480   1.432  -0.452  0.00  0.00    +0.117 C 
BRANCH  14  18
ATOM      1 CL   UNL     1      -8.399  -1.972  -0.909  0.00  0.00    -0.084 Cl
ATOM     18  C   UNL     1      -5.865   1.000  -0.049  0.00  0.00    -0.032 A 
ATOM     21  C   UNL     1      -6.425  -0.152  -0.600  0.00  0.00    +0.025 A 
ATOM     22  C   UNL     1      -6.587   1.753   0.878  0.00  0.00    +0.005 A 
ATOM     26  C   UNL     1      -7.708  -0.552  -0.226  0.00  0.00    +0.041 A 
ATOM     27  C   UNL     1      -7.870   1.353   1.252  0.00  0.00    +0.002 A 
ATOM     28  C   UNL     1      -8.430   0.200   0.700  0.00  0.00    +0.020 A 
ENDBRANCH  14  18
ENDBRANCH   3  14
ENDBRANCH   8   3
TORSDOF 6
