REMARK  Name = 75536742
REMARK  4 active torsions:
REMARK  status: ('A' for Active; 'I' for Inactive)
REMARK    1  A    between atoms: O_2  and  C_9
REMARK    2  A    between atoms: N_5  and  C_12
REMARK    3  A    between atoms: N_6  and  C_10
REMARK    4  A    between atoms: C_8  and  C_12
REMARK                            x       y       z     vdW  Elec       q    Type
REMARK                         _______ _______ _______ _____ _____    ______ ____
ROOT
ATOM     12  C   UNL     1       1.018   0.356  -1.123  0.00  0.00    +0.140 C 
ENDROOT
BRANCH  12   5
ATOM      3  O   UNL     1      -5.171  -0.689   0.218  0.00  0.00    -0.377 OA
ATOM      4  O   UNL     1      -0.948   1.890   0.182  0.00  0.00    -0.253 OA
ATOM      5  N   UNL     1      -0.309  -0.098  -0.769  0.00  0.00    -0.297 N 
ATOM      7  N   UNL     1      -2.469   0.138   0.161  0.00  0.00    -0.281 N 
ATOM     13  C   UNL     1      -2.825  -1.275  -0.029  0.00  0.00    +0.137 C 
ATOM     14  C   UNL     1      -3.492   0.931   0.846  0.00  0.00    +0.137 C 
ATOM     15  C   UNL     1      -1.224   0.725  -0.123  0.00  0.00    +0.302 C 
ATOM     16  C   UNL     1      -4.238  -1.409  -0.588  0.00  0.00    +0.179 C 
ATOM     17  C   UNL     1      -4.863   0.706   0.227  0.00  0.00    +0.179 C 
ATOM     18  H   UNL     1      -0.526  -1.056  -1.003  0.00  0.00    +0.150 HD
ENDBRANCH  12   5
BRANCH  12   8
ATOM      1  O   UNL     1       2.101  -1.325   0.235  0.00  0.00    -0.371 OA
ATOM      8  C   UNL     1       2.013   0.088  -0.008  0.00  0.00    +0.165 C 
ATOM      9  C   UNL     1       3.426   0.547  -0.339  0.00  0.00    +0.164 C 
ATOM     10  C   UNL     1       4.246  -0.359   0.560  0.00  0.00    +0.108 C 
ATOM     11  C   UNL     1       3.482  -1.668   0.445  0.00  0.00    +0.181 C 
BRANCH  10   6
ATOM      6  N   UNL     1       5.638  -0.478   0.156  0.00  0.00    -0.323 NA
ATOM     19  H   UNL     1       6.097   0.428   0.235  0.00  0.00    +0.119 HD
ATOM     20  H   UNL     1       6.127  -1.109   0.789  0.00  0.00    +0.119 HD
ENDBRANCH  10   6
BRANCH   9   2
ATOM      2  O   UNL     1       3.616   1.919  -0.052  0.00  0.00    -0.388 OA
ATOM     21  H   UNL     1       3.414   2.065   0.888  0.00  0.00    +0.210 HD
ENDBRANCH   9   2
ENDBRANCH  12   8
TORSDOF 4
