REMARK  Name = 11941493
REMARK  3 active torsions:
REMARK  status: ('A' for Active; 'I' for Inactive)
REMARK    1  A    between atoms: N_6  and  C_9
REMARK    2  A    between atoms: N_7  and  C_13
REMARK    3  A    between atoms: C_26  and  C_28
REMARK                            x       y       z     vdW  Elec       q    Type
REMARK                         _______ _______ _______ _____ _____    ______ ____
ROOT
ATOM      2  O   UNL     1      -0.136   3.972  -1.057  0.00  0.00    -0.273 OA
ATOM      3  O   UNL     1       1.772   0.705   2.610  0.00  0.00    -0.270 OA
ATOM      5  N   UNL     1       0.214   1.540   1.139  0.00  0.00    -0.284 N 
ATOM      8  N   UNL     1       1.775   2.732  -1.052  0.00  0.00    -0.283 N 
ATOM      9  C   UNL     1      -1.809   1.959  -0.013  0.00  0.00    +0.105 C 
ATOM     10  C   UNL     1      -0.304   1.723  -0.204  0.00  0.00    +0.183 C 
ATOM     11  C   UNL     1      -1.900   2.550   1.396  0.00  0.00    +0.043 C 
ATOM     12  C   UNL     1      -0.790   1.835   2.150  0.00  0.00    +0.111 C 
ATOM     16  C   UNL     1       0.438   2.920  -0.769  0.00  0.00    +0.240 C 
ATOM     20  C   UNL     1       1.438   0.993   1.461  0.00  0.00    +0.249 C 
ATOM     22  C   UNL     1       2.413   0.763   0.363  0.00  0.00    +0.059 A 
ATOM     23  C   UNL     1       2.597   1.631  -0.727  0.00  0.00    +0.046 A 
ATOM     24  C   UNL     1       3.302  -0.311   0.549  0.00  0.00    +0.024 A 
ATOM     25  C   UNL     1       3.708   1.439  -1.566  0.00  0.00    +0.024 A 
ATOM     26  C   UNL     1       4.372  -0.513  -0.322  0.00  0.00    -0.010 A 
ATOM     27  C   UNL     1       4.583   0.370  -1.373  0.00  0.00    +0.011 A 
ATOM     34  H   UNL     1       2.200   3.445  -1.641  0.00  0.00    +0.155 HD
ENDROOT
BRANCH   9   6
ATOM      4  O   UNL     1      -4.556   1.640  -0.799  0.00  0.00    -0.253 OA
ATOM      6  N   UNL     1      -2.542   0.718  -0.107  0.00  0.00    -0.294 N 
ATOM      7  N   UNL     1      -4.342  -0.654  -0.506  0.00  0.00    -0.297 N 
ATOM     21  C   UNL     1      -3.877   0.659  -0.499  0.00  0.00    +0.300 C 
ATOM     32  H   UNL     1      -2.088  -0.141   0.190  0.00  0.00    +0.151 HD
ATOM     33  H   UNL     1      -3.719  -1.381  -0.170  0.00  0.00    +0.151 HD
BRANCH   7  13
ATOM     13  C   UNL     1      -5.694  -1.012  -0.873  0.00  0.00    +0.074 C 
ATOM     14  C   UNL     1      -5.736  -2.388  -1.546  0.00  0.00    +0.022 C 
ATOM     15  C   UNL     1      -6.628  -0.958   0.341  0.00  0.00    +0.022 C 
ATOM     17  C   UNL     1      -5.485  -3.529  -0.560  0.00  0.00    +0.002 C 
ATOM     18  C   UNL     1      -6.375  -2.102   1.324  0.00  0.00    +0.002 C 
ATOM     19  C   UNL     1      -6.433  -3.461   0.633  0.00  0.00    +0.000 C 
ENDBRANCH   7  13
ENDBRANCH   9   6
BRANCH  26  28
ATOM      1  S   UNL     1       4.937  -3.114  -0.889  0.00  0.00    -0.097 S 
ATOM     28  C   UNL     1       5.271  -1.622  -0.118  0.00  0.00    +0.019 A 
ATOM     29  C   UNL     1       6.422  -1.680   0.640  0.00  0.00    +0.016 A 
ATOM     30  C   UNL     1       7.035  -2.965   0.586  0.00  0.00    +0.008 A 
ATOM     31  C   UNL     1       6.331  -3.841  -0.211  0.00  0.00    +0.046 A 
ENDBRANCH  26  28
TORSDOF 3
