REMARK  Name = 26743118
REMARK  9 active torsions:
REMARK  status: ('A' for Active; 'I' for Inactive)
REMARK    1  A    between atoms: S_1  and  C_21
REMARK    2  A    between atoms: S_1  and  C_28
REMARK    3  A    between atoms: N_7  and  C_20
REMARK    4  A    between atoms: C_9  and  C_15
REMARK    5  A    between atoms: C_10  and  C_14
REMARK    6  A    between atoms: C_14  and  C_16
REMARK    7  A    between atoms: C_15  and  C_17
REMARK    8  A    between atoms: C_19  and  C_21
REMARK    9  A    between atoms: C_20  and  C_22
REMARK                            x       y       z     vdW  Elec       q    Type
REMARK                         _______ _______ _______ _____ _____    ______ ____
ROOT
ATOM      6  N   UNL     1      -2.219  -3.490  -0.364  0.00  0.00    -0.316 NA
ATOM      9  C   UNL     1       0.481  -3.491   0.825  0.00  0.00    +0.004 C 
ATOM     10  C   UNL     1      -0.326  -2.193   0.584  0.00  0.00    +0.012 C 
ATOM     11  C   UNL     1      -0.495  -4.673   0.951  0.00  0.00    +0.019 C 
ATOM     12  C   UNL     1      -1.324  -2.352  -0.575  0.00  0.00    +0.085 C 
ATOM     13  C   UNL     1      -1.480  -4.742  -0.215  0.00  0.00    +0.081 C 
ATOM     35  H   UNL     1      -2.859  -3.567  -1.154  0.00  0.00    +0.122 HD
ENDROOT
BRANCH  10  14
ATOM     14  C   UNL     1       0.561  -0.967   0.364  0.00  0.00    +0.064 C 
BRANCH  14  16
ATOM      3  O   UNL     1      -0.923   1.968   1.826  0.00  0.00    -0.359 OA
ATOM      8  N   UNL     1      -0.156   0.812   1.899  0.00  0.00    -0.083 NA
ATOM     16  C   UNL     1      -0.178   0.304   0.663  0.00  0.00    +0.084 A 
ATOM     18  C   UNL     1      -0.936   1.089  -0.223  0.00  0.00    +0.071 A 
ATOM     19  C   UNL     1      -1.383   2.122   0.558  0.00  0.00    +0.148 A 
BRANCH  19  21
ATOM     21  C   UNL     1      -2.218   3.302   0.303  0.00  0.00    +0.151 C 
BRANCH  21   1
ATOM      1  S   UNL     1      -3.925   3.127   0.931  0.00  0.00    -0.117 S 
BRANCH   1  28
ATOM     28  C   UNL     1      -4.440   1.627   0.107  0.00  0.00    +0.008 A 
ATOM     30  C   UNL     1      -4.455   1.567  -1.286  0.00  0.00    +0.015 A 
ATOM     31  C   UNL     1      -4.828   0.517   0.858  0.00  0.00    +0.015 A 
ATOM     32  C   UNL     1      -4.858   0.396  -1.929  0.00  0.00    +0.001 A 
ATOM     33  C   UNL     1      -5.230  -0.653   0.215  0.00  0.00    +0.001 A 
ATOM     34  C   UNL     1      -5.245  -0.714  -1.179  0.00  0.00    +0.000 A 
ENDBRANCH   1  28
ENDBRANCH  21   1
ENDBRANCH  19  21
ENDBRANCH  14  16
ENDBRANCH  10  14
BRANCH   9  15
ATOM     15  C   UNL     1       1.544  -3.772  -0.244  0.00  0.00    +0.099 C 
BRANCH  15  17
ATOM      2  O   UNL     1       3.477  -2.989   0.981  0.00  0.00    -0.276 OA
ATOM      7  N   UNL     1       3.056  -2.148  -1.145  0.00  0.00    -0.311 N 
ATOM     17  C   UNL     1       2.795  -2.946  -0.040  0.00  0.00    +0.214 C 
ATOM     36  H   UNL     1       2.430  -2.174  -1.944  0.00  0.00    +0.149 HD
BRANCH   7  20
ATOM     20  C   UNL     1       4.188  -1.254  -1.223  0.00  0.00    +0.139 C 
BRANCH  20  22
ATOM      4  O   UNL     1       2.079   3.207  -1.544  0.00  0.00    -0.453 OA
ATOM      5  O   UNL     1       2.892   3.877   0.623  0.00  0.00    -0.453 OA
ATOM     22  C   UNL     1       3.861   0.114  -0.698  0.00  0.00    -0.027 A 
ATOM     23  C   UNL     1       3.087   0.985  -1.468  0.00  0.00    +0.054 A 
ATOM     24  C   UNL     1       4.336   0.505   0.566  0.00  0.00    +0.009 A 
ATOM     25  C   UNL     1       2.811   2.231  -0.942  0.00  0.00    +0.167 A 
ATOM     26  C   UNL     1       3.276   2.614   0.295  0.00  0.00    +0.166 A 
ATOM     27  C   UNL     1       4.042   1.772   1.075  0.00  0.00    +0.050 A 
ATOM     29  C   UNL     1       2.134   4.247  -0.547  0.00  0.00    +0.466 C 
ENDBRANCH  20  22
ENDBRANCH   7  20
ENDBRANCH  15  17
ENDBRANCH   9  15
TORSDOF 9
