REMARK  Name = 11886313
REMARK  9 active torsions:
REMARK  status: ('A' for Active; 'I' for Inactive)
REMARK    1  A    between atoms: S_1  and  C_23
REMARK    2  A    between atoms: S_1  and  C_27
REMARK    3  A    between atoms: O_4  and  C_21
REMARK    4  A    between atoms: O_4  and  C_24
REMARK    5  A    between atoms: O_8  and  C_32
REMARK    6  A    between atoms: N_10  and  C_17
REMARK    7  A    between atoms: N_11  and  C_18
REMARK    8  A    between atoms: C_22  and  C_23
REMARK    9  A    between atoms: C_27  and  C_32
REMARK                            x       y       z     vdW  Elec       q    Type
REMARK                         _______ _______ _______ _____ _____    ______ ____
ROOT
ATOM      2  O   UNL     1       2.905  -0.787   1.672  0.00  0.00    -0.370 OA
ATOM      3  O   UNL     1       3.753  -1.735  -1.205  0.00  0.00    -0.370 OA
ATOM     15  C   UNL     1       2.920  -0.671  -0.710  0.00  0.00    +0.176 C 
ATOM     16  C   UNL     1       2.183  -1.207   0.503  0.00  0.00    +0.171 C 
ATOM     17  C   UNL     1       3.784   0.453  -0.170  0.00  0.00    +0.171 C 
ATOM     18  C   UNL     1       2.258  -2.709   0.352  0.00  0.00    +0.130 C 
ATOM     19  C   UNL     1       4.004   0.048   1.283  0.00  0.00    +0.190 C 
ATOM     20  C   UNL     1       3.573  -2.896  -0.382  0.00  0.00    +0.185 C 
ENDROOT
BRANCH  17  10
ATOM     10  N   UNL     1       3.175   1.772  -0.362  0.00  0.00    -0.187 N 
ATOM     12  N   UNL     1       3.802   2.731  -1.056  0.00  0.00    -0.041 NA
ATOM     13  N   UNL     1       1.833   3.475  -0.320  0.00  0.00    -0.071 NA
ATOM     14  N   UNL     1       2.977   3.770  -1.028  0.00  0.00    -0.020 NA
ATOM     21  C   UNL     1       1.977   2.233   0.082  0.00  0.00    +0.342 A 
BRANCH  21   4
ATOM      4  O   UNL     1       1.118   1.532   0.799  0.00  0.00    -0.423 OA
BRANCH   4  24
ATOM      6  O   UNL     1      -3.015   2.260  -1.622  0.00  0.00    -0.452 OA
ATOM      7  O   UNL     1      -4.298   2.357   0.416  0.00  0.00    -0.453 OA
ATOM     24  C   UNL     1      -0.253   1.740   0.736  0.00  0.00    +0.136 A 
ATOM     25  C   UNL     1      -0.876   1.889  -0.505  0.00  0.00    +0.096 A 
ATOM     26  C   UNL     1      -1.001   1.796   1.925  0.00  0.00    +0.050 A 
ATOM     28  C   UNL     1      -2.241   2.093  -0.515  0.00  0.00    +0.170 A 
ATOM     29  C   UNL     1      -2.974   2.148   0.648  0.00  0.00    +0.166 A 
ATOM     30  C   UNL     1      -2.382   2.003   1.887  0.00  0.00    +0.053 A 
ATOM     31  C   UNL     1      -4.317   2.426  -1.025  0.00  0.00    +0.466 C 
ENDBRANCH   4  24
ENDBRANCH  21   4
ENDBRANCH  17  10
BRANCH  18  11
ATOM      5  O   UNL     1      -0.248  -3.761   1.351  0.00  0.00    -0.275 OA
ATOM     11  N   UNL     1       1.150  -3.212  -0.424  0.00  0.00    -0.307 N 
ATOM     22  C   UNL     1      -0.018  -3.699   0.144  0.00  0.00    +0.223 C 
ATOM     33  H   UNL     1       1.213  -3.150  -1.436  0.00  0.00    +0.149 HD
BRANCH  22  23
ATOM     23  C   UNL     1      -1.017  -4.183  -0.881  0.00  0.00    +0.165 C 
BRANCH  23   1
ATOM      1  S   UNL     1      -2.073  -2.799  -1.370  0.00  0.00    -0.140 S 
BRANCH   1  27
ATOM     27  C   UNL     1      -3.203  -2.810   0.042  0.00  0.00    +0.189 C 
BRANCH  27  32
ATOM      9  O   UNL     1      -4.612  -1.304  -1.206  0.00  0.00    -0.250 OA
ATOM     32  C   UNL     1      -4.218  -1.716  -0.122  0.00  0.00    +0.315 C 
BRANCH  32   8
ATOM      8  O   UNL     1      -4.669  -1.236   1.065  0.00  0.00    -0.480 OA
ATOM     34  H   UNL     1      -5.332  -0.524   0.943  0.00  0.00    +0.295 HD
ENDBRANCH  32   8
ENDBRANCH  27  32
ENDBRANCH   1  27
ENDBRANCH  23   1
ENDBRANCH  22  23
ENDBRANCH  18  11
TORSDOF 9
