REMARK  Name = 45784258
REMARK  6 active torsions:
REMARK  status: ('A' for Active; 'I' for Inactive)
REMARK    1  A    between atoms: O_4  and  C_28
REMARK    2  A    between atoms: N_6  and  C_14
REMARK    3  A    between atoms: C_9  and  C_13
REMARK    4  A    between atoms: C_14  and  C_15
REMARK    5  A    between atoms: C_22  and  C_27
REMARK    6  A    between atoms: C_26  and  C_28
REMARK                            x       y       z     vdW  Elec       q    Type
REMARK                         _______ _______ _______ _____ _____    ______ ____
ROOT
ATOM      6  N   UNL     1      -1.951  -0.218  -0.229  0.00  0.00    -0.297 NA
ATOM      9  C   UNL     1       0.234  -0.695   0.476  0.00  0.00    +0.070 C 
ATOM     10  C   UNL     1      -0.520   0.039   1.599  0.00  0.00    +0.028 C 
ATOM     11  C   UNL     1      -0.616  -0.462  -0.780  0.00  0.00    +0.096 C 
ATOM     12  C   UNL     1      -1.730   0.664   0.917  0.00  0.00    +0.085 C 
ENDROOT
BRANCH   9  13
ATOM      7  N   UNL     1       2.699  -1.169   0.432  0.00  0.00    -0.342 N 
ATOM      8  N   UNL     1       2.111   0.933   0.011  0.00  0.00    -0.232 NA
ATOM     13  C   UNL     1       1.675  -0.273   0.299  0.00  0.00    +0.113 A 
ATOM     16  C   UNL     1       3.874  -0.497   0.215  0.00  0.00    +0.067 A 
ATOM     17  C   UNL     1       3.481   0.813  -0.045  0.00  0.00    +0.089 A 
ATOM     18  C   UNL     1       5.207  -0.909   0.224  0.00  0.00    +0.040 A 
ATOM     21  C   UNL     1       4.462   1.782  -0.314  0.00  0.00    +0.030 A 
ATOM     22  C   UNL     1       6.170   0.068  -0.046  0.00  0.00    +0.057 A 
ATOM     23  C   UNL     1       5.806   1.391  -0.310  0.00  0.00    +0.014 A 
ATOM     29  H   UNL     1       2.610  -2.153   0.650  0.00  0.00    +0.167 HD
BRANCH  22  27
ATOM      1  F   UNL     1       8.052  -0.810   1.142  0.00  0.00    -0.166 F 
ATOM      2  F   UNL     1       8.432   0.745  -0.329  0.00  0.00    -0.166 F 
ATOM      3  F   UNL     1       7.923  -1.269  -0.974  0.00  0.00    -0.166 F 
ATOM     27  C   UNL     1       7.615  -0.311  -0.051  0.00  0.00    +0.417 C 
ENDBRANCH  22  27
ENDBRANCH   9  13
BRANCH   6  14
ATOM     14  C   UNL     1      -2.858   0.362  -1.208  0.00  0.00    +0.119 C 
BRANCH  14  15
ATOM     15  C   UNL     1      -4.299   0.208  -0.798  0.00  0.00    -0.033 A 
ATOM     19  C   UNL     1      -4.933  -1.027  -0.933  0.00  0.00    +0.006 A 
ATOM     20  C   UNL     1      -4.998   1.299  -0.283  0.00  0.00    +0.006 A 
ATOM     24  C   UNL     1      -6.268  -1.170  -0.553  0.00  0.00    +0.015 A 
ATOM     25  C   UNL     1      -6.333   1.156   0.096  0.00  0.00    +0.015 A 
ATOM     26  C   UNL     1      -6.968  -0.079  -0.038  0.00  0.00    +0.059 A 
BRANCH  26  28
ATOM      5  O   UNL     1      -9.017  -1.271   0.283  0.00  0.00    -0.245 OA
ATOM     28  C   UNL     1      -8.359  -0.228   0.358  0.00  0.00    +0.337 C 
BRANCH  28   4
ATOM      4  O   UNL     1      -8.890   0.930   0.839  0.00  0.00    -0.477 OA
ATOM     30  H   UNL     1      -9.828   0.818   1.104  0.00  0.00    +0.295 HD
ENDBRANCH  28   4
ENDBRANCH  26  28
ENDBRANCH  14  15
ENDBRANCH   6  14
TORSDOF 6
