REMARK  Name = 11879564
REMARK  8 active torsions:
REMARK  status: ('A' for Active; 'I' for Inactive)
REMARK    1  A    between atoms: O_3  and  C_18
REMARK    2  A    between atoms: O_3  and  C_21
REMARK    3  A    between atoms: N_6  and  C_14
REMARK    4  A    between atoms: N_7  and  C_15
REMARK    5  A    between atoms: N_11  and  C_27
REMARK    6  A    between atoms: N_11  and  C_30
REMARK    7  A    between atoms: N_11  and  C_31
REMARK    8  A    between atoms: C_19  and  C_20
REMARK                            x       y       z     vdW  Elec       q    Type
REMARK                         _______ _______ _______ _____ _____    ______ ____
ROOT
ATOM      1  O   UNL     1      -1.915  -2.920   0.182  0.00  0.00    -0.370 OA
ATOM      2  O   UNL     1      -1.625  -0.470  -1.769  0.00  0.00    -0.370 OA
ATOM     12  C   UNL     1      -1.224  -0.716  -0.409  0.00  0.00    +0.176 C 
ATOM     13  C   UNL     1      -2.318  -1.542   0.238  0.00  0.00    +0.171 C 
ATOM     14  C   UNL     1       0.000  -1.611  -0.386  0.00  0.00    +0.171 C 
ATOM     15  C   UNL     1      -3.528  -1.314  -0.640  0.00  0.00    +0.130 C 
ATOM     16  C   UNL     1      -0.600  -3.013  -0.384  0.00  0.00    +0.190 C 
ATOM     17  C   UNL     1      -2.900  -1.084  -2.002  0.00  0.00    +0.185 C 
ENDROOT
BRANCH  14   6
ATOM      6  N   UNL     1       0.891  -1.316   0.739  0.00  0.00    -0.187 N 
ATOM      8  N   UNL     1       0.449  -1.380   1.999  0.00  0.00    -0.041 NA
ATOM      9  N   UNL     1       2.599  -0.792   1.955  0.00  0.00    -0.071 NA
ATOM     10  N   UNL     1       1.501  -1.058   2.741  0.00  0.00    -0.020 NA
ATOM     18  C   UNL     1       2.196  -0.959   0.716  0.00  0.00    +0.342 A 
BRANCH  18   3
ATOM      3  O   UNL     1       2.922  -0.809  -0.376  0.00  0.00    -0.423 OA
BRANCH   3  21
ATOM     21  C   UNL     1       4.259  -0.439  -0.341  0.00  0.00    +0.134 A 
ATOM     24  C   UNL     1       4.585   0.903  -0.377  0.00  0.00    +0.069 A 
ATOM     26  C   UNL     1       5.226  -1.424  -0.271  0.00  0.00    +0.046 A 
ATOM     27  C   UNL     1       5.929   1.275  -0.341  0.00  0.00    +0.033 A 
ATOM     28  C   UNL     1       6.570  -1.052  -0.235  0.00  0.00    +0.005 A 
ATOM     29  C   UNL     1       6.921   0.297  -0.270  0.00  0.00    +0.023 A 
BRANCH  27  11
ATOM     11  N   UNL     1       6.285   2.639  -0.376  0.00  0.00    -0.336 N 
ATOM     30  C   UNL     1       5.394   3.644   0.170  0.00  0.00    +0.129 C 
ATOM     31  C   UNL     1       7.540   3.055  -0.970  0.00  0.00    +0.129 C 
ENDBRANCH  27  11
ENDBRANCH   3  21
ENDBRANCH  18   3
ENDBRANCH  14   6
BRANCH  15   7
ATOM      4  O   UNL     1      -6.323  -0.821  -1.076  0.00  0.00    -0.267 OA
ATOM      7  N   UNL     1      -4.277  -0.159  -0.208  0.00  0.00    -0.301 N 
ATOM     19  C   UNL     1      -5.631  -0.009  -0.467  0.00  0.00    +0.280 C 
ATOM     32  H   UNL     1      -3.780   0.593   0.262  0.00  0.00    +0.150 HD
BRANCH  19  20
ATOM      5  O   UNL     1      -5.430   2.086   0.652  0.00  0.00    -0.458 OA
ATOM     20  C   UNL     1      -6.251   1.250   0.022  0.00  0.00    +0.189 A 
ATOM     22  C   UNL     1      -7.514   1.669  -0.077  0.00  0.00    +0.054 A 
ATOM     23  C   UNL     1      -7.512   2.930   0.567  0.00  0.00    +0.042 A 
ATOM     25  C   UNL     1      -6.220   3.138   0.993  0.00  0.00    +0.196 A 
ENDBRANCH  19  20
ENDBRANCH  15   7
TORSDOF 6
