REMARK  Name = 45784268
REMARK  4 active torsions:
REMARK  status: ('A' for Active; 'I' for Inactive)
REMARK    1  A    between atoms: N_4  and  C_13
REMARK    2  A    between atoms: C_8  and  C_12
REMARK    3  A    between atoms: C_13  and  C_16
REMARK    4  A    between atoms: C_19  and  C_22
REMARK                            x       y       z     vdW  Elec       q    Type
REMARK                         _______ _______ _______ _____ _____    ______ ____
ROOT
ATOM      5  N   UNL     1       1.661  -1.190   0.419  0.00  0.00    -0.342 N 
ATOM      6  N   UNL     1       1.039   0.915   0.071  0.00  0.00    -0.232 NA
ATOM     12  C   UNL     1       0.624  -0.303   0.337  0.00  0.00    +0.113 A 
ATOM     14  C   UNL     1       2.823  -0.499   0.192  0.00  0.00    +0.067 A 
ATOM     15  C   UNL     1       2.408   0.813  -0.023  0.00  0.00    +0.089 A 
ATOM     17  C   UNL     1       4.160  -0.896   0.156  0.00  0.00    +0.040 A 
ATOM     18  C   UNL     1       3.372   1.800  -0.290  0.00  0.00    +0.030 A 
ATOM     19  C   UNL     1       5.105   0.100  -0.112  0.00  0.00    +0.057 A 
ATOM     21  C   UNL     1       4.720   1.425  -0.331  0.00  0.00    +0.014 A 
ATOM     26  H   UNL     1       1.588  -2.180   0.613  0.00  0.00    +0.167 HD
ENDROOT
BRANCH  12   8
ATOM      4  N   UNL     1      -3.014  -0.276  -0.097  0.00  0.00    -0.296 NA
ATOM      8  C   UNL     1      -0.807  -0.746   0.539  0.00  0.00    +0.070 C 
ATOM      9  C   UNL     1      -1.540  -0.052   1.700  0.00  0.00    +0.028 C 
ATOM     10  C   UNL     1      -1.692  -0.490  -0.688  0.00  0.00    +0.096 C 
ATOM     11  C   UNL     1      -2.774   0.578   1.067  0.00  0.00    +0.085 C 
BRANCH   4  13
ATOM     13  C   UNL     1      -3.953   0.320  -1.037  0.00  0.00    +0.139 C 
BRANCH  13  16
ATOM      7  N   UNL     1      -5.992   1.218  -0.060  0.00  0.00    -0.259 NA
ATOM     16  C   UNL     1      -5.380   0.137  -0.595  0.00  0.00    +0.055 A 
ATOM     20  C   UNL     1      -5.987  -1.098  -0.752  0.00  0.00    +0.024 A 
ATOM     23  C   UNL     1      -7.307  -1.233  -0.335  0.00  0.00    +0.003 A 
ATOM     24  C   UNL     1      -7.274   1.049   0.334  0.00  0.00    +0.111 A 
ATOM     25  C   UNL     1      -7.970  -0.144   0.219  0.00  0.00    +0.020 A 
ENDBRANCH  13  16
ENDBRANCH   4  13
ENDBRANCH  12   8
BRANCH  19  22
ATOM      1  F   UNL     1       7.351   0.811  -0.434  0.00  0.00    -0.166 F 
ATOM      2  F   UNL     1       7.026  -0.788   1.004  0.00  0.00    -0.166 F 
ATOM      3  F   UNL     1       6.848  -1.191  -1.120  0.00  0.00    -0.166 F 
ATOM     22  C   UNL     1       6.553  -0.262  -0.164  0.00  0.00    +0.417 C 
ENDBRANCH  19  22
TORSDOF 4
