REMARK  Name = 51136636
REMARK  12 active torsions:
REMARK  status: ('A' for Active; 'I' for Inactive)
REMARK    1  A    between atoms: S_1  and  N_8
REMARK    2  A    between atoms: S_1  and  C_21
REMARK    3  A    between atoms: O_4  and  C_19
REMARK    4  A    between atoms: O_6  and  C_29
REMARK    5  A    between atoms: O_6  and  C_35
REMARK    6  A    between atoms: O_7  and  C_30
REMARK    7  A    between atoms: O_7  and  C_36
REMARK    8  A    between atoms: C_11  and  C_16
REMARK    9  A    between atoms: C_12  and  C_17
REMARK   10  A    between atoms: C_16  and  C_18
REMARK   11  A    between atoms: C_17  and  C_19
REMARK   12  A    between atoms: C_31  and  C_34
REMARK                            x       y       z     vdW  Elec       q    Type
REMARK                         _______ _______ _______ _____ _____    ______ ____
ROOT
ATOM      8  N   UNL     1      -0.874  -0.089  -0.858  0.00  0.00    -0.176 NA
ATOM     11  C   UNL     1      -0.799  -1.934   0.805  0.00  0.00    +0.014 C 
ATOM     12  C   UNL     1      -1.822  -2.719  -0.052  0.00  0.00    +0.006 C 
ATOM     13  C   UNL     1      -0.990  -0.424   0.593  0.00  0.00    +0.113 C 
ATOM     14  C   UNL     1      -1.764  -2.291  -1.526  0.00  0.00    +0.021 C 
ATOM     15  C   UNL     1      -1.911  -0.780  -1.676  0.00  0.00    +0.110 C 
ENDROOT
BRANCH   8   1
ATOM      1  S   UNL     1      -0.650   1.573  -1.210  0.00  0.00    +0.061 S 
ATOM      2  O   UNL     1      -0.412   1.725  -2.630  0.00  0.00    -0.153 OA
ATOM      3  O   UNL     1       0.258   2.140  -0.237  0.00  0.00    -0.153 OA
BRANCH   1  21
ATOM     21  C   UNL     1      -2.270   2.182  -0.864  0.00  0.00    +0.107 A 
ATOM     26  C   UNL     1      -2.590   2.622   0.420  0.00  0.00    +0.047 A 
ATOM     27  C   UNL     1      -3.230   2.222  -1.875  0.00  0.00    +0.028 A 
ATOM     31  C   UNL     1      -3.871   3.103   0.693  0.00  0.00    +0.054 A 
ATOM     32  C   UNL     1      -4.511   2.703  -1.602  0.00  0.00    +0.003 A 
ATOM     33  C   UNL     1      -4.831   3.143  -0.318  0.00  0.00    +0.019 A 
BRANCH  31  34
ATOM     10  N   UNL     1      -4.466   3.921   3.077  0.00  0.00    -0.191 NA
ATOM     34  C   UNL     1      -4.200   3.554   2.008  0.00  0.00    +0.099 C 
ENDBRANCH  31  34
ENDBRANCH   1  21
ENDBRANCH   8   1
BRANCH  11  16
ATOM     16  C   UNL     1       0.661  -2.333   0.557  0.00  0.00    +0.060 C 
BRANCH  16  18
ATOM      9  N   UNL     1       1.399  -1.627   2.731  0.00  0.00    -0.287 NA
ATOM     18  C   UNL     1       1.571  -1.529   1.454  0.00  0.00    +0.044 C 
ATOM     20  C   UNL     1       2.607  -0.665   0.832  0.00  0.00    +0.003 A 
ATOM     22  C   UNL     1       3.159   0.339   1.639  0.00  0.00    -0.033 A 
ATOM     23  C   UNL     1       2.666   0.483   3.048  0.00  0.00    +0.059 C 
ATOM     24  C   UNL     1       2.322  -0.893   3.603  0.00  0.00    +0.146 C 
ATOM     25  C   UNL     1       3.019  -0.815  -0.493  0.00  0.00    +0.059 A 
ATOM     28  C   UNL     1       4.110   1.211   1.101  0.00  0.00    +0.053 A 
ATOM     29  C   UNL     1       3.980   0.051  -1.016  0.00  0.00    +0.162 A 
ATOM     30  C   UNL     1       4.522   1.063  -0.223  0.00  0.00    +0.162 A 
BRANCH  29   6
ATOM      6  O   UNL     1       4.381  -0.099  -2.311  0.00  0.00    -0.491 OA
ATOM     35  C   UNL     1       3.650   0.619  -3.302  0.00  0.00    +0.277 C 
ENDBRANCH  29   6
BRANCH  30   7
ATOM      7  O   UNL     1       5.455   1.915  -0.732  0.00  0.00    -0.491 OA
ATOM     36  C   UNL     1       6.823   1.533  -0.600  0.00  0.00    +0.277 C 
ENDBRANCH  30   7
ENDBRANCH  16  18
ENDBRANCH  11  16
BRANCH  12  17
ATOM     17  C   UNL     1      -1.676  -4.235   0.076  0.00  0.00    +0.124 C 
BRANCH  17  19
ATOM      5  O   UNL     1      -3.991  -4.431  -0.659  0.00  0.00    -0.251 OA
ATOM     19  C   UNL     1      -2.947  -4.948  -0.293  0.00  0.00    +0.305 C 
BRANCH  19   4
ATOM      4  O   UNL     1      -2.775  -6.289  -0.161  0.00  0.00    -0.481 OA
ATOM     37  H   UNL     1      -3.587  -6.787  -0.394  0.00  0.00    +0.295 HD
ENDBRANCH  19   4
ENDBRANCH  17  19
ENDBRANCH  12  17
TORSDOF 10
