REMARK  Name = 45360646
REMARK  8 active torsions:
REMARK  status: ('A' for Active; 'I' for Inactive)
REMARK    1  A    between atoms: O_3  and  C_32
REMARK    2  A    between atoms: O_3  and  C_33
REMARK    3  A    between atoms: N_6  and  C_9
REMARK    4  A    between atoms: N_6  and  C_17
REMARK    5  A    between atoms: C_10  and  C_14
REMARK    6  A    between atoms: C_14  and  C_16
REMARK    7  A    between atoms: C_16  and  C_18
REMARK    8  A    between atoms: C_17  and  C_19
REMARK                            x       y       z     vdW  Elec       q    Type
REMARK                         _______ _______ _______ _____ _____    ______ ____
ROOT
ATOM      1  O   UNL     1       2.293   5.064   0.558  0.00  0.00    -0.274 OA
ATOM      4  N   UNL     1      -0.077   2.298   0.322  0.00  0.00    -0.286 NA
ATOM      5  N   UNL     1       0.559   4.752  -0.880  0.00  0.00    -0.313 N 
ATOM      8  C   UNL     1       0.906   3.155   0.997  0.00  0.00    +0.145 C 
ATOM      9  C   UNL     1       1.712   0.894   0.630  0.00  0.00    +0.070 C 
ATOM     10  C   UNL     1      -1.116   3.027  -0.396  0.00  0.00    +0.075 C 
ATOM     11  C   UNL     1       2.110   2.234   1.249  0.00  0.00    +0.048 C 
ATOM     12  C   UNL     1       0.670   1.279  -0.411  0.00  0.00    +0.104 C 
ATOM     13  C   UNL     1      -0.507   3.952  -1.438  0.00  0.00    +0.123 C 
ATOM     15  C   UNL     1       1.326   4.385   0.199  0.00  0.00    +0.230 C 
ATOM     34  H   UNL     1       0.837   5.585  -1.391  0.00  0.00    +0.149 HD
ENDROOT
BRANCH   9   6
ATOM      6  N   UNL     1       2.841   0.162   0.078  0.00  0.00    -0.308 NA
ATOM     35  H   UNL     1       2.495  -0.531  -0.586  0.00  0.00    +0.123 HD
BRANCH   6  17
ATOM     17  C   UNL     1       3.587  -0.520   1.128  0.00  0.00    +0.116 C 
BRANCH  17  19
ATOM     19  C   UNL     1       4.769  -1.272   0.578  0.00  0.00    -0.033 A 
ATOM     24  C   UNL     1       4.578  -2.487  -0.081  0.00  0.00    +0.008 A 
ATOM     25  C   UNL     1       6.056  -0.755   0.728  0.00  0.00    +0.008 A 
ATOM     28  C   UNL     1       5.674  -3.183  -0.591  0.00  0.00    +0.046 A 
ATOM     29  C   UNL     1       7.151  -1.452   0.218  0.00  0.00    +0.046 A 
ATOM     32  C   UNL     1       6.960  -2.666  -0.441  0.00  0.00    +0.120 A 
BRANCH  32   3
ATOM      3  O   UNL     1       8.029  -3.345  -0.939  0.00  0.00    -0.495 OA
ATOM     33  C   UNL     1       9.316  -2.759  -0.751  0.00  0.00    +0.277 C 
ENDBRANCH  32   3
ENDBRANCH  17  19
ENDBRANCH   6  17
ENDBRANCH   9   6
BRANCH  10  14
ATOM     14  C   UNL     1      -2.161   2.104  -1.026  0.00  0.00    +0.029 C 
BRANCH  14  16
ATOM     16  C   UNL     1      -2.843   1.212   0.001  0.00  0.00    +0.098 C 
BRANCH  16  18
ATOM      2  O   UNL     1      -4.094   0.441  -1.859  0.00  0.00    -0.275 OA
ATOM      7  N   UNL     1      -4.572  -0.499   0.223  0.00  0.00    -0.271 N 
ATOM     18  C   UNL     1      -3.899   0.348  -0.646  0.00  0.00    +0.220 C 
ATOM     20  C   UNL     1      -4.336  -0.609   1.679  0.00  0.00    +0.118 C 
ATOM     21  C   UNL     1      -5.597  -1.402  -0.129  0.00  0.00    +0.039 A 
ATOM     22  C   UNL     1      -5.296  -1.669   2.229  0.00  0.00    +0.056 C 
ATOM     23  C   UNL     1      -6.038  -2.090   1.003  0.00  0.00    -0.024 A 
ATOM     26  C   UNL     1      -6.161  -1.652  -1.372  0.00  0.00    +0.024 A 
ATOM     27  C   UNL     1      -7.045  -3.040   0.923  0.00  0.00    +0.005 A 
ATOM     30  C   UNL     1      -7.178  -2.608  -1.461  0.00  0.00    +0.002 A 
ATOM     31  C   UNL     1      -7.617  -3.297  -0.323  0.00  0.00    +0.000 A 
ENDBRANCH  16  18
ENDBRANCH  14  16
ENDBRANCH  10  14
TORSDOF 7
