REMARK  Name = 71692924
REMARK  9 active torsions:
REMARK  status: ('A' for Active; 'I' for Inactive)
REMARK    1  A    between atoms: N_5  and  C_14
REMARK    2  A    between atoms: N_7  and  C_30
REMARK    3  A    between atoms: N_7  and  C_32
REMARK    4  A    between atoms: N_7  and  C_33
REMARK    5  A    between atoms: C_9  and  C_14
REMARK    6  A    between atoms: C_12  and  C_17
REMARK    7  A    between atoms: C_17  and  C_19
REMARK    8  A    between atoms: C_32  and  C_34
REMARK    9  A    between atoms: C_34  and  C_35
REMARK                            x       y       z     vdW  Elec       q    Type
REMARK                         _______ _______ _______ _____ _____    ______ ____
ROOT
ATOM      2  O   UNL     1       0.184   3.444   1.214  0.00  0.00    -0.274 OA
ATOM      3  O   UNL     1       0.294  -1.851   0.882  0.00  0.00    -0.488 OA
ATOM      4  N   UNL     1       1.991   2.078   1.692  0.00  0.00    -0.300 N 
ATOM      6  N   UNL     1      -0.663   0.463   2.364  0.00  0.00    -0.304 NA
ATOM     12  C   UNL     1       3.726   0.471  -0.013  0.00  0.00    +0.008 C 
ATOM     13  C   UNL     1       2.773  -0.139   1.058  0.00  0.00    +0.032 C 
ATOM     15  C   UNL     1       3.180   1.851  -0.450  0.00  0.00    +0.023 C 
ATOM     16  C   UNL     1       2.568   0.841   2.229  0.00  0.00    +0.115 C 
ATOM     18  C   UNL     1       2.866   2.765   0.738  0.00  0.00    +0.108 C 
ATOM     20  C   UNL     1       3.190  -1.499   1.550  0.00  0.00    -0.023 C 
ATOM     21  C   UNL     1       0.668   2.492   1.839  0.00  0.00    +0.229 C 
ATOM     22  C   UNL     1       2.514  -2.659   1.490  0.00  0.00    +0.010 C 
ATOM     23  C   UNL     1      -0.215   1.769   2.839  0.00  0.00    +0.178 C 
ATOM     24  C   UNL     1       1.135  -2.994   0.982  0.00  0.00    +0.256 C 
ATOM     25  C   UNL     1      -1.314   0.469   1.056  0.00  0.00    +0.120 C 
ATOM     26  C   UNL     1      -1.863  -0.900   0.692  0.00  0.00    +0.010 A 
ATOM     27  C   UNL     1      -1.036  -2.042   0.599  0.00  0.00    +0.125 A 
ATOM     28  C   UNL     1      -3.234  -1.027   0.414  0.00  0.00    +0.031 A 
ATOM     29  C   UNL     1      -1.592  -3.273   0.230  0.00  0.00    +0.048 A 
ATOM     30  C   UNL     1      -3.777  -2.259   0.054  0.00  0.00    +0.030 A 
ATOM     31  C   UNL     1      -2.957  -3.378  -0.039  0.00  0.00    +0.027 A 
ATOM     41  H   UNL     1      -1.298   0.068   3.058  0.00  0.00    +0.123 HD
ENDROOT
BRANCH  30   7
ATOM      7  N   UNL     1      -5.156  -2.369  -0.220  0.00  0.00    -0.333 N 
ATOM     33  C   UNL     1      -5.730  -3.645  -0.600  0.00  0.00    +0.129 C 
BRANCH   7  32
ATOM     32  C   UNL     1      -6.020  -1.209  -0.118  0.00  0.00    +0.111 C 
BRANCH  32  34
ATOM     34  C   UNL     1      -5.962  -0.371  -1.395  0.00  0.00    +0.074 C 
BRANCH  34  35
ATOM      8  N   UNL     1      -8.136   0.641  -1.822  0.00  0.00    -0.260 NA
ATOM     35  C   UNL     1      -6.880   0.827  -1.359  0.00  0.00    +0.043 A 
ATOM     36  C   UNL     1      -6.406   2.031  -0.864  0.00  0.00    +0.023 A 
ATOM     37  C   UNL     1      -7.277   3.114  -0.843  0.00  0.00    +0.003 A 
ATOM     38  C   UNL     1      -8.955   1.717  -1.787  0.00  0.00    +0.111 A 
ATOM     39  C   UNL     1      -8.578   2.963  -1.311  0.00  0.00    +0.020 A 
ENDBRANCH  34  35
ENDBRANCH  32  34
ENDBRANCH   7  32
ENDBRANCH  30   7
BRANCH  12  17
ATOM     17  C   UNL     1       5.191   0.586   0.426  0.00  0.00    +0.100 C 
BRANCH  17  19
ATOM      1  O   UNL     1       5.757   0.695  -1.923  0.00  0.00    -0.276 OA
ATOM      5  N   UNL     1       7.446   0.820  -0.331  0.00  0.00    -0.315 N 
ATOM     19  C   UNL     1       6.129   0.705  -0.753  0.00  0.00    +0.213 C 
ATOM     40  H   UNL     1       7.652   0.798   0.663  0.00  0.00    +0.149 HD
BRANCH   5  14
ATOM     14  C   UNL     1       8.559   0.947  -1.244  0.00  0.00    +0.107 C 
BRANCH  14   9
ATOM      9  C   UNL     1       9.105  -0.390  -1.615  0.00  0.00    +0.006 C 
ATOM     10  C   UNL     1       9.930  -0.551  -2.862  0.00  0.00    +0.005 C 
ATOM     11  C   UNL     1       8.546  -1.135  -2.796  0.00  0.00    +0.005 C 
ENDBRANCH  14   9
ENDBRANCH   5  14
ENDBRANCH  17  19
ENDBRANCH  12  17
TORSDOF 8
