REMARK  Name = 11884128
REMARK  6 active torsions:
REMARK  status: ('A' for Active; 'I' for Inactive)
REMARK    1  A    between atoms: O_3  and  C_12
REMARK    2  A    between atoms: O_3  and  C_16
REMARK    3  A    between atoms: N_6  and  C_11
REMARK    4  A    between atoms: N_7  and  C_17
REMARK    5  A    between atoms: N_8  and  C_18
REMARK    6  A    between atoms: C_18  and  C_21
REMARK                            x       y       z     vdW  Elec       q    Type
REMARK                         _______ _______ _______ _____ _____    ______ ____
ROOT
ATOM      1  O   UNL     1       2.050  -0.463  -1.282  0.00  0.00    -0.368 OA
ATOM      2  O   UNL     1       1.451  -2.702   0.727  0.00  0.00    -0.368 OA
ATOM      9  C   UNL     1       0.811  -1.430   0.494  0.00  0.00    +0.173 C 
ATOM     10  C   UNL     1       1.907  -0.443   0.148  0.00  0.00    +0.192 C 
ATOM     11  C   UNL     1      -0.029  -1.493  -0.761  0.00  0.00    +0.131 C 
ATOM     12  C   UNL     1       3.111  -1.037   0.839  0.00  0.00    +0.235 C 
ATOM     13  C   UNL     1       1.004  -1.266  -1.851  0.00  0.00    +0.185 C 
ATOM     14  C   UNL     1       2.874  -2.521   0.673  0.00  0.00    +0.207 C 
ENDROOT
BRANCH  11   6
ATOM      4  O   UNL     1      -2.748  -1.744   0.105  0.00  0.00    -0.252 OA
ATOM      6  N   UNL     1      -1.036  -0.460  -0.769  0.00  0.00    -0.292 N 
ATOM      7  N   UNL     1      -3.095   0.509  -0.453  0.00  0.00    -0.269 N 
ATOM     15  C   UNL     1      -2.348  -0.666  -0.327  0.00  0.00    +0.304 C 
ATOM     25  H   UNL     1      -0.764   0.478  -1.049  0.00  0.00    +0.151 HD
ATOM     26  H   UNL     1      -2.609   1.319  -0.832  0.00  0.00    +0.156 HD
BRANCH   7  17
ATOM     17  C   UNL     1      -4.453   0.715  -0.117  0.00  0.00    +0.035 A 
ATOM     19  C   UNL     1      -5.019   1.964  -0.318  0.00  0.00    +0.023 A 
ATOM     20  C   UNL     1      -5.190  -0.336   0.405  0.00  0.00    +0.023 A 
ATOM     22  C   UNL     1      -6.359   2.167   0.013  0.00  0.00    +0.002 A 
ATOM     23  C   UNL     1      -6.530  -0.132   0.736  0.00  0.00    +0.002 A 
ATOM     24  C   UNL     1      -7.114   1.119   0.539  0.00  0.00    +0.000 A 
ENDBRANCH   7  17
ENDBRANCH  11   6
BRANCH  12   3
ATOM      3  O   UNL     1       4.339  -0.630   0.279  0.00  0.00    -0.442 OA
BRANCH   3  16
ATOM      5  O   UNL     1       3.893   1.549   0.851  0.00  0.00    -0.226 OA
ATOM      8  N   UNL     1       5.857   0.968  -0.239  0.00  0.00    -0.281 N 
ATOM     16  C   UNL     1       4.633   0.713   0.343  0.00  0.00    +0.401 C 
ATOM     27  H   UNL     1       6.375   0.185  -0.627  0.00  0.00    +0.152 HD
BRANCH   8  18
ATOM     18  C   UNL     1       6.443   2.285  -0.329  0.00  0.00    +0.104 C 
ATOM     21  C   UNL     1       5.547   3.335   0.293  0.00  0.00    +0.024 C 
ENDBRANCH   8  18
ENDBRANCH   3  16
ENDBRANCH  12   3
TORSDOF 5
