REMARK  Name = 7675197
REMARK  5 active torsions:
REMARK  status: ('A' for Active; 'I' for Inactive)
REMARK    1  A    between atoms: O_4  and  C_26
REMARK    2  A    between atoms: O_4  and  C_28
REMARK    3  A    between atoms: N_7  and  C_14
REMARK    4  A    between atoms: C_14  and  C_16
REMARK    5  A    between atoms: C_15  and  C_17
REMARK                            x       y       z     vdW  Elec       q    Type
REMARK                         _______ _______ _______ _____ _____    ______ ____
ROOT
ATOM      1  O   UNL     1      -1.037  -1.497   1.565  0.00  0.00    -0.273 OA
ATOM      2  O   UNL     1      -3.379   2.404   0.832  0.00  0.00    -0.252 OA
ATOM      3  O   UNL     1       3.165   2.786  -1.386  0.00  0.00    -0.270 OA
ATOM      5  N   UNL     1      -1.098   1.880   0.778  0.00  0.00    -0.271 N 
ATOM      6  N   UNL     1       1.240   1.649  -0.704  0.00  0.00    -0.294 N 
ATOM      7  N   UNL     1      -2.539   0.278   1.329  0.00  0.00    -0.220 N 
ATOM      8  C   UNL     1      -0.252   0.729   1.007  0.00  0.00    +0.181 C 
ATOM      9  C   UNL     1       0.565   0.421  -0.239  0.00  0.00    +0.140 C 
ATOM     10  C   UNL     1      -0.503   3.103   0.267  0.00  0.00    +0.129 C 
ATOM     11  C   UNL     1       0.342   2.783  -0.967  0.00  0.00    +0.127 C 
ATOM     12  C   UNL     1      -1.296  -0.323   1.335  0.00  0.00    +0.245 C 
ATOM     13  C   UNL     1      -2.454   1.615   0.973  0.00  0.00    +0.312 C 
ATOM     15  C   UNL     1       2.608   1.779  -0.952  0.00  0.00    +0.247 C 
ENDROOT
BRANCH  15  17
ATOM     17  C   UNL     1       3.475   0.630  -0.664  0.00  0.00    +0.037 A 
ATOM     20  C   UNL     1       3.719  -0.320  -1.653  0.00  0.00    +0.016 A 
ATOM     21  C   UNL     1       4.050   0.494   0.597  0.00  0.00    +0.016 A 
ATOM     24  C   UNL     1       4.543  -1.412  -1.380  0.00  0.00    +0.046 A 
ATOM     25  C   UNL     1       4.874  -0.598   0.871  0.00  0.00    +0.046 A 
ATOM     26  C   UNL     1       5.120  -1.551  -0.117  0.00  0.00    +0.120 A 
BRANCH  26   4
ATOM      4  O   UNL     1       5.923  -2.617   0.150  0.00  0.00    -0.495 OA
ATOM     28  C   UNL     1       6.480  -2.697   1.461  0.00  0.00    +0.277 C 
ENDBRANCH  26   4
ENDBRANCH  15  17
BRANCH   7  14
ATOM     14  C   UNL     1      -3.775  -0.424   1.609  0.00  0.00    +0.153 C 
BRANCH  14  16
ATOM     16  C   UNL     1      -4.392  -0.993   0.365  0.00  0.00    -0.030 A 
ATOM     18  C   UNL     1      -5.293  -0.229  -0.367  0.00  0.00    +0.005 A 
ATOM     19  C   UNL     1      -4.056  -2.279  -0.044  0.00  0.00    +0.005 A 
ATOM     22  C   UNL     1      -5.867  -0.757  -1.524  0.00  0.00    +0.000 A 
ATOM     23  C   UNL     1      -4.629  -2.807  -1.201  0.00  0.00    +0.000 A 
ATOM     27  C   UNL     1      -5.535  -2.046  -1.941  0.00  0.00    +0.000 A 
ENDBRANCH  14  16
ENDBRANCH   7  14
TORSDOF 4
