REMARK  Name = 28962854
REMARK  11 active torsions:
REMARK  status: ('A' for Active; 'I' for Inactive)
REMARK    1  A    between atoms: O_1  and  C_10
REMARK    2  A    between atoms: O_4  and  C_26
REMARK    3  A    between atoms: O_4  and  C_29
REMARK    4  A    between atoms: N_5  and  C_14
REMARK    5  A    between atoms: N_6  and  C_23
REMARK    6  A    between atoms: C_7  and  C_17
REMARK    7  A    between atoms: C_9  and  C_19
REMARK    8  A    between atoms: C_12  and  C_18
REMARK    9  A    between atoms: C_18  and  C_20
REMARK   10  A    between atoms: C_18  and  C_21
REMARK   11  A    between atoms: C_22  and  C_26
REMARK                            x       y       z     vdW  Elec       q    Type
REMARK                         _______ _______ _______ _____ _____    ______ ____
ROOT
ATOM      7  C   UNL     1       0.531  -0.434  -1.527  0.00  0.00    -0.027 C 
ATOM      8  C   UNL     1       0.665  -0.360   0.031  0.00  0.00    +0.028 C 
ATOM      9  C   UNL     1       2.127  -0.716   0.483  0.00  0.00    +0.012 C 
ATOM     10  C   UNL     1      -0.467  -1.164   0.733  0.00  0.00    +0.122 C 
ATOM     11  C   UNL     1      -0.884   0.031  -1.945  0.00  0.00    +0.007 C 
ATOM     12  C   UNL     1      -1.876  -0.767   0.234  0.00  0.00    +0.029 C 
ATOM     13  C   UNL     1       1.553   0.533  -2.167  0.00  0.00    +0.009 C 
ATOM     14  C   UNL     1       3.152   0.214  -0.225  0.00  0.00    +0.076 C 
ATOM     15  C   UNL     1      -1.994  -0.780  -1.290  0.00  0.00    +0.007 C 
ATOM     16  C   UNL     1       2.988   0.253  -1.744  0.00  0.00    +0.023 C 
ATOM     17  C   UNL     1       0.768  -1.864  -2.076  0.00  0.00    +0.011 C 
ATOM     19  C   UNL     1       2.337  -0.635   2.005  0.00  0.00    +0.010 C 
ENDROOT
BRANCH  14   5
ATOM      3  O   UNL     1       5.441   1.970  -0.014  0.00  0.00    -0.273 OA
ATOM      5  N   UNL     1       4.516  -0.162   0.080  0.00  0.00    -0.310 N 
ATOM     22  C   UNL     1       5.547   0.758   0.159  0.00  0.00    +0.239 C 
ATOM     30  H   UNL     1       4.729  -1.151   0.177  0.00  0.00    +0.149 HD
BRANCH  22  26
ATOM     26  C   UNL     1       6.865   0.091   0.492  0.00  0.00    +0.255 C 
BRANCH  26   4
ATOM      4  O   UNL     1       7.899   1.048   0.581  0.00  0.00    -0.374 OA
ATOM     29  C   UNL     1       9.153   0.448   0.894  0.00  0.00    +0.194 C 
ENDBRANCH  26   4
ENDBRANCH  22  26
ENDBRANCH  14   5
BRANCH  10   1
ATOM      1  O   UNL     1      -0.441  -0.898   2.136  0.00  0.00    -0.391 OA
ATOM     31  H   UNL     1      -0.573   0.056   2.266  0.00  0.00    +0.210 HD
ENDBRANCH  10   1
BRANCH  12  18
ATOM     18  C   UNL     1      -2.966  -1.659   0.840  0.00  0.00    +0.077 C 
ATOM     20  C   UNL     1      -2.717  -3.117   0.471  0.00  0.00    +0.017 C 
BRANCH  18  21
ATOM      2  O   UNL     1      -5.115  -1.924  -0.245  0.00  0.00    -0.276 OA
ATOM      6  N   UNL     1      -4.599   0.127   0.708  0.00  0.00    -0.312 N 
ATOM     21  C   UNL     1      -4.340  -1.193   0.368  0.00  0.00    +0.216 C 
ATOM     32  H   UNL     1      -3.912   0.653   1.237  0.00  0.00    +0.149 HD
BRANCH   6  23
ATOM     23  C   UNL     1      -5.833   0.792   0.368  0.00  0.00    +0.073 C 
ATOM     24  C   UNL     1      -5.726   1.532  -0.959  0.00  0.00    +0.022 C 
ATOM     25  C   UNL     1      -6.168   1.907   1.351  0.00  0.00    +0.022 C 
ATOM     27  C   UNL     1      -5.048   2.854  -0.608  0.00  0.00    +0.002 C 
ATOM     28  C   UNL     1      -5.368   3.115   0.865  0.00  0.00    +0.002 C 
ENDBRANCH   6  23
ENDBRANCH  18  21
ENDBRANCH  12  18
TORSDOF 7
