REMARK  Name = 25389544
REMARK  11 active torsions:
REMARK  status: ('A' for Active; 'I' for Inactive)
REMARK    1  A    between atoms: O_1  and  C_17
REMARK    2  A    between atoms: O_1  and  C_22
REMARK    3  A    between atoms: O_3  and  C_25
REMARK    4  A    between atoms: O_3  and  C_33
REMARK    5  A    between atoms: O_4  and  C_28
REMARK    6  A    between atoms: O_4  and  C_34
REMARK    7  A    between atoms: N_6  and  C_20
REMARK    8  A    between atoms: N_8  and  C_27
REMARK    9  A    between atoms: C_10  and  C_16
REMARK   10  A    between atoms: C_11  and  C_17
REMARK   11  A    between atoms: C_19  and  C_21
REMARK                            x       y       z     vdW  Elec       q    Type
REMARK                         _______ _______ _______ _____ _____    ______ ____
ROOT
ATOM      5  N   UNL     1       0.979   4.414   0.536  0.00  0.00    -0.296 NA
ATOM      9  C   UNL     1      -0.456   3.661  -1.502  0.00  0.00    +0.002 C 
ATOM     10  C   UNL     1      -1.300   3.623  -0.199  0.00  0.00    +0.055 C 
ATOM     11  C   UNL     1       1.706   3.376  -0.240  0.00  0.00    +0.095 C 
ATOM     12  C   UNL     1       0.792   2.770  -1.327  0.00  0.00    +0.026 C 
ATOM     13  C   UNL     1       0.043   5.113  -1.667  0.00  0.00    +0.019 C 
ATOM     14  C   UNL     1      -0.332   3.886   0.990  0.00  0.00    +0.094 C 
ATOM     15  C   UNL     1       0.729   5.564  -0.365  0.00  0.00    +0.085 C 
ENDROOT
BRANCH  10  16
ATOM      6  N   UNL     1      -3.366   2.486   0.739  0.00  0.00    -0.270 N 
ATOM      7  N   UNL     1      -4.008   1.310   0.841  0.00  0.00    -0.171 NA
ATOM     16  C   UNL     1      -2.196   2.416   0.043  0.00  0.00    +0.044 A 
ATOM     18  C   UNL     1      -2.062   1.103  -0.336  0.00  0.00    +0.053 A 
ATOM     19  C   UNL     1      -3.207   0.469   0.183  0.00  0.00    +0.093 A 
ATOM     20  C   UNL     1      -3.945   3.661   1.348  0.00  0.00    +0.172 C 
BRANCH  19  21
ATOM     21  C   UNL     1      -3.548  -0.925   0.062  0.00  0.00    +0.006 A 
ATOM     23  C   UNL     1      -2.540  -1.885  -0.030  0.00  0.00    +0.059 A 
ATOM     24  C   UNL     1      -4.887  -1.315   0.038  0.00  0.00    +0.014 A 
ATOM     25  C   UNL     1      -2.871  -3.235  -0.148  0.00  0.00    +0.162 A 
ATOM     26  C   UNL     1      -5.218  -2.665  -0.080  0.00  0.00    +0.050 A 
ATOM     28  C   UNL     1      -4.210  -3.625  -0.173  0.00  0.00    +0.162 A 
BRANCH  25   3
ATOM      3  O   UNL     1      -1.878  -4.163  -0.238  0.00  0.00    -0.491 OA
ATOM     33  C   UNL     1      -0.536  -3.681  -0.205  0.00  0.00    +0.277 C 
ENDBRANCH  25   3
BRANCH  28   4
ATOM      4  O   UNL     1      -4.546  -4.940  -0.289  0.00  0.00    -0.491 OA
ATOM     34  C   UNL     1      -5.937  -5.254  -0.306  0.00  0.00    +0.277 C 
ENDBRANCH  28   4
ENDBRANCH  19  21
ENDBRANCH  10  16
BRANCH  11  17
ATOM     17  C   UNL     1       2.317   2.297   0.657  0.00  0.00    +0.252 C 
BRANCH  17   1
ATOM      1  O   UNL     1       3.075   1.420  -0.153  0.00  0.00    -0.449 OA
BRANCH   1  22
ATOM      2  O   UNL     1       3.629   0.194   1.697  0.00  0.00    -0.226 OA
ATOM      8  N   UNL     1       4.397  -0.380  -0.439  0.00  0.00    -0.251 N 
ATOM     22  C   UNL     1       3.705   0.376   0.488  0.00  0.00    +0.405 C 
ATOM     36  H   UNL     1       4.340  -0.068  -1.406  0.00  0.00    +0.158 HD
BRANCH   8  27
ATOM     27  C   UNL     1       5.177  -1.536  -0.211  0.00  0.00    +0.036 A 
ATOM     29  C   UNL     1       5.808  -2.173  -1.280  0.00  0.00    +0.023 A 
ATOM     30  C   UNL     1       5.314  -2.042   1.081  0.00  0.00    +0.023 A 
ATOM     31  C   UNL     1       6.577  -3.315  -1.056  0.00  0.00    +0.002 A 
ATOM     32  C   UNL     1       6.083  -3.184   1.306  0.00  0.00    +0.002 A 
ATOM     35  C   UNL     1       6.714  -3.821   0.237  0.00  0.00    +0.000 A 
ENDBRANCH   8  27
ENDBRANCH   1  22
ENDBRANCH  17   1
ENDBRANCH  11  17
TORSDOF 8
