REMARK  Name = 71693359
REMARK  10 active torsions:
REMARK  status: ('A' for Active; 'I' for Inactive)
REMARK    1  A    between atoms: O_2  and  C_11
REMARK    2  A    between atoms: O_5  and  C_23
REMARK    3  A    between atoms: O_5  and  C_24
REMARK    4  A    between atoms: N_6  and  C_10
REMARK    5  A    between atoms: N_7  and  C_21
REMARK    6  A    between atoms: C_8  and  C_11
REMARK    7  A    between atoms: C_9  and  C_13
REMARK    8  A    between atoms: C_10  and  C_15
REMARK    9  A    between atoms: C_10  and  C_16
REMARK   10  A    between atoms: C_22  and  C_23
REMARK                            x       y       z     vdW  Elec       q    Type
REMARK                         _______ _______ _______ _____ _____    ______ ____
ROOT
ATOM      1  O   UNL     1       2.111  -1.168  -1.692  0.00  0.00    -0.361 OA
ATOM      3  O   UNL     1       4.884   0.836  -1.652  0.00  0.00    -0.273 OA
ATOM      6  N   UNL     1       3.429   0.363   0.111  0.00  0.00    -0.289 N 
ATOM      8  C   UNL     1       2.542  -0.638   0.713  0.00  0.00    +0.135 C 
ATOM      9  C   UNL     1       1.643  -1.326  -0.348  0.00  0.00    +0.171 C 
ATOM     12  C   UNL     1       4.024   0.132  -1.127  0.00  0.00    +0.242 C 
ATOM     14  C   UNL     1       3.519  -1.121  -1.802  0.00  0.00    +0.256 C 
ENDROOT
BRANCH   9  13
ATOM     13  C   UNL     1       0.227  -0.783  -0.303  0.00  0.00    -0.017 A 
ATOM     17  C   UNL     1      -0.838  -1.639  -0.023  0.00  0.00    +0.008 A 
ATOM     18  C   UNL     1      -0.010   0.571  -0.541  0.00  0.00    +0.008 A 
ATOM     19  C   UNL     1      -2.141  -1.141   0.018  0.00  0.00    +0.023 A 
ATOM     20  C   UNL     1      -1.312   1.068  -0.499  0.00  0.00    +0.023 A 
ATOM     21  C   UNL     1      -2.378   0.212  -0.220  0.00  0.00    +0.033 A 
BRANCH  21   7
ATOM      4  O   UNL     1      -4.987  -1.185   0.321  0.00  0.00    -0.273 OA
ATOM      7  N   UNL     1      -3.680   0.711  -0.179  0.00  0.00    -0.284 N 
ATOM     22  C   UNL     1      -4.866   0.012   0.082  0.00  0.00    +0.243 C 
ATOM     26  H   UNL     1      -3.770   1.708  -0.363  0.00  0.00    +0.155 HD
BRANCH  22  23
ATOM     23  C   UNL     1      -6.082   0.912   0.035  0.00  0.00    +0.255 C 
BRANCH  23   5
ATOM      5  O   UNL     1      -7.233   0.137   0.302  0.00  0.00    -0.374 OA
ATOM     24  C   UNL     1      -8.420   0.923   0.275  0.00  0.00    +0.194 C 
ENDBRANCH  23   5
ENDBRANCH  22  23
ENDBRANCH  21   7
ENDBRANCH   9  13
BRANCH   6  10
ATOM     10  C   UNL     1       3.772   1.537   0.899  0.00  0.00    +0.070 C 
ATOM     15  C   UNL     1       5.250   1.516   1.272  0.00  0.00    +0.028 C 
ATOM     16  C   UNL     1       3.412   2.808   0.142  0.00  0.00    +0.028 C 
ENDBRANCH   6  10
BRANCH   8  11
ATOM     11  C   UNL     1       3.352  -1.671   1.507  0.00  0.00    +0.181 C 
BRANCH  11   2
ATOM      2  O   UNL     1       3.780  -1.067   2.710  0.00  0.00    -0.393 OA
ATOM     25  H   UNL     1       4.290  -1.732   3.202  0.00  0.00    +0.209 HD
ENDBRANCH  11   2
ENDBRANCH   8  11
TORSDOF 7
