REMARK  Name = 56775892
REMARK  5 active torsions:
REMARK  status: ('A' for Active; 'I' for Inactive)
REMARK    1  A    between atoms: N_6  and  C_16
REMARK    2  A    between atoms: C_11  and  C_14
REMARK    3  A    between atoms: C_16  and  C_18
REMARK    4  A    between atoms: C_17  and  C_20
REMARK    5  A    between atoms: C_24  and  C_27
REMARK                            x       y       z     vdW  Elec       q    Type
REMARK                         _______ _______ _______ _____ _____    ______ ____
ROOT
ATOM      7  N   UNL     1      -0.086  -0.952  -0.275  0.00  0.00    -0.341 N 
ATOM      8  N   UNL     1       1.049  -0.913   1.634  0.00  0.00    -0.238 NA
ATOM     14  C   UNL     1       1.120  -1.142   0.341  0.00  0.00    +0.127 A 
ATOM     17  C   UNL     1      -0.983  -0.579   0.686  0.00  0.00    +0.066 A 
ATOM     19  C   UNL     1      -0.259  -0.562   1.855  0.00  0.00    +0.139 A 
ATOM     28  H   UNL     1      -0.273  -1.077  -1.261  0.00  0.00    +0.167 HD
ENDROOT
BRANCH  14  11
ATOM      5  O   UNL     1       3.946  -3.406  -0.680  0.00  0.00    -0.377 OA
ATOM      6  N   UNL     1       3.477  -0.600  -0.354  0.00  0.00    -0.283 NA
ATOM     11  C   UNL     1       2.353  -1.566  -0.444  0.00  0.00    +0.149 C 
ATOM     12  C   UNL     1       4.662  -1.131  -1.051  0.00  0.00    +0.113 C 
ATOM     13  C   UNL     1       2.807  -2.953   0.052  0.00  0.00    +0.186 C 
ATOM     15  C   UNL     1       5.037  -2.504  -0.510  0.00  0.00    +0.175 C 
BRANCH   6  16
ATOM     16  C   UNL     1       3.129   0.707  -0.925  0.00  0.00    +0.143 C 
BRANCH  16  18
ATOM      1  S   UNL     1       5.364   3.856   0.022  0.00  0.00    +0.028 S 
ATOM      9  N   UNL     1       4.474   1.692   0.918  0.00  0.00    -0.145 NA
ATOM     10  N   UNL     1       5.222   2.731   1.255  0.00  0.00    -0.110 NA
ATOM     18  C   UNL     1       3.999   1.807  -0.379  0.00  0.00    +0.086 A 
ATOM     21  C   UNL     1       4.384   2.948  -1.054  0.00  0.00    +0.093 A 
ENDBRANCH  16  18
ENDBRANCH   6  16
ENDBRANCH  14  11
BRANCH  17  20
ATOM     20  C   UNL     1      -2.365  -0.289   0.410  0.00  0.00    -0.000 A 
ATOM     22  C   UNL     1      -3.335  -0.523   1.385  0.00  0.00    +0.010 A 
ATOM     23  C   UNL     1      -2.735   0.227  -0.833  0.00  0.00    +0.010 A 
ATOM     24  C   UNL     1      -5.045   0.273  -0.125  0.00  0.00    +0.055 A 
ATOM     25  C   UNL     1      -4.675  -0.242   1.117  0.00  0.00    +0.013 A 
ATOM     26  C   UNL     1      -4.075   0.507  -1.100  0.00  0.00    +0.013 A 
BRANCH  24  27
ATOM      2  F   UNL     1      -7.294   0.287   0.644  0.00  0.00    -0.166 F 
ATOM      3  F   UNL     1      -6.713   1.884  -0.712  0.00  0.00    -0.166 F 
ATOM      4  F   UNL     1      -6.983  -0.131  -1.467  0.00  0.00    -0.166 F 
ATOM     27  C   UNL     1      -6.477   0.573  -0.411  0.00  0.00    +0.417 C 
ENDBRANCH  24  27
ENDBRANCH  17  20
TORSDOF 5
