REMARK  Name = 7675143
REMARK  4 active torsions:
REMARK  status: ('A' for Active; 'I' for Inactive)
REMARK    1  A    between atoms: S_1  and  N_9
REMARK    2  A    between atoms: S_1  and  C_19
REMARK    3  A    between atoms: N_10  and  C_18
REMARK    4  A    between atoms: C_18  and  C_20
REMARK                            x       y       z     vdW  Elec       q    Type
REMARK                         _______ _______ _______ _____ _____    ______ ____
ROOT
ATOM      3  O   UNL     1      -2.262   0.308  -2.413  0.00  0.00    -0.273 OA
ATOM      4  O   UNL     1      -2.876   0.919   2.115  0.00  0.00    -0.252 OA
ATOM      8  N   UNL     1      -1.187   1.571   0.630  0.00  0.00    -0.271 N 
ATOM      9  N   UNL     1       1.487   1.447  -0.172  0.00  0.00    -0.172 NA
ATOM     10  N   UNL     1      -2.928   0.449  -0.176  0.00  0.00    -0.215 N 
ATOM     12  C   UNL     1      -0.894   1.468  -0.780  0.00  0.00    +0.180 C 
ATOM     13  C   UNL     1       0.435   0.762  -0.995  0.00  0.00    +0.141 C 
ATOM     14  C   UNL     1      -0.190   2.146   1.512  0.00  0.00    +0.127 C 
ATOM     15  C   UNL     1       1.149   1.445   1.291  0.00  0.00    +0.128 C 
ATOM     16  C   UNL     1      -2.096   0.669  -1.255  0.00  0.00    +0.245 C 
ATOM     17  C   UNL     1      -2.396   0.977   0.990  0.00  0.00    +0.312 C 
ENDROOT
BRANCH   9   1
ATOM      1  S   UNL     1       3.102   1.018  -0.548  0.00  0.00    +0.067 S 
ATOM      5  O   UNL     1       3.992   1.855   0.228  0.00  0.00    -0.152 OA
ATOM      6  O   UNL     1       3.233   0.880  -1.983  0.00  0.00    -0.152 OA
BRANCH   1  19
ATOM      2  S   UNL     1       3.005  -1.861  -1.051  0.00  0.00    -0.077 S 
ATOM     19  C   UNL     1       3.374  -0.639   0.071  0.00  0.00    +0.143 A 
ATOM     21  C   UNL     1       3.818  -1.104   1.265  0.00  0.00    +0.036 A 
ATOM     22  C   UNL     1       3.863  -2.528   1.276  0.00  0.00    +0.010 A 
ATOM     23  C   UNL     1       3.447  -3.068   0.079  0.00  0.00    +0.047 A 
ENDBRANCH   1  19
ENDBRANCH   9   1
BRANCH  10  18
ATOM     18  C   UNL     1      -4.186  -0.269  -0.248  0.00  0.00    +0.213 C 
BRANCH  18  20
ATOM      7  O   UNL     1      -2.905  -2.322  -0.328  0.00  0.00    -0.274 OA
ATOM     11  N   UNL     1      -5.042  -2.378   0.516  0.00  0.00    -0.328 N 
ATOM     20  C   UNL     1      -3.944  -1.744  -0.023  0.00  0.00    +0.228 C 
ATOM     24  H   UNL     1      -5.026  -3.374   0.708  0.00  0.00    +0.145 HD
ATOM     25  H   UNL     1      -5.901  -1.886   0.742  0.00  0.00    +0.145 HD
ENDBRANCH  18  20
ENDBRANCH  10  18
TORSDOF 4
