REMARK  Name = 11866358
REMARK  15 active torsions:
REMARK  status: ('A' for Active; 'I' for Inactive)
REMARK    1  A    between atoms: O_1  and  C_11
REMARK    2  A    between atoms: O_2  and  C_14
REMARK    3  A    between atoms: O_3  and  C_16
REMARK    4  A    between atoms: N_7  and  C_12
REMARK    5  A    between atoms: N_8  and  C_20
REMARK    6  A    between atoms: N_9  and  C_19
REMARK    7  A    between atoms: N_9  and  C_27
REMARK    8  A    between atoms: C_11  and  C_17
REMARK    9  A    between atoms: C_18  and  C_19
REMARK   10  A    between atoms: C_19  and  C_21
REMARK   11  A    between atoms: C_20  and  C_22
REMARK   12  A    between atoms: C_20  and  C_25
REMARK   13  A    between atoms: C_21  and  C_23
REMARK   14  A    between atoms: C_21  and  C_24
REMARK   15  A    between atoms: C_22  and  C_26
REMARK                            x       y       z     vdW  Elec       q    Type
REMARK                         _______ _______ _______ _____ _____    ______ ____
ROOT
ATOM     11  C   UNL     1      -0.609   2.202   0.058  0.00  0.00    +0.146 C 
ATOM     12  C   UNL     1       1.827   1.479   0.087  0.00  0.00    +0.107 C 
ATOM     13  C   UNL     1       0.368   1.042   0.257  0.00  0.00    +0.069 C 
ATOM     14  C   UNL     1       2.172   2.675   0.983  0.00  0.00    +0.163 C 
ATOM     15  C   UNL     1      -0.266   3.378   0.970  0.00  0.00    +0.078 C 
ATOM     16  C   UNL     1       1.185   3.831   0.804  0.00  0.00    +0.148 C 
ENDROOT
BRANCH  11  17
ATOM      4  O   UNL     1      -2.713   2.247   1.188  0.00  0.00    -0.273 OA
ATOM      8  N   UNL     1      -2.403   0.738  -0.558  0.00  0.00    -0.301 N 
ATOM     17  C   UNL     1      -2.020   1.754   0.301  0.00  0.00    +0.246 C 
ATOM     37  H   UNL     1      -1.788   0.486  -1.326  0.00  0.00    +0.150 HD
BRANCH   8  20
ATOM     20  C   UNL     1      -3.706   0.114  -0.514  0.00  0.00    +0.163 C 
BRANCH  20  25
ATOM      6  O   UNL     1      -4.279   1.531  -2.404  0.00  0.00    -0.274 OA
ATOM     10  N   UNL     1      -5.933   0.966  -0.913  0.00  0.00    -0.328 N 
ATOM     25  C   UNL     1      -4.634   0.957  -1.377  0.00  0.00    +0.231 C 
ATOM     39  H   UNL     1      -6.216   0.467  -0.076  0.00  0.00    +0.145 HD
ATOM     40  H   UNL     1      -6.657   1.479  -1.404  0.00  0.00    +0.145 HD
ENDBRANCH  20  25
BRANCH  20  22
ATOM     22  C   UNL     1      -3.674  -1.333  -1.020  0.00  0.00    +0.067 C 
BRANCH  22  26
ATOM     26  C   UNL     1      -3.158  -2.301   0.016  0.00  0.00    -0.045 A 
ATOM     28  C   UNL     1      -1.800  -2.572   0.078  0.00  0.00    +0.004 A 
ATOM     29  C   UNL     1      -4.052  -2.904   0.887  0.00  0.00    +0.004 A 
ATOM     30  C   UNL     1      -1.323  -3.467   1.035  0.00  0.00    +0.000 A 
ATOM     31  C   UNL     1      -3.575  -3.800   1.844  0.00  0.00    +0.000 A 
ATOM     32  C   UNL     1      -2.211  -4.082   1.918  0.00  0.00    +0.000 A 
ENDBRANCH  22  26
ENDBRANCH  20  22
ENDBRANCH   8  20
ENDBRANCH  11  17
BRANCH  12   7
ATOM      5  O   UNL     1       2.738  -0.506  -1.785  0.00  0.00    -0.274 OA
ATOM      7  N   UNL     1       2.706   0.364   0.364  0.00  0.00    -0.309 N 
ATOM     18  C   UNL     1       3.092  -0.546  -0.608  0.00  0.00    +0.231 C 
ATOM     33  H   UNL     1       3.006   0.221   1.324  0.00  0.00    +0.149 HD
BRANCH  18  19
ATOM     19  C   UNL     1       4.013  -1.633  -0.056  0.00  0.00    +0.143 C 
BRANCH  19   9
ATOM      9  N   UNL     1       3.696  -2.868  -0.777  0.00  0.00    -0.309 NA
ATOM     27  C   UNL     1       2.308  -3.244  -0.563  0.00  0.00    +0.101 C 
ATOM     38  H   UNL     1       3.868  -2.755  -1.775  0.00  0.00    +0.122 HD
ENDBRANCH  19   9
BRANCH  19  21
ATOM     21  C   UNL     1       5.515  -1.281  -0.180  0.00  0.00    +0.009 C 
ATOM     23  C   UNL     1       6.405  -2.352   0.457  0.00  0.00    +0.009 C 
ATOM     24  C   UNL     1       5.976  -1.014  -1.618  0.00  0.00    +0.009 C 
ENDBRANCH  19  21
ENDBRANCH  18  19
ENDBRANCH  12   7
BRANCH  11   1
ATOM      1  O   UNL     1      -0.591   2.643  -1.295  0.00  0.00    -0.379 OA
ATOM     34  H   UNL     1      -1.146   3.438  -1.367  0.00  0.00    +0.211 HD
ENDBRANCH  11   1
BRANCH  14   2
ATOM      2  O   UNL     1       3.473   3.159   0.636  0.00  0.00    -0.387 OA
ATOM     35  H   UNL     1       3.666   3.916   1.215  0.00  0.00    +0.210 HD
ENDBRANCH  14   2
BRANCH  16   3
ATOM      3  O   UNL     1       1.473   4.827   1.786  0.00  0.00    -0.389 OA
ATOM     36  H   UNL     1       1.352   4.428   2.665  0.00  0.00    +0.210 HD
ENDBRANCH  16   3
TORSDOF 12
