REMARK  Name = 40780450
REMARK  7 active torsions:
REMARK  status: ('A' for Active; 'I' for Inactive)
REMARK    1  A    between atoms: N_3  and  C_9
REMARK    2  A    between atoms: N_4  and  C_17
REMARK    3  A    between atoms: N_6  and  C_24
REMARK    4  A    between atoms: C_7  and  C_10
REMARK    5  A    between atoms: C_13  and  C_15
REMARK    6  A    between atoms: C_14  and  C_16
REMARK    7  A    between atoms: C_23  and  C_25
REMARK                            x       y       z     vdW  Elec       q    Type
REMARK                         _______ _______ _______ _____ _____    ______ ____
ROOT
ATOM      7  C   UNL     1      -0.217  -0.272   1.139  0.00  0.00    +0.047 C 
ATOM      8  C   UNL     1      -0.990  -0.850  -0.070  0.00  0.00    +0.039 C 
ATOM      9  C   UNL     1      -1.938  -1.908   0.500  0.00  0.00    +0.098 C 
ATOM     11  C   UNL     1      -0.283  -1.439   2.092  0.00  0.00    -0.021 C 
ATOM     12  C   UNL     1      -1.232  -2.317   1.748  0.00  0.00    -0.009 C 
ENDROOT
BRANCH   7  10
ATOM      4  N   UNL     1       3.263   0.483   0.251  0.00  0.00    -0.236 N 
ATOM      5  N   UNL     1       2.947   1.699   0.729  0.00  0.00    -0.171 NA
ATOM     10  C   UNL     1       1.176   0.262   0.856  0.00  0.00    +0.003 A 
ATOM     13  C   UNL     1       2.237  -0.414   0.305  0.00  0.00    +0.046 A 
ATOM     14  C   UNL     1       1.670   1.557   1.097  0.00  0.00    +0.064 A 
ATOM     15  C   UNL     1       2.354  -1.810  -0.166  0.00  0.00    +0.066 C 
ATOM     16  C   UNL     1       0.954   2.705   1.681  0.00  0.00    +0.068 C 
BRANCH   4  17
ATOM      1 CL   UNL     1       8.242   1.580   0.477  0.00  0.00    -0.083 Cl
ATOM     17  C   UNL     1       4.548   0.244  -0.237  0.00  0.00    +0.067 A 
ATOM     19  C   UNL     1       5.636   0.941   0.289  0.00  0.00    +0.048 A 
ATOM     20  C   UNL     1       4.744  -0.693  -1.252  0.00  0.00    +0.028 A 
ATOM     21  C   UNL     1       6.920   0.701  -0.199  0.00  0.00    +0.046 A 
ATOM     22  C   UNL     1       6.029  -0.933  -1.740  0.00  0.00    +0.007 A 
ATOM     23  C   UNL     1       7.117  -0.236  -1.214  0.00  0.00    -0.032 A 
ATOM     25  C   UNL     1       8.477  -0.523  -1.763  0.00  0.00    +0.045 C 
ENDBRANCH   4  17
ENDBRANCH   7  10
BRANCH   9   3
ATOM      2  O   UNL     1      -3.844  -0.791  -1.322  0.00  0.00    -0.252 OA
ATOM      3  N   UNL     1      -3.232  -1.376   0.830  0.00  0.00    -0.293 N 
ATOM      6  N   UNL     1      -5.290  -0.405   0.487  0.00  0.00    -0.269 N 
ATOM     18  C   UNL     1      -4.112  -0.844  -0.124  0.00  0.00    +0.304 C 
ATOM     31  H   UNL     1      -3.552  -1.422   1.793  0.00  0.00    +0.151 HD
ATOM     32  H   UNL     1      -5.352  -0.521   1.495  0.00  0.00    +0.156 HD
BRANCH   6  24
ATOM     24  C   UNL     1      -6.417   0.188  -0.127  0.00  0.00    +0.035 A 
ATOM     26  C   UNL     1      -7.513   0.569   0.647  0.00  0.00    +0.023 A 
ATOM     27  C   UNL     1      -6.433   0.394  -1.507  0.00  0.00    +0.023 A 
ATOM     28  C   UNL     1      -8.625   1.154   0.042  0.00  0.00    +0.002 A 
ATOM     29  C   UNL     1      -7.545   0.979  -2.112  0.00  0.00    +0.002 A 
ATOM     30  C   UNL     1      -8.642   1.359  -1.337  0.00  0.00    +0.000 A 
ENDBRANCH   6  24
ENDBRANCH   9   3
TORSDOF 4
