REMARK  Name = 30734266
REMARK  5 active torsions:
REMARK  status: ('A' for Active; 'I' for Inactive)
REMARK    1  A    between atoms: N_2  and  C_22
REMARK    2  A    between atoms: N_4  and  C_13
REMARK    3  A    between atoms: C_6  and  C_12
REMARK    4  A    between atoms: C_7  and  C_13
REMARK    5  A    between atoms: C_15  and  C_16
REMARK                            x       y       z     vdW  Elec       q    Type
REMARK                         _______ _______ _______ _____ _____    ______ ____
ROOT
ATOM      1  N   UNL     1      -3.767   0.188   0.682  0.00  0.00    -0.298 NA
ATOM      5  C   UNL     1      -2.316  -0.244  -1.438  0.00  0.00    +0.002 C 
ATOM      6  C   UNL     1      -1.801  -1.095  -0.244  0.00  0.00    +0.055 C 
ATOM      7  C   UNL     1      -3.336   1.482   0.088  0.00  0.00    +0.070 C 
ATOM      8  C   UNL     1      -2.310   1.248  -1.041  0.00  0.00    +0.024 C 
ATOM      9  C   UNL     1      -2.580  -0.635   1.022  0.00  0.00    +0.094 C 
ATOM     10  C   UNL     1      -3.788  -0.646  -1.669  0.00  0.00    +0.019 C 
ATOM     11  C   UNL     1      -4.557  -0.540  -0.340  0.00  0.00    +0.085 C 
ENDROOT
BRANCH   6  12
ATOM      2  N   UNL     1       0.318  -2.251   0.540  0.00  0.00    -0.271 N 
ATOM      3  N   UNL     1       1.649  -2.112   0.668  0.00  0.00    -0.176 NA
ATOM     12  C   UNL     1      -0.300  -1.163  -0.004  0.00  0.00    +0.044 A 
ATOM     14  C   UNL     1       0.696  -0.250  -0.250  0.00  0.00    +0.048 A 
ATOM     16  C   UNL     1       1.874  -0.888   0.183  0.00  0.00    +0.066 A 
ATOM     22  C   UNL     1      -0.308  -3.479   0.972  0.00  0.00    +0.172 C 
BRANCH  16  15
ATOM     15  C   UNL     1       3.288  -0.339   0.149  0.00  0.00    +0.040 C 
ATOM     17  C   UNL     1       3.438   0.914   1.029  0.00  0.00    +0.010 C 
ATOM     18  C   UNL     1       3.761  -0.062  -1.289  0.00  0.00    +0.010 C 
ATOM     19  C   UNL     1       4.867   1.453   0.996  0.00  0.00    +0.001 C 
ATOM     20  C   UNL     1       5.189   0.481  -1.312  0.00  0.00    +0.001 C 
ATOM     21  C   UNL     1       5.336   1.718  -0.432  0.00  0.00    +0.000 C 
ENDBRANCH  16  15
ENDBRANCH   6  12
BRANCH   7  13
ATOM     13  C   UNL     1      -2.812   2.460   1.141  0.00  0.00    +0.096 C 
BRANCH  13   4
ATOM      4  N   UNL     1      -2.539   3.759   0.548  0.00  0.00    -0.329 NA
ATOM     23  H   UNL     1      -1.784   3.687  -0.131  0.00  0.00    +0.118 HD
ATOM     24  H   UNL     1      -2.207   4.397   1.270  0.00  0.00    +0.118 HD
ENDBRANCH  13   4
ENDBRANCH   7  13
TORSDOF 4
