REMARK  Name = 45783910
REMARK  10 active torsions:
REMARK  status: ('A' for Active; 'I' for Inactive)
REMARK    1  A    between atoms: N_3  and  C_13
REMARK    2  A    between atoms: C_8  and  C_12
REMARK    3  A    between atoms: C_9  and  C_13
REMARK    4  A    between atoms: C_11  and  C_16
REMARK    5  A    between atoms: C_12  and  C_17
REMARK    6  A    between atoms: C_12  and  C_18
REMARK    7  A    between atoms: C_15  and  C_21
REMARK    8  A    between atoms: C_16  and  C_24
REMARK    9  A    between atoms: C_25  and  C_27
REMARK   10  A    between atoms: C_26  and  C_28
REMARK                            x       y       z     vdW  Elec       q    Type
REMARK                         _______ _______ _______ _____ _____    ______ ____
ROOT
ATOM      8  C   UNL     1      -1.032  -1.267  -0.819  0.00  0.00    +0.000 C 
ATOM      9  C   UNL     1      -2.017  -2.051   0.078  0.00  0.00    +0.029 C 
ATOM     10  C   UNL     1       0.297  -1.036  -0.087  0.00  0.00    +0.012 C 
ATOM     11  C   UNL     1       0.967  -2.343   0.390  0.00  0.00    +0.024 C 
ATOM     14  C   UNL     1      -1.358  -3.205   0.791  0.00  0.00    -0.023 C 
ATOM     15  C   UNL     1      -0.028  -3.360   0.930  0.00  0.00    -0.073 C 
ATOM     21  C   UNL     1       0.527  -4.595   1.585  0.00  0.00    +0.039 C 
ENDROOT
BRANCH   8  12
ATOM     12  C   UNL     1      -0.810  -1.978  -2.161  0.00  0.00    -0.013 C 
ATOM     17  C   UNL     1      -2.023  -1.795  -3.067  0.00  0.00    +0.007 C 
ATOM     18  C   UNL     1       0.454  -1.456  -2.837  0.00  0.00    +0.007 C 
ENDBRANCH   8  12
BRANCH   9  13
ATOM     13  C   UNL     1      -2.690  -1.141   1.110  0.00  0.00    +0.092 C 
BRANCH  13   3
ATOM      2  O   UNL     1      -6.734   3.641   0.809  0.00  0.00    -0.276 OA
ATOM      3  N   UNL     1      -3.362  -0.021   0.451  0.00  0.00    -0.299 NA
ATOM      4  N   UNL     1      -5.491   1.846   0.017  0.00  0.00    -0.299 N 
ATOM     19  C   UNL     1      -4.627  -0.463  -0.155  0.00  0.00    +0.103 C 
ATOM     20  C   UNL     1      -3.602   1.071   1.405  0.00  0.00    +0.103 C 
ATOM     22  C   UNL     1      -5.323   0.694  -0.874  0.00  0.00    +0.123 C 
ATOM     23  C   UNL     1      -4.272   2.257   0.713  0.00  0.00    +0.123 C 
ATOM     25  C   UNL     1      -6.651   2.610   0.138  0.00  0.00    +0.213 C 
ATOM     27  C   UNL     1      -7.865   2.114  -0.608  0.00  0.00    +0.109 C 
ENDBRANCH  13   3
ENDBRANCH   9  13
BRANCH  11  16
ATOM     16  C   UNL     1       2.066  -1.990   1.401  0.00  0.00    +0.105 C 
BRANCH  16  24
ATOM      1  O   UNL     1       3.427  -0.049   0.820  0.00  0.00    -0.420 OA
ATOM      5  N   UNL     1       4.210  -1.988   0.026  0.00  0.00    -0.112 NA
ATOM      6  N   UNL     1       5.071  -0.984  -0.374  0.00  0.00    -0.107 NA
ATOM     24  C   UNL     1       3.266  -1.397   0.721  0.00  0.00    +0.218 A 
ATOM     26  C   UNL     1       4.575   0.130   0.111  0.00  0.00    +0.248 A 
BRANCH  26  28
ATOM      7  N   UNL     1       5.965   4.114  -0.183  0.00  0.00    -0.263 NA
ATOM     28  C   UNL     1       5.047   1.481   0.012  0.00  0.00    +0.041 A 
ATOM     29  C   UNL     1       6.212   1.763  -0.692  0.00  0.00    +0.033 A 
ATOM     30  C   UNL     1       4.340   2.513   0.618  0.00  0.00    +0.033 A 
ATOM     31  C   UNL     1       6.625   3.084  -0.759  0.00  0.00    +0.111 A 
ATOM     32  C   UNL     1       4.837   3.801   0.492  0.00  0.00    +0.111 A 
ENDBRANCH  26  28
ENDBRANCH  16  24
ENDBRANCH  11  16
TORSDOF 6
