REMARK  Name = 51137879
REMARK  4 active torsions:
REMARK  status: ('A' for Active; 'I' for Inactive)
REMARK    1  A    between atoms: N_1  and  C_9
REMARK    2  A    between atoms: N_2  and  C_13
REMARK    3  A    between atoms: C_4  and  C_8
REMARK    4  A    between atoms: C_9  and  C_11
REMARK                            x       y       z     vdW  Elec       q    Type
REMARK                         _______ _______ _______ _____ _____    ______ ____
ROOT
ATOM      1  N   UNL     1      -1.897   1.329   0.138  0.00  0.00    -0.297 NA
ATOM      4  C   UNL     1       0.261   0.863   0.928  0.00  0.00    +0.070 C 
ATOM      5  C   UNL     1       0.005   2.379   0.993  0.00  0.00    +0.028 C 
ATOM      6  C   UNL     1      -0.842   0.322   0.009  0.00  0.00    +0.096 C 
ATOM      7  C   UNL     1      -1.200   2.614   0.092  0.00  0.00    +0.085 C 
ENDROOT
BRANCH   4   8
ATOM      2  N   UNL     1       2.254  -0.679   0.897  0.00  0.00    -0.330 N 
ATOM      3  N   UNL     1       2.415   1.159  -0.341  0.00  0.00    -0.232 NA
ATOM      8  C   UNL     1       1.649   0.472   0.477  0.00  0.00    +0.115 A 
ATOM     10  C   UNL     1       3.493  -0.739   0.313  0.00  0.00    +0.069 A 
ATOM     12  C   UNL     1       3.570   0.420  -0.455  0.00  0.00    +0.089 A 
ATOM     13  C   UNL     1       1.693  -1.661   1.798  0.00  0.00    +0.150 C 
ATOM     14  C   UNL     1       4.522  -1.679   0.387  0.00  0.00    +0.028 A 
ATOM     15  C   UNL     1       4.734   0.673  -1.199  0.00  0.00    +0.030 A 
ATOM     18  C   UNL     1       5.674  -1.411  -0.360  0.00  0.00    +0.002 A 
ATOM     19  C   UNL     1       5.780  -0.257  -1.140  0.00  0.00    +0.002 A 
ENDBRANCH   4   8
BRANCH   1   9
ATOM      9  C   UNL     1      -2.909   1.210  -0.901  0.00  0.00    +0.119 C 
BRANCH   9  11
ATOM     11  C   UNL     1      -3.925   0.148  -0.575  0.00  0.00    -0.033 A 
ATOM     16  C   UNL     1      -3.718  -1.167  -0.990  0.00  0.00    +0.005 A 
ATOM     17  C   UNL     1      -5.075   0.479   0.143  0.00  0.00    +0.005 A 
ATOM     20  C   UNL     1      -4.660  -2.151  -0.688  0.00  0.00    +0.000 A 
ATOM     21  C   UNL     1      -6.016  -0.504   0.445  0.00  0.00    +0.000 A 
ATOM     22  C   UNL     1      -5.809  -1.819   0.029  0.00  0.00    +0.000 A 
ENDBRANCH   9  11
ENDBRANCH   1   9
TORSDOF 3
