REMARK  Name = 75536814
REMARK  7 active torsions:
REMARK  status: ('A' for Active; 'I' for Inactive)
REMARK    1  A    between atoms: O_2  and  C_8
REMARK    2  A    between atoms: N_4  and  C_16
REMARK    3  A    between atoms: N_5  and  C_10
REMARK    4  A    between atoms: N_5  and  C_18
REMARK    5  A    between atoms: C_7  and  C_16
REMARK    6  A    between atoms: C_9  and  C_17
REMARK    7  A    between atoms: C_18  and  C_19
REMARK                            x       y       z     vdW  Elec       q    Type
REMARK                         _______ _______ _______ _____ _____    ______ ____
ROOT
ATOM      1  O   UNL     1       0.585  -1.181  -0.400  0.00  0.00    -0.371 OA
ATOM      7  C   UNL     1       0.916   0.099   0.162  0.00  0.00    +0.165 C 
ATOM      8  C   UNL     1      -0.388   0.672   0.702  0.00  0.00    +0.164 C 
ATOM     10  C   UNL     1      -1.381   0.148  -0.319  0.00  0.00    +0.111 C 
ATOM     15  C   UNL     1      -0.841  -1.249  -0.576  0.00  0.00    +0.181 C 
ENDROOT
BRANCH   8   2
ATOM      2  O   UNL     1      -0.359   2.084   0.761  0.00  0.00    -0.388 OA
ATOM     26  H   UNL     1      -0.166   2.424  -0.129  0.00  0.00    +0.210 HD
ENDBRANCH   8   2
BRANCH  10   5
ATOM      5  N   UNL     1      -2.756   0.145   0.155  0.00  0.00    -0.305 NA
ATOM     25  H   UNL     1      -2.954   1.037   0.609  0.00  0.00    +0.123 HD
BRANCH   5  18
ATOM     18  C   UNL     1      -3.691  -0.038  -0.949  0.00  0.00    +0.116 C 
BRANCH  18  19
ATOM      6  N   UNL     1      -7.774  -0.101   0.402  0.00  0.00    -0.263 NA
ATOM     19  C   UNL     1      -5.120  -0.060  -0.476  0.00  0.00    -0.031 A 
ATOM     20  C   UNL     1      -5.631  -1.192   0.150  0.00  0.00    +0.024 A 
ATOM     21  C   UNL     1      -5.934   1.051  -0.663  0.00  0.00    +0.024 A 
ATOM     22  C   UNL     1      -6.952  -1.163   0.566  0.00  0.00    +0.111 A 
ATOM     23  C   UNL     1      -7.242   0.981  -0.209  0.00  0.00    +0.111 A 
ENDBRANCH  18  19
ENDBRANCH   5  18
ENDBRANCH  10   5
BRANCH   7  16
ATOM     16  C   UNL     1       1.985  -0.068   1.226  0.00  0.00    +0.138 C 
BRANCH  16   4
ATOM      3  O   UNL     1       4.233   1.395   0.114  0.00  0.00    -0.276 OA
ATOM      4  N   UNL     1       3.192  -0.613   0.673  0.00  0.00    -0.313 N 
ATOM     17  C   UNL     1       4.222   0.168   0.160  0.00  0.00    +0.216 C 
ATOM     24  H   UNL     1       3.287  -1.624   0.665  0.00  0.00    +0.149 HD
BRANCH  17   9
ATOM      9  C   UNL     1       5.375  -0.652  -0.331  0.00  0.00    +0.075 C 
ATOM     11  C   UNL     1       6.393  -0.867   0.795  0.00  0.00    +0.013 C 
ATOM     12  C   UNL     1       6.122   0.080  -1.447  0.00  0.00    +0.013 C 
ATOM     13  C   UNL     1       7.722  -0.345   0.261  0.00  0.00    +0.001 C 
ATOM     14  C   UNL     1       7.325   0.707  -0.758  0.00  0.00    +0.001 C 
ENDBRANCH  17   9
ENDBRANCH  16   4
ENDBRANCH   7  16
TORSDOF 7
