REMARK  Name = 40776834
REMARK  13 active torsions:
REMARK  status: ('A' for Active; 'I' for Inactive)
REMARK    1  A    between atoms: S_1  and  N_7
REMARK    2  A    between atoms: S_1  and  C_22
REMARK    3  A    between atoms: O_4  and  C_29
REMARK    4  A    between atoms: O_4  and  C_32
REMARK    5  A    between atoms: O_5  and  C_31
REMARK    6  A    between atoms: O_5  and  C_33
REMARK    7  A    between atoms: N_7  and  C_17
REMARK    8  A    between atoms: C_11  and  C_18
REMARK    9  A    between atoms: C_12  and  C_17
REMARK   10  A    between atoms: C_20  and  C_23
REMARK   11  A    between atoms: C_21  and  C_25
REMARK   12  A    between atoms: C_22  and  C_24
REMARK   13  A    between atoms: C_24  and  C_28
REMARK                            x       y       z     vdW  Elec       q    Type
REMARK                         _______ _______ _______ _____ _____    ______ ____
ROOT
ATOM      6  N   UNL     1      -2.800  -1.625   2.279  0.00  0.00    -0.297 NA
ATOM     10  C   UNL     1      -2.316  -3.137   0.214  0.00  0.00    +0.002 C 
ATOM     11  C   UNL     1      -1.000  -2.504   0.746  0.00  0.00    +0.055 C 
ATOM     12  C   UNL     1      -3.724  -1.278   1.167  0.00  0.00    +0.072 C 
ATOM     13  C   UNL     1      -3.319  -2.015  -0.128  0.00  0.00    +0.024 C 
ATOM     14  C   UNL     1      -2.922  -3.948   1.379  0.00  0.00    +0.019 C 
ATOM     15  C   UNL     1      -1.392  -1.468   1.838  0.00  0.00    +0.094 C 
ATOM     16  C   UNL     1      -3.021  -3.050   2.624  0.00  0.00    +0.085 C 
ENDROOT
BRANCH  11  18
ATOM      8  N   UNL     1      -0.372  -2.008  -1.565  0.00  0.00    -0.237 NA
ATOM      9  N   UNL     1       1.707  -0.926  -2.127  0.00  0.00    -0.232 NA
ATOM     18  C   UNL     1      -0.017  -1.933  -0.266  0.00  0.00    +0.050 A 
ATOM     19  C   UNL     1       1.167  -1.377   0.174  0.00  0.00    +0.052 A 
ATOM     20  C   UNL     1       1.998  -0.884  -0.811  0.00  0.00    +0.075 A 
ATOM     21  C   UNL     1       0.524  -1.493  -2.430  0.00  0.00    +0.127 A 
ATOM     25  C   UNL     1       0.167  -1.560  -3.876  0.00  0.00    +0.088 C 
BRANCH  20  23
ATOM     23  C   UNL     1       3.267  -0.279  -0.482  0.00  0.00    +0.004 A 
ATOM     26  C   UNL     1       3.310   0.848   0.339  0.00  0.00    +0.059 A 
ATOM     27  C   UNL     1       4.450  -0.822  -0.984  0.00  0.00    +0.014 A 
ATOM     29  C   UNL     1       4.535   1.433   0.658  0.00  0.00    +0.162 A 
ATOM     30  C   UNL     1       5.676  -0.237  -0.665  0.00  0.00    +0.050 A 
ATOM     31  C   UNL     1       5.718   0.890   0.156  0.00  0.00    +0.162 A 
BRANCH  29   4
ATOM      4  O   UNL     1       4.565   2.532   1.462  0.00  0.00    -0.491 OA
ATOM     32  C   UNL     1       4.668   2.304   2.866  0.00  0.00    +0.277 C 
ENDBRANCH  29   4
BRANCH  31   5
ATOM      5  O   UNL     1       6.921   1.452   0.461  0.00  0.00    -0.491 OA
ATOM     33  C   UNL     1       8.083   0.836  -0.093  0.00  0.00    +0.277 C 
ENDBRANCH  31   5
ENDBRANCH  20  23
ENDBRANCH  11  18
BRANCH  12  17
ATOM     17  C   UNL     1      -3.835   0.233   0.952  0.00  0.00    +0.124 C 
BRANCH  17   7
ATOM      7  N   UNL     1      -4.816   0.536  -0.044  0.00  0.00    -0.193 NA
ATOM     34  H   UNL     1      -5.778   0.279   0.214  0.00  0.00    +0.148 HD
BRANCH   7   1
ATOM      1  S   UNL     1      -4.667   1.955  -1.020  0.00  0.00    +0.029 S 
ATOM      2  O   UNL     1      -5.908   2.166  -1.739  0.00  0.00    -0.158 OA
ATOM      3  O   UNL     1      -3.398   1.935  -1.722  0.00  0.00    -0.158 OA
BRANCH   1  22
ATOM     22  C   UNL     1      -4.552   3.195   0.249  0.00  0.00    +0.185 C 
BRANCH  22  24
ATOM     24  C   UNL     1      -4.408   4.585  -0.346  0.00  0.00    +0.021 C 
ATOM     28  C   UNL     1      -4.290   5.644   0.737  0.00  0.00    +0.005 C 
ENDBRANCH  22  24
ENDBRANCH   1  22
ENDBRANCH   7   1
ENDBRANCH  17   7
ENDBRANCH  12  17
TORSDOF 9
