REMARK  Name = 11911516
REMARK  9 active torsions:
REMARK  status: ('A' for Active; 'I' for Inactive)
REMARK    1  A    between atoms: N_3  and  C_10
REMARK    2  A    between atoms: N_4  and  C_11
REMARK    3  A    between atoms: N_4  and  C_23
REMARK    4  A    between atoms: N_7  and  C_29
REMARK    5  A    between atoms: N_7  and  C_30
REMARK    6  A    between atoms: N_7  and  C_31
REMARK    7  A    between atoms: C_14  and  C_15
REMARK    8  A    between atoms: C_15  and  C_19
REMARK    9  A    between atoms: C_23  and  C_24
REMARK                            x       y       z     vdW  Elec       q    Type
REMARK                         _______ _______ _______ _____ _____    ______ ____
ROOT
ATOM      1  O   UNL     1      -0.426   3.828   1.131  0.00  0.00    -0.370 OA
ATOM      2  O   UNL     1      -0.002   3.232  -1.903  0.00  0.00    -0.370 OA
ATOM      8  C   UNL     1      -0.579   2.474  -0.823  0.00  0.00    +0.175 C 
ATOM      9  C   UNL     1       0.242   2.776   0.415  0.00  0.00    +0.168 C 
ATOM     10  C   UNL     1      -1.962   3.007  -0.504  0.00  0.00    +0.166 C 
ATOM     11  C   UNL     1       1.568   3.268  -0.123  0.00  0.00    +0.111 C 
ATOM     12  C   UNL     1      -1.674   4.127   0.491  0.00  0.00    +0.189 C 
ATOM     13  C   UNL     1       1.147   3.942  -1.419  0.00  0.00    +0.181 C 
ENDROOT
BRANCH  10   3
ATOM      3  N   UNL     1      -2.869   1.962  -0.023  0.00  0.00    -0.244 N 
ATOM      5  N   UNL     1      -2.928   1.654   1.282  0.00  0.00    -0.065 NA
ATOM      6  N   UNL     1      -3.822   0.681   1.418  0.00  0.00    -0.134 NA
ATOM     18  C   UNL     1      -3.722   1.198  -0.758  0.00  0.00    +0.134 A 
ATOM     19  C   UNL     1      -4.298   0.409   0.181  0.00  0.00    +0.083 A 
BRANCH  19  15
ATOM     15  C   UNL     1      -5.335  -0.652  -0.012  0.00  0.00    +0.062 C 
BRANCH  15  14
ATOM     14  C   UNL     1      -4.716  -2.026  -0.268  0.00  0.00    -0.005 C 
ATOM     16  C   UNL     1      -5.719  -2.948  -0.974  0.00  0.00    +0.004 C 
ATOM     17  C   UNL     1      -4.228  -2.653   1.044  0.00  0.00    +0.004 C 
ATOM     20  C   UNL     1      -5.142  -4.345  -1.194  0.00  0.00    +0.000 C 
ATOM     21  C   UNL     1      -3.653  -4.050   0.822  0.00  0.00    +0.000 C 
ATOM     22  C   UNL     1      -4.649  -4.962   0.111  0.00  0.00    +0.000 C 
ENDBRANCH  15  14
ENDBRANCH  19  15
ENDBRANCH  10   3
BRANCH  11   4
ATOM      4  N   UNL     1       2.452   2.143  -0.418  0.00  0.00    -0.305 NA
ATOM     32  H   UNL     1       3.277   2.486  -0.911  0.00  0.00    +0.123 HD
BRANCH   4  23
ATOM     23  C   UNL     1       2.862   1.474   0.807  0.00  0.00    +0.116 C 
BRANCH  23  24
ATOM     24  C   UNL     1       3.773   0.307   0.532  0.00  0.00    -0.033 A 
ATOM     25  C   UNL     1       5.145   0.508   0.485  0.00  0.00    +0.007 A 
ATOM     26  C   UNL     1       3.227  -0.952   0.329  0.00  0.00    +0.007 A 
ATOM     27  C   UNL     1       5.989  -0.573   0.230  0.00  0.00    +0.023 A 
ATOM     28  C   UNL     1       4.071  -2.033   0.073  0.00  0.00    +0.023 A 
ATOM     29  C   UNL     1       5.452  -1.843   0.024  0.00  0.00    +0.029 A 
BRANCH  29   7
ATOM      7  N   UNL     1       6.305  -2.937  -0.234  0.00  0.00    -0.336 N 
ATOM     30  C   UNL     1       7.646  -2.966   0.316  0.00  0.00    +0.129 C 
ATOM     31  C   UNL     1       5.847  -4.051  -1.039  0.00  0.00    +0.129 C 
ENDBRANCH  29   7
ENDBRANCH  23  24
ENDBRANCH   4  23
ENDBRANCH  11   4
TORSDOF 7
