REMARK  Name = 75536611
REMARK  7 active torsions:
REMARK  status: ('A' for Active; 'I' for Inactive)
REMARK    1  A    between atoms: O_4  and  C_9
REMARK    2  A    between atoms: N_6  and  C_8
REMARK    3  A    between atoms: N_6  and  C_13
REMARK    4  A    between atoms: N_7  and  C_12
REMARK    5  A    between atoms: C_10  and  C_12
REMARK    6  A    between atoms: C_13  and  C_14
REMARK    7  A    between atoms: C_15  and  C_17
REMARK                            x       y       z     vdW  Elec       q    Type
REMARK                         _______ _______ _______ _____ _____    ______ ____
ROOT
ATOM      3  O   UNL     1       0.365  -0.968   0.202  0.00  0.00    -0.371 OA
ATOM      8  C   UNL     1      -1.669   0.140  -0.323  0.00  0.00    +0.111 C 
ATOM      9  C   UNL     1      -0.743   1.114   0.381  0.00  0.00    +0.164 C 
ATOM     10  C   UNL     1       0.608   0.448   0.157  0.00  0.00    +0.165 C 
ATOM     11  C   UNL     1      -1.048  -1.194   0.057  0.00  0.00    +0.181 C 
ENDROOT
BRANCH   9   4
ATOM      4  O   UNL     1      -0.789   2.413  -0.178  0.00  0.00    -0.388 OA
ATOM     24  H   UNL     1      -0.581   2.346  -1.125  0.00  0.00    +0.210 HD
ENDBRANCH   9   4
BRANCH   8   6
ATOM      6  N   UNL     1      -3.059   0.256   0.088  0.00  0.00    -0.304 NA
ATOM     23  H   UNL     1      -3.316   1.243   0.111  0.00  0.00    +0.123 HD
BRANCH   6  13
ATOM     13  C   UNL     1      -3.941  -0.445  -0.838  0.00  0.00    +0.124 C 
BRANCH  13  14
ATOM      1  S   UNL     1      -6.269  -1.784  -0.117  0.00  0.00    -0.100 S 
ATOM     14  C   UNL     1      -5.384  -0.350  -0.418  0.00  0.00    +0.004 A 
ATOM     16  C   UNL     1      -6.149   0.779  -0.227  0.00  0.00    +0.012 A 
ATOM     18  C   UNL     1      -7.479   0.463   0.172  0.00  0.00    +0.008 A 
ATOM     19  C   UNL     1      -7.681  -0.896   0.270  0.00  0.00    +0.045 A 
ENDBRANCH  13  14
ENDBRANCH   6  13
ENDBRANCH   8   6
BRANCH  10  12
ATOM     12  C   UNL     1       1.644   0.824   1.201  0.00  0.00    +0.138 C 
BRANCH  12   7
ATOM      5  O   UNL     1       3.809   1.821  -0.399  0.00  0.00    -0.270 OA
ATOM      7  N   UNL     1       2.897   0.171   0.953  0.00  0.00    -0.308 N 
ATOM     15  C   UNL     1       3.894   0.731   0.160  0.00  0.00    +0.251 C 
ATOM     25  H   UNL     1       3.031  -0.742   1.373  0.00  0.00    +0.149 HD
BRANCH  15  17
ATOM      2  S   UNL     1       6.398   0.534  -0.982  0.00  0.00    -0.092 S 
ATOM     17  C   UNL     1       5.123  -0.084  -0.021  0.00  0.00    +0.074 A 
ATOM     20  C   UNL     1       5.417  -1.328   0.491  0.00  0.00    +0.021 A 
ATOM     21  C   UNL     1       6.707  -1.781   0.088  0.00  0.00    +0.008 A 
ATOM     22  C   UNL     1       7.349  -0.865  -0.716  0.00  0.00    +0.046 A 
ENDBRANCH  15  17
ENDBRANCH  12   7
ENDBRANCH  10  12
TORSDOF 7
