REMARK  Name = 24039275
REMARK  13 active torsions:
REMARK  status: ('A' for Active; 'I' for Inactive)
REMARK    1  A    between atoms: O_2  and  C_14
REMARK    2  A    between atoms: N_7  and  C_28
REMARK    3  A    between atoms: N_9  and  C_29
REMARK    4  A    between atoms: N_10  and  C_41
REMARK    5  A    between atoms: N_11  and  C_46
REMARK    6  A    between atoms: C_12  and  C_20
REMARK    7  A    between atoms: C_15  and  C_21
REMARK    8  A    between atoms: C_17  and  C_24
REMARK    9  A    between atoms: C_21  and  C_25
REMARK   10  A    between atoms: C_21  and  C_26
REMARK   11  A    between atoms: C_28  and  C_29
REMARK   12  A    between atoms: C_30  and  C_31
REMARK   13  A    between atoms: C_38  and  C_41
REMARK                            x       y       z     vdW  Elec       q    Type
REMARK                         _______ _______ _______ _____ _____    ______ ____
ROOT
ATOM      1  S   UNL     1      -1.431   1.039   0.274  0.00  0.00    -0.057 S 
ATOM      4  O   UNL     1      -4.002  -2.630  -0.989  0.00  0.00    -0.270 OA
ATOM      6  N   UNL     1      -1.360  -1.474  -0.332  0.00  0.00    -0.229 NA
ATOM      8  N   UNL     1      -3.520  -0.404  -0.380  0.00  0.00    -0.261 N 
ATOM     12  C   UNL     1       2.422  -0.149   1.087  0.00  0.00    -0.022 C 
ATOM     13  C   UNL     1       2.470  -1.298   0.004  0.00  0.00    +0.033 C 
ATOM     14  C   UNL     1       3.678  -2.249   0.239  0.00  0.00    +0.123 C 
ATOM     15  C   UNL     1       5.017  -1.493   0.374  0.00  0.00    +0.029 C 
ATOM     16  C   UNL     1       3.790   0.571   1.142  0.00  0.00    +0.008 C 
ATOM     17  C   UNL     1       1.085  -2.056  -0.117  0.00  0.00    +0.042 C 
ATOM     18  C   UNL     1       4.953  -0.373   1.412  0.00  0.00    +0.007 C 
ATOM     19  C   UNL     1       1.351   0.912   0.684  0.00  0.00    +0.051 C 
ATOM     20  C   UNL     1       2.083  -0.694   2.498  0.00  0.00    +0.012 C 
ATOM     22  C   UNL     1      -0.062  -1.075  -0.065  0.00  0.00    +0.057 A 
ATOM     23  C   UNL     1       0.076   0.247   0.305  0.00  0.00    +0.015 A 
ATOM     24  C   UNL     1       0.975  -2.923  -1.379  0.00  0.00    +0.014 C 
ATOM     27  C   UNL     1      -2.163  -0.441  -0.196  0.00  0.00    +0.165 A 
ATOM     30  C   UNL     1      -4.346  -1.475  -0.757  0.00  0.00    +0.250 C 
ATOM     49  H   UNL     1      -3.932   0.500  -0.175  0.00  0.00    +0.157 HD
ENDROOT
BRANCH  30  31
ATOM     31  C   UNL     1      -5.795  -1.158  -0.854  0.00  0.00    +0.037 A 
ATOM     36  C   UNL     1      -6.207   0.144  -1.140  0.00  0.00    +0.013 A 
ATOM     37  C   UNL     1      -6.743  -2.162  -0.659  0.00  0.00    +0.013 A 
ATOM     38  C   UNL     1      -8.515  -0.563  -1.036  0.00  0.00    -0.033 A 
ATOM     39  C   UNL     1      -7.567   0.441  -1.230  0.00  0.00    +0.005 A 
ATOM     40  C   UNL     1      -8.103  -1.865  -0.750  0.00  0.00    +0.005 A 
BRANCH  38  41
ATOM     41  C   UNL     1      -9.969  -0.246  -1.131  0.00  0.00    +0.119 C 
BRANCH  41  10
ATOM     10  N   UNL     1     -10.318   0.984  -0.423  0.00  0.00    -0.296 NA
ATOM     11  N   UNL     1     -12.021   2.580   1.283  0.00  0.00    -0.303 NA
ATOM     42  C   UNL     1     -11.595   1.520  -0.908  0.00  0.00    +0.100 C 
ATOM     43  C   UNL     1     -10.376   0.753   1.025  0.00  0.00    +0.100 C 
ATOM     44  C   UNL     1     -11.964   2.809  -0.166  0.00  0.00    +0.099 C 
ATOM     45  C   UNL     1     -10.743   2.043   1.768  0.00  0.00    +0.099 C 
ATOM     46  C   UNL     1     -12.368   3.811   1.990  0.00  0.00    +0.105 C 
ENDBRANCH  41  10
ENDBRANCH  38  41
ENDBRANCH  30  31
BRANCH  14   2
ATOM      2  O   UNL     1       3.803  -3.138  -0.871  0.00  0.00    -0.391 OA
ATOM     47  H   UNL     1       3.955  -2.603  -1.669  0.00  0.00    +0.210 HD
ENDBRANCH  14   2
BRANCH  15  21
ATOM     21  C   UNL     1       6.175  -2.440   0.712  0.00  0.00    +0.077 C 
ATOM     25  C   UNL     1       5.900  -3.159   2.029  0.00  0.00    +0.017 C 
BRANCH  21  26
ATOM      3  O   UNL     1       8.204  -1.666   1.790  0.00  0.00    -0.276 OA
ATOM      7  N   UNL     1       7.789  -1.022  -0.399  0.00  0.00    -0.314 N 
ATOM     26  C   UNL     1       7.495  -1.679   0.786  0.00  0.00    +0.216 C 
ATOM     48  H   UNL     1       7.178  -1.127  -1.202  0.00  0.00    +0.149 HD
BRANCH   7  28
ATOM     28  C   UNL     1       8.988  -0.236  -0.580  0.00  0.00    +0.119 C 
BRANCH  28  29
ATOM     29  C   UNL     1       8.761   1.215  -0.181  0.00  0.00    +0.103 C 
BRANCH  29   9
ATOM      5  O   UNL     1      11.379   4.321  -1.234  0.00  0.00    -0.377 OA
ATOM      9  N   UNL     1       9.982   1.993  -0.380  0.00  0.00    -0.297 NA
ATOM     32  C   UNL     1       9.935   3.243   0.391  0.00  0.00    +0.112 C 
ATOM     33  C   UNL     1      10.185   2.288  -1.805  0.00  0.00    +0.112 C 
ATOM     34  C   UNL     1      11.213   4.044   0.157  0.00  0.00    +0.175 C 
ATOM     35  C   UNL     1      11.458   3.111  -1.987  0.00  0.00    +0.175 C 
ENDBRANCH  29   9
ENDBRANCH  28  29
ENDBRANCH   7  28
ENDBRANCH  21  26
ENDBRANCH  15  21
TORSDOF 9
