REMARK  Name = 7161676
REMARK  6 active torsions:
REMARK  status: ('A' for Active; 'I' for Inactive)
REMARK    1  A    between atoms: S_1  and  N_7
REMARK    2  A    between atoms: S_1  and  C_15
REMARK    3  A    between atoms: O_2  and  C_13
REMARK    4  A    between atoms: O_2  and  C_17
REMARK    5  A    between atoms: C_9  and  C_13
REMARK    6  A    between atoms: C_14  and  C_16
REMARK                            x       y       z     vdW  Elec       q    Type
REMARK                         _______ _______ _______ _____ _____    ______ ____
ROOT
ATOM      6  O   UNL     1      -3.733  -0.053   0.825  0.00  0.00    -0.276 OA
ATOM      7  N   UNL     1       1.161  -0.538  -0.157  0.00  0.00    -0.165 NA
ATOM      8  N   UNL     1      -1.667  -0.909   0.183  0.00  0.00    -0.298 N 
ATOM      9  C   UNL     1       0.382   0.422   0.675  0.00  0.00    +0.205 C 
ATOM     10  C   UNL     1      -0.928  -0.160   1.200  0.00  0.00    +0.139 C 
ATOM     11  C   UNL     1       0.573  -1.900  -0.249  0.00  0.00    +0.129 C 
ATOM     12  C   UNL     1      -0.881  -1.787  -0.688  0.00  0.00    +0.125 C 
ATOM     14  C   UNL     1      -3.056  -0.786   0.101  0.00  0.00    +0.213 C 
ATOM     16  C   UNL     1      -3.734  -1.626  -0.955  0.00  0.00    +0.109 C 
ENDROOT
BRANCH   7   1
ATOM      1  S   UNL     1       2.864  -0.462  -0.027  0.00  0.00    +0.030 S 
ATOM      3  O   UNL     1       3.251   0.909   0.225  0.00  0.00    -0.158 OA
ATOM      4  O   UNL     1       3.449  -1.231  -1.104  0.00  0.00    -0.158 OA
ATOM     15  C   UNL     1       3.076  -1.377   1.478  0.00  0.00    +0.215 C 
ENDBRANCH   7   1
BRANCH   9  13
ATOM      5  O   UNL     1       0.488   1.625  -1.404  0.00  0.00    -0.249 OA
ATOM     13  C   UNL     1       0.133   1.583  -0.234  0.00  0.00    +0.327 C 
BRANCH  13   2
ATOM      2  O   UNL     1      -0.537   2.557   0.444  0.00  0.00    -0.467 OA
ATOM     17  C   UNL     1      -0.842   3.734  -0.312  0.00  0.00    +0.280 C 
ENDBRANCH  13   2
ENDBRANCH   9  13
TORSDOF 3
