REMARK  Name = 45783753
REMARK  4 active torsions:
REMARK  status: ('A' for Active; 'I' for Inactive)
REMARK    1  A    between atoms: N_2  and  C_14
REMARK    2  A    between atoms: C_10  and  C_15
REMARK    3  A    between atoms: C_14  and  C_16
REMARK    4  A    between atoms: C_17  and  C_20
REMARK                            x       y       z     vdW  Elec       q    Type
REMARK                         _______ _______ _______ _____ _____    ______ ____
ROOT
ATOM      1  O   UNL     1      -0.497  -0.427   2.042  0.00  0.00    -0.336 OA
ATOM      3  N   UNL     1       0.185  -0.970  -0.021  0.00  0.00    -0.190 NA
ATOM      6  N   UNL     1       0.874  -0.144   1.998  0.00  0.00    -0.056 NA
ATOM     15  C   UNL     1      -0.822  -0.910   0.814  0.00  0.00    +0.245 A 
ATOM     17  C   UNL     1       1.203  -0.490   0.750  0.00  0.00    +0.207 A 
ENDROOT
BRANCH  17  20
ATOM      7  N   UNL     1       4.096  -0.022  -1.561  0.00  0.00    -0.220 NA
ATOM      8  N   UNL     1       1.773   0.001  -2.009  0.00  0.00    -0.342 N 
ATOM      9  N   UNL     1       4.907  -0.390   0.678  0.00  0.00    -0.243 NA
ATOM     20  C   UNL     1       2.540  -0.371   0.242  0.00  0.00    +0.080 A 
ATOM     21  C   UNL     1       2.838  -0.134  -1.084  0.00  0.00    +0.130 A 
ATOM     22  C   UNL     1       3.625  -0.491   1.086  0.00  0.00    +0.127 A 
ATOM     23  C   UNL     1       5.067  -0.159  -0.638  0.00  0.00    +0.223 A 
ATOM     25  H   UNL     1       2.034   0.184  -2.970  0.00  0.00    +0.144 HD
ATOM     26  H   UNL     1       0.921  -0.524  -1.853  0.00  0.00    +0.144 HD
ENDBRANCH  17  20
BRANCH  15  10
ATOM      2  N   UNL     1      -2.891  -0.572  -0.526  0.00  0.00    -0.284 NA
ATOM     10  C   UNL     1      -2.271  -1.295   0.602  0.00  0.00    +0.146 C 
ATOM     11  C   UNL     1      -2.444  -2.785   0.255  0.00  0.00    +0.030 C 
ATOM     12  C   UNL     1      -3.225  -2.801  -1.051  0.00  0.00    +0.017 C 
ATOM     13  C   UNL     1      -3.925  -1.456  -1.065  0.00  0.00    +0.085 C 
BRANCH   2  14
ATOM     14  C   UNL     1      -3.425   0.730  -0.149  0.00  0.00    +0.159 C 
BRANCH  14  16
ATOM      4  N   UNL     1      -1.555   2.075  -1.134  0.00  0.00    -0.347 N 
ATOM      5  N   UNL     1      -2.031   2.496   0.994  0.00  0.00    -0.239 NA
ATOM     16  C   UNL     1      -2.345   1.775  -0.060  0.00  0.00    +0.121 A 
ATOM     18  C   UNL     1      -0.681   3.050  -0.741  0.00  0.00    +0.104 A 
ATOM     19  C   UNL     1      -0.995   3.292   0.576  0.00  0.00    +0.130 A 
ATOM     24  H   UNL     1      -1.604   1.652  -2.051  0.00  0.00    +0.167 HD
ENDBRANCH  14  16
ENDBRANCH   2  14
ENDBRANCH  15  10
TORSDOF 4
