REMARK  Name = 75536198
REMARK  3 active torsions:
REMARK  status: ('A' for Active; 'I' for Inactive)
REMARK    1  A    between atoms: N_2  and  C_11
REMARK    2  A    between atoms: C_6  and  C_9
REMARK    3  A    between atoms: C_12  and  C_14
REMARK                            x       y       z     vdW  Elec       q    Type
REMARK                         _______ _______ _______ _____ _____    ______ ____
ROOT
ATOM      3  N   UNL     1      -0.249   0.176  -0.355  0.00  0.00    -0.341 N 
ATOM      4  N   UNL     1       0.661  -1.136   1.189  0.00  0.00    -0.238 NA
ATOM      9  C   UNL     1       0.904  -0.313   0.193  0.00  0.00    +0.127 A 
ATOM     12  C   UNL     1      -1.294  -0.371   0.335  0.00  0.00    +0.066 A 
ATOM     13  C   UNL     1      -0.708  -1.177   1.282  0.00  0.00    +0.139 A 
ATOM     19  H   UNL     1      -0.309   0.817  -1.135  0.00  0.00    +0.167 HD
ENDROOT
BRANCH   9   6
ATOM      1  O   UNL     1       4.255  -0.807  -1.445  0.00  0.00    -0.377 OA
ATOM      2  N   UNL     1       3.131   0.756   0.674  0.00  0.00    -0.292 NA
ATOM      6  C   UNL     1       2.270   0.096  -0.340  0.00  0.00    +0.149 C 
ATOM      7  C   UNL     1       2.979  -1.150  -0.905  0.00  0.00    +0.186 C 
ATOM      8  C   UNL     1       4.466   1.025   0.112  0.00  0.00    +0.113 C 
ATOM     10  C   UNL     1       5.091  -0.253  -0.432  0.00  0.00    +0.175 C 
ATOM     11  C   UNL     1       2.551   2.015   1.157  0.00  0.00    +0.105 C 
ENDBRANCH   9   6
BRANCH  12  14
ATOM      5  N   UNL     1      -5.354   0.469  -0.530  0.00  0.00    -0.263 NA
ATOM     14  C   UNL     1      -2.674  -0.086   0.040  0.00  0.00    +0.003 A 
ATOM     15  C   UNL     1      -3.652  -1.044   0.284  0.00  0.00    +0.029 A 
ATOM     16  C   UNL     1      -3.034   1.149  -0.488  0.00  0.00    +0.029 A 
ATOM     17  C   UNL     1      -4.966  -0.720  -0.016  0.00  0.00    +0.111 A 
ATOM     18  C   UNL     1      -4.375   1.374  -0.753  0.00  0.00    +0.111 A 
ENDBRANCH  12  14
TORSDOF 2
