REMARK  Name = 25338851
REMARK  4 active torsions:
REMARK  status: ('A' for Active; 'I' for Inactive)
REMARK    1  A    between atoms: N_3  and  C_12
REMARK    2  A    between atoms: N_3  and  C_14
REMARK    3  A    between atoms: C_6  and  C_11
REMARK    4  A    between atoms: C_12  and  C_15
REMARK                            x       y       z     vdW  Elec       q    Type
REMARK                         _______ _______ _______ _____ _____    ______ ____
ROOT
ATOM      2  N   UNL     1       2.194   1.649   0.733  0.00  0.00    -0.300 NA
ATOM      4  N   UNL     1       5.081  -0.629   0.086  0.00  0.00    -0.347 N 
ATOM      5  N   UNL     1       3.503  -2.163  -0.316  0.00  0.00    -0.240 NA
ATOM      6  C   UNL     1       1.287   0.914  -0.175  0.00  0.00    +0.147 C 
ATOM      7  C   UNL     1       1.490  -0.625  -0.123  0.00  0.00    +0.085 C 
ATOM      8  C   UNL     1       2.937  -0.938  -0.112  0.00  0.00    +0.065 A 
ATOM      9  C   UNL     1       3.621   1.454   0.388  0.00  0.00    +0.137 C 
ATOM     10  C   UNL     1       3.887   0.021   0.142  0.00  0.00    +0.053 A 
ATOM     13  C   UNL     1       4.798  -1.944  -0.193  0.00  0.00    +0.197 A 
ATOM     21  H   UNL     1       2.046   1.312   1.686  0.00  0.00    +0.123 HD
ATOM     22  H   UNL     1       6.000  -0.227   0.218  0.00  0.00    +0.167 HD
ENDROOT
BRANCH   6  11
ATOM      1  O   UNL     1      -0.330   1.463   1.452  0.00  0.00    -0.274 OA
ATOM      3  N   UNL     1      -1.075   1.306  -0.744  0.00  0.00    -0.299 N 
ATOM     11  C   UNL     1      -0.104   1.252   0.257  0.00  0.00    +0.233 C 
ATOM     14  C   UNL     1      -0.765   1.049  -2.145  0.00  0.00    +0.132 C 
BRANCH   3  12
ATOM     12  C   UNL     1      -2.472   1.624  -0.462  0.00  0.00    +0.142 C 
BRANCH  12  15
ATOM     15  C   UNL     1      -3.269   0.399  -0.117  0.00  0.00    -0.030 A 
ATOM     16  C   UNL     1      -3.909  -0.322  -1.125  0.00  0.00    +0.005 A 
ATOM     17  C   UNL     1      -3.368  -0.018   1.210  0.00  0.00    +0.005 A 
ATOM     18  C   UNL     1      -4.649  -1.460  -0.806  0.00  0.00    +0.000 A 
ATOM     19  C   UNL     1      -4.109  -1.156   1.529  0.00  0.00    +0.000 A 
ATOM     20  C   UNL     1      -4.749  -1.877   0.522  0.00  0.00    +0.000 A 
ENDBRANCH  12  15
ENDBRANCH   3  12
ENDBRANCH   6  11
TORSDOF 3
