REMARK  Name = 11882571
REMARK  13 active torsions:
REMARK  status: ('A' for Active; 'I' for Inactive)
REMARK    1  A    between atoms: S_1  and  N_13
REMARK    2  A    between atoms: S_1  and  C_24
REMARK    3  A    between atoms: O_5  and  C_16
REMARK    4  A    between atoms: O_6  and  C_19
REMARK    5  A    between atoms: O_7  and  C_21
REMARK    6  A    between atoms: O_12  and  C_38
REMARK    7  A    between atoms: N_13  and  C_17
REMARK    8  A    between atoms: N_14  and  C_23
REMARK    9  A    between atoms: C_16  and  C_22
REMARK   10  A    between atoms: C_23  and  C_25
REMARK   11  A    between atoms: C_23  and  C_26
REMARK   12  A    between atoms: C_25  and  C_29
REMARK   13  A    between atoms: C_30  and  C_35
REMARK                            x       y       z     vdW  Elec       q    Type
REMARK                         _______ _______ _______ _____ _____    ______ ____
ROOT
ATOM     16  C   UNL     1       1.728   1.575   1.060  0.00  0.00    +0.145 C 
ATOM     17  C   UNL     1      -0.607   1.038   0.228  0.00  0.00    +0.111 C 
ATOM     18  C   UNL     1       0.851   0.577   0.301  0.00  0.00    +0.067 C 
ATOM     19  C   UNL     1      -0.741   2.453  -0.345  0.00  0.00    +0.162 C 
ATOM     20  C   UNL     1       1.607   2.977   0.468  0.00  0.00    +0.078 C 
ATOM     21  C   UNL     1       0.155   3.452   0.396  0.00  0.00    +0.148 C 
ENDROOT
BRANCH  16  22
ATOM      8  O   UNL     1       3.780   0.920   2.094  0.00  0.00    -0.273 OA
ATOM     14  N   UNL     1       3.671   1.025  -0.229  0.00  0.00    -0.301 N 
ATOM     22  C   UNL     1       3.162   1.132   1.053  0.00  0.00    +0.245 C 
ATOM     43  H   UNL     1       3.094   1.264  -1.029  0.00  0.00    +0.150 HD
BRANCH  14  23
ATOM     23  C   UNL     1       5.036   0.638  -0.508  0.00  0.00    +0.163 C 
BRANCH  23  26
ATOM     11  O   UNL     1       5.126   2.576  -1.972  0.00  0.00    -0.274 OA
ATOM     15  N   UNL     1       7.020   1.983  -0.815  0.00  0.00    -0.328 N 
ATOM     26  C   UNL     1       5.705   1.819  -1.195  0.00  0.00    +0.231 C 
ATOM     44  H   UNL     1       7.578   2.744  -1.187  0.00  0.00    +0.145 HD
ATOM     45  H   UNL     1       7.485   1.353  -0.169  0.00  0.00    +0.145 HD
ENDBRANCH  23  26
BRANCH  23  25
ATOM     25  C   UNL     1       5.114  -0.610  -1.395  0.00  0.00    +0.067 C 
BRANCH  25  29
ATOM     29  C   UNL     1       4.439  -1.810  -0.776  0.00  0.00    -0.045 A 
ATOM     33  C   UNL     1       5.167  -2.676   0.040  0.00  0.00    +0.007 A 
ATOM     34  C   UNL     1       3.088  -2.052  -1.021  0.00  0.00    +0.007 A 
ATOM     36  C   UNL     1       4.543  -3.784   0.612  0.00  0.00    +0.045 A 
ATOM     37  C   UNL     1       2.463  -3.161  -0.449  0.00  0.00    +0.045 A 
ATOM     38  C   UNL     1       3.191  -4.027   0.367  0.00  0.00    +0.117 A 
BRANCH  38  12
ATOM     12  O   UNL     1       2.582  -5.108   0.926  0.00  0.00    -0.507 OA
ATOM     46  H   UNL     1       1.649  -5.121   0.652  0.00  0.00    +0.292 HD
ENDBRANCH  38  12
ENDBRANCH  25  29
ENDBRANCH  23  25
ENDBRANCH  14  23
ENDBRANCH  16  22
BRANCH  16   5
ATOM      5  O   UNL     1       1.361   1.616   2.434  0.00  0.00    -0.379 OA
ATOM     40  H   UNL     1       1.337   0.704   2.770  0.00  0.00    +0.211 HD
ENDBRANCH  16   5
BRANCH  19   6
ATOM      6  O   UNL     1      -2.103   2.862  -0.196  0.00  0.00    -0.388 OA
ATOM     41  H   UNL     1      -2.318   2.858   0.752  0.00  0.00    +0.210 HD
ENDBRANCH  19   6
BRANCH  21   7
ATOM      7  O   UNL     1       0.144   4.705  -0.288  0.00  0.00    -0.389 OA
ATOM     42  H   UNL     1       0.695   5.323   0.222  0.00  0.00    +0.210 HD
ENDBRANCH  21   7
BRANCH  17  13
ATOM     13  N   UNL     1      -1.360   0.090  -0.638  0.00  0.00    -0.184 NA
ATOM     39  H   UNL     1      -1.116   0.088  -1.636  0.00  0.00    +0.148 HD
BRANCH  13   1
ATOM      1  S   UNL     1      -2.077  -1.283   0.048  0.00  0.00    +0.059 S 
ATOM      9  O   UNL     1      -1.386  -1.630   1.276  0.00  0.00    -0.153 OA
ATOM     10  O   UNL     1      -2.260  -2.278  -0.992  0.00  0.00    -0.153 OA
BRANCH   1  24
ATOM     24  C   UNL     1      -3.684  -0.684   0.477  0.00  0.00    +0.106 A 
ATOM     27  C   UNL     1      -4.731  -0.778  -0.440  0.00  0.00    +0.041 A 
ATOM     28  C   UNL     1      -3.905  -0.120   1.734  0.00  0.00    +0.028 A 
ATOM     30  C   UNL     1      -5.999  -0.306  -0.100  0.00  0.00    +0.057 A 
ATOM     31  C   UNL     1      -5.173   0.351   2.073  0.00  0.00    +0.002 A 
ATOM     32  C   UNL     1      -6.220   0.258   1.156  0.00  0.00    +0.012 A 
BRANCH  30  35
ATOM      2  F   UNL     1      -8.301   0.093  -0.613  0.00  0.00    -0.166 F 
ATOM      3  F   UNL     1      -6.886   0.264  -2.247  0.00  0.00    -0.166 F 
ATOM      4  F   UNL     1      -7.384  -1.694  -1.444  0.00  0.00    -0.166 F 
ATOM     35  C   UNL     1      -7.119  -0.406  -1.080  0.00  0.00    +0.417 C 
ENDBRANCH  30  35
ENDBRANCH   1  24
ENDBRANCH  13   1
ENDBRANCH  17  13
TORSDOF 13
