REMARK  Name = 75367815
REMARK  6 active torsions:
REMARK  status: ('A' for Active; 'I' for Inactive)
REMARK    1  A    between atoms: O_2  and  C_7
REMARK    2  A    between atoms: O_2  and  C_13
REMARK    3  A    between atoms: N_6  and  C_16
REMARK    4  A    between atoms: N_6  and  C_17
REMARK    5  A    between atoms: C_12  and  C_14
REMARK    6  A    between atoms: C_13  and  C_15
REMARK                            x       y       z     vdW  Elec       q    Type
REMARK                         _______ _______ _______ _____ _____    ______ ____
ROOT
ATOM      1  O   UNL     1      -2.090  -2.567  -0.205  0.00  0.00    -0.376 OA
ATOM      3  O   UNL     1      -4.445   1.740  -0.157  0.00  0.00    -0.276 OA
ATOM      5  N   UNL     1      -2.432   0.567  -0.243  0.00  0.00    -0.297 N 
ATOM      7  C   UNL     1      -0.331  -0.880  -0.044  0.00  0.00    +0.162 C 
ATOM      8  C   UNL     1      -1.022   0.474   0.147  0.00  0.00    +0.141 C 
ATOM      9  C   UNL     1      -1.072  -2.030   0.632  0.00  0.00    +0.193 C 
ATOM     10  C   UNL     1      -2.993  -0.479  -1.102  0.00  0.00    +0.136 C 
ATOM     11  C   UNL     1      -3.255  -1.758  -0.318  0.00  0.00    +0.179 C 
ATOM     12  C   UNL     1      -3.260   1.624   0.162  0.00  0.00    +0.213 C 
ATOM     14  C   UNL     1      -2.629   2.667   1.054  0.00  0.00    +0.109 C 
ENDROOT
BRANCH   7   2
ATOM      2  O   UNL     1       0.968  -0.793   0.544  0.00  0.00    -0.364 OA
BRANCH   2  13
ATOM     13  C   UNL     1       1.881  -0.136  -0.321  0.00  0.00    +0.256 C 
BRANCH  13  15
ATOM      4  O   UNL     1       3.377  -0.520   1.476  0.00  0.00    -0.273 OA
ATOM      6  N   UNL     1       4.281   0.512  -0.397  0.00  0.00    -0.306 N 
ATOM     15  C   UNL     1       3.243  -0.064   0.336  0.00  0.00    +0.241 C 
ATOM     16  C   UNL     1       5.613   0.596   0.189  0.00  0.00    +0.131 C 
ATOM     17  C   UNL     1       4.166   1.047  -1.752  0.00  0.00    +0.131 C 
ENDBRANCH  13  15
ENDBRANCH   2  13
ENDBRANCH   7   2
TORSDOF 3
