REMARK  Name = 26743405
REMARK  6 active torsions:
REMARK  status: ('A' for Active; 'I' for Inactive)
REMARK    1  A    between atoms: N_4  and  C_9
REMARK    2  A    between atoms: N_5  and  C_18
REMARK    3  A    between atoms: C_7  and  C_10
REMARK    4  A    between atoms: C_13  and  C_15
REMARK    5  A    between atoms: C_14  and  C_16
REMARK    6  A    between atoms: C_17  and  C_19
REMARK                            x       y       z     vdW  Elec       q    Type
REMARK                         _______ _______ _______ _____ _____    ______ ____
ROOT
ATOM      7  C   UNL     1      -0.820  -0.659   0.454  0.00  0.00    +0.047 C 
ATOM      8  C   UNL     1      -0.183   0.626  -0.108  0.00  0.00    +0.039 C 
ATOM      9  C   UNL     1       0.810   1.115   0.960  0.00  0.00    +0.097 C 
ATOM     11  C   UNL     1      -0.601  -0.503   1.930  0.00  0.00    -0.021 C 
ATOM     12  C   UNL     1       0.291   0.456   2.200  0.00  0.00    -0.009 C 
ENDROOT
BRANCH   7  10
ATOM      5  N   UNL     1      -4.411  -0.583  -0.268  0.00  0.00    -0.236 N 
ATOM      6  N   UNL     1      -4.144  -1.750  -0.879  0.00  0.00    -0.171 NA
ATOM     10  C   UNL     1      -2.264  -0.838   0.045  0.00  0.00    +0.003 A 
ATOM     13  C   UNL     1      -3.319   0.004   0.301  0.00  0.00    +0.046 A 
ATOM     14  C   UNL     1      -2.831  -1.901  -0.684  0.00  0.00    +0.064 A 
ATOM     15  C   UNL     1      -3.375   1.291   1.024  0.00  0.00    +0.066 C 
ATOM     16  C   UNL     1      -2.151  -3.092  -1.222  0.00  0.00    +0.068 C 
BRANCH   5  18
ATOM     18  C   UNL     1      -5.715  -0.088  -0.262  0.00  0.00    +0.066 A 
ATOM     20  C   UNL     1      -5.993   1.152  -0.838  0.00  0.00    +0.028 A 
ATOM     21  C   UNL     1      -6.742  -0.833   0.317  0.00  0.00    +0.028 A 
ATOM     26  C   UNL     1      -7.297   1.647  -0.833  0.00  0.00    +0.002 A 
ATOM     27  C   UNL     1      -8.046  -0.339   0.321  0.00  0.00    +0.002 A 
ATOM     29  C   UNL     1      -8.324   0.901  -0.254  0.00  0.00    +0.000 A 
ENDBRANCH   5  18
ENDBRANCH   7  10
BRANCH   9   4
ATOM      1  O   UNL     1       2.809   2.628  -0.454  0.00  0.00    -0.270 OA
ATOM      4  N   UNL     1       2.177   0.700   0.668  0.00  0.00    -0.305 N 
ATOM     17  C   UNL     1       3.094   1.494  -0.028  0.00  0.00    +0.245 C 
ATOM     31  H   UNL     1       2.425  -0.252   0.918  0.00  0.00    +0.150 HD
BRANCH  17  19
ATOM      2  O   UNL     1       6.832  -1.475   1.093  0.00  0.00    -0.453 OA
ATOM      3  O   UNL     1       8.119  -0.750  -0.811  0.00  0.00    -0.453 OA
ATOM     19  C   UNL     1       4.413   0.928  -0.263  0.00  0.00    +0.040 A 
ATOM     22  C   UNL     1       4.922  -0.031   0.616  0.00  0.00    +0.062 A 
ATOM     23  C   UNL     1       5.165   1.351  -1.373  0.00  0.00    +0.017 A 
ATOM     24  C   UNL     1       6.177  -0.540   0.352  0.00  0.00    +0.167 A 
ATOM     25  C   UNL     1       6.912  -0.126  -0.735  0.00  0.00    +0.166 A 
ATOM     28  C   UNL     1       6.433   0.820  -1.618  0.00  0.00    +0.050 A 
ATOM     30  C   UNL     1       8.061  -1.603   0.350  0.00  0.00    +0.466 C 
ENDBRANCH  17  19
ENDBRANCH   9   4
TORSDOF 4
