REMARK  Name = 51136657
REMARK  8 active torsions:
REMARK  status: ('A' for Active; 'I' for Inactive)
REMARK    1  A    between atoms: O_3  and  C_18
REMARK    2  A    between atoms: O_5  and  C_26
REMARK    3  A    between atoms: O_5  and  C_32
REMARK    4  A    between atoms: C_8  and  C_13
REMARK    5  A    between atoms: C_9  and  C_14
REMARK    6  A    between atoms: C_13  and  C_15
REMARK    7  A    between atoms: C_14  and  C_18
REMARK    8  A    between atoms: C_16  and  C_22
REMARK                            x       y       z     vdW  Elec       q    Type
REMARK                         _______ _______ _______ _____ _____    ______ ____
ROOT
ATOM      2  O   UNL     1       0.841   3.336   1.952  0.00  0.00    -0.270 OA
ATOM      6  N   UNL     1       1.848   2.037   0.287  0.00  0.00    -0.297 N 
ATOM      8  C   UNL     1       2.298  -0.188  -0.725  0.00  0.00    +0.016 C 
ATOM      9  C   UNL     1       3.724  -0.131  -0.120  0.00  0.00    +0.006 C 
ATOM     10  C   UNL     1       3.770   0.752   1.138  0.00  0.00    +0.023 C 
ATOM     11  C   UNL     1       1.764   1.239  -0.945  0.00  0.00    +0.112 C 
ATOM     12  C   UNL     1       3.187   2.135   0.864  0.00  0.00    +0.108 C 
ATOM     16  C   UNL     1       0.777   2.673   0.918  0.00  0.00    +0.247 C 
ENDROOT
BRANCH  16  22
ATOM      1  F   UNL     1      -4.294   2.207  -1.404  0.00  0.00    -0.205 F 
ATOM     22  C   UNL     1      -0.553   2.551   0.309  0.00  0.00    +0.037 A 
ATOM     27  C   UNL     1      -0.772   3.017  -0.987  0.00  0.00    +0.016 A 
ATOM     28  C   UNL     1      -1.598   1.969   1.027  0.00  0.00    +0.016 A 
ATOM     29  C   UNL     1      -2.035   2.901  -1.566  0.00  0.00    +0.039 A 
ATOM     30  C   UNL     1      -2.862   1.853   0.448  0.00  0.00    +0.039 A 
ATOM     31  C   UNL     1      -3.080   2.319  -0.848  0.00  0.00    +0.123 A 
ENDBRANCH  16  22
BRANCH   8  13
ATOM     13  C   UNL     1       1.302  -1.007   0.105  0.00  0.00    +0.061 C 
BRANCH  13  15
ATOM      7  N   UNL     1       0.362  -1.607  -2.022  0.00  0.00    -0.287 NA
ATOM     15  C   UNL     1       0.141  -1.433  -0.760  0.00  0.00    +0.044 C 
ATOM     17  C   UNL     1      -1.190  -1.623  -0.129  0.00  0.00    -0.001 A 
ATOM     19  C   UNL     1      -2.299  -1.633  -0.985  0.00  0.00    -0.033 A 
ATOM     20  C   UNL     1      -2.075  -1.439  -2.455  0.00  0.00    +0.059 C 
ATOM     21  C   UNL     1      -0.751  -2.079  -2.852  0.00  0.00    +0.146 C 
ATOM     23  C   UNL     1      -1.358  -1.773   1.249  0.00  0.00    +0.013 A 
ATOM     24  C   UNL     1      -3.583  -1.767  -0.450  0.00  0.00    +0.050 A 
ATOM     25  C   UNL     1      -2.643  -1.922   1.773  0.00  0.00    +0.046 A 
ATOM     26  C   UNL     1      -3.752  -1.916   0.927  0.00  0.00    +0.120 A 
BRANCH  26   5
ATOM      5  O   UNL     1      -5.003  -2.055   1.447  0.00  0.00    -0.495 OA
ATOM     32  C   UNL     1      -5.105  -2.201   2.862  0.00  0.00    +0.277 C 
ENDBRANCH  26   5
ENDBRANCH  13  15
ENDBRANCH   8  13
BRANCH   9  14
ATOM     14  C   UNL     1       4.310  -1.513   0.169  0.00  0.00    +0.124 C 
BRANCH  14  18
ATOM      4  O   UNL     1       6.524  -0.498   0.070  0.00  0.00    -0.251 OA
ATOM     18  C   UNL     1       5.812  -1.479   0.225  0.00  0.00    +0.305 C 
BRANCH  18   3
ATOM      3  O   UNL     1       6.290  -2.724   0.478  0.00  0.00    -0.481 OA
ATOM     33  H   UNL     1       7.269  -2.739   0.521  0.00  0.00    +0.295 HD
ENDBRANCH  18   3
ENDBRANCH  14  18
ENDBRANCH   9  14
TORSDOF 7
