REMARK  Name = 45784271
REMARK  3 active torsions:
REMARK  status: ('A' for Active; 'I' for Inactive)
REMARK    1  A    between atoms: N_5  and  C_9
REMARK    2  A    between atoms: C_8  and  C_15
REMARK    3  A    between atoms: C_22  and  C_24
REMARK                            x       y       z     vdW  Elec       q    Type
REMARK                         _______ _______ _______ _____ _____    ______ ____
ROOT
ATOM      6  N   UNL     1       1.250   0.707   1.179  0.00  0.00    -0.342 N 
ATOM      7  N   UNL     1       0.546   0.310  -0.891  0.00  0.00    -0.232 NA
ATOM     15  C   UNL     1       0.191   0.691   0.316  0.00  0.00    +0.113 A 
ATOM     18  C   UNL     1       2.363   0.311   0.484  0.00  0.00    +0.067 A 
ATOM     19  C   UNL     1       1.898   0.069  -0.806  0.00  0.00    +0.089 A 
ATOM     20  C   UNL     1       3.697   0.148   0.860  0.00  0.00    +0.040 A 
ATOM     21  C   UNL     1       2.803  -0.361  -1.791  0.00  0.00    +0.030 A 
ATOM     22  C   UNL     1       4.584  -0.281  -0.133  0.00  0.00    +0.057 A 
ATOM     23  C   UNL     1       4.146  -0.531  -1.436  0.00  0.00    +0.014 A 
ATOM     25  H   UNL     1       1.222   0.965   2.157  0.00  0.00    +0.167 HD
ENDROOT
BRANCH  15   8
ATOM      5  N   UNL     1      -3.473   0.667   0.374  0.00  0.00    -0.299 NA
ATOM      8  C   UNL     1      -1.198   1.077   0.769  0.00  0.00    +0.070 C 
ATOM     10  C   UNL     1      -2.220  -0.056   0.601  0.00  0.00    +0.096 C 
ATOM     11  C   UNL     1      -3.125   1.745  -0.552  0.00  0.00    +0.085 C 
ATOM     12  C   UNL     1      -1.814   2.272   0.019  0.00  0.00    +0.028 C 
BRANCH   5   9
ATOM      4  O   UNL     1      -7.172  -1.302   0.120  0.00  0.00    -0.380 OA
ATOM      9  C   UNL     1      -4.528  -0.198  -0.151  0.00  0.00    +0.061 C 
ATOM     13  C   UNL     1      -4.855  -1.307   0.853  0.00  0.00    +0.047 C 
ATOM     14  C   UNL     1      -5.791   0.607  -0.473  0.00  0.00    +0.047 C 
ATOM     16  C   UNL     1      -6.038  -2.135   0.361  0.00  0.00    +0.161 C 
ATOM     17  C   UNL     1      -6.921  -0.327  -0.892  0.00  0.00    +0.161 C 
ENDBRANCH   5   9
ENDBRANCH  15   8
BRANCH  22  24
ATOM      1  F   UNL     1       6.763  -0.893  -0.860  0.00  0.00    -0.166 F 
ATOM      2  F   UNL     1       6.636   0.661   0.655  0.00  0.00    -0.166 F 
ATOM      3  F   UNL     1       6.233  -1.402   1.187  0.00  0.00    -0.166 F 
ATOM     24  C   UNL     1       6.025  -0.474   0.208  0.00  0.00    +0.417 C 
ENDBRANCH  22  24
TORSDOF 3
