REMARK  Name = 25390203
REMARK  10 active torsions:
REMARK  status: ('A' for Active; 'I' for Inactive)
REMARK    1  A    between atoms: O_3  and  C_9
REMARK    2  A    between atoms: O_4  and  C_11
REMARK    3  A    between atoms: N_7  and  C_14
REMARK    4  A    between atoms: N_8  and  C_16
REMARK    5  A    between atoms: N_8  and  C_18
REMARK    6  A    between atoms: C_10  and  C_13
REMARK    7  A    between atoms: C_12  and  C_14
REMARK    8  A    between atoms: C_13  and  C_15
REMARK    9  A    between atoms: C_16  and  C_19
REMARK   10  A    between atoms: C_17  and  C_20
REMARK                            x       y       z     vdW  Elec       q    Type
REMARK                         _______ _______ _______ _____ _____    ______ ____
ROOT
ATOM      2  O   UNL     1       2.609  -1.028   0.967  0.00  0.00    -0.366 OA
ATOM      9  C   UNL     1       4.071  -0.911  -0.906  0.00  0.00    +0.175 C 
ATOM     10  C   UNL     1       2.789  -1.541  -0.373  0.00  0.00    +0.159 C 
ATOM     11  C   UNL     1       4.115   0.401  -0.151  0.00  0.00    +0.176 C 
ATOM     12  C   UNL     1       3.601  -0.017   1.217  0.00  0.00    +0.167 C 
ENDROOT
BRANCH   9   3
ATOM      3  O   UNL     1       5.166  -1.741  -0.520  0.00  0.00    -0.387 OA
ATOM     31  H   UNL     1       5.080  -2.580  -1.005  0.00  0.00    +0.210 HD
ENDBRANCH   9   3
BRANCH  11   4
ATOM      4  O   UNL     1       5.408   0.964  -0.082  0.00  0.00    -0.387 OA
ATOM     32  H   UNL     1       5.721   1.088  -0.994  0.00  0.00    +0.210 HD
ENDBRANCH  11   4
BRANCH  10  13
ATOM     13  C   UNL     1       1.557  -1.163  -1.185  0.00  0.00    +0.130 C 
BRANCH  13  15
ATOM      5  O   UNL     1       0.455  -2.977  -0.073  0.00  0.00    -0.276 OA
ATOM      8  N   UNL     1      -0.819  -1.762  -1.583  0.00  0.00    -0.300 N 
ATOM     15  C   UNL     1       0.359  -2.055  -0.887  0.00  0.00    +0.218 C 
ATOM     18  C   UNL     1      -0.908  -0.667  -2.542  0.00  0.00    +0.132 C 
BRANCH   8  16
ATOM     16  C   UNL     1      -2.048  -2.530  -1.401  0.00  0.00    +0.142 C 
BRANCH  16  19
ATOM     19  C   UNL     1      -2.931  -1.935  -0.343  0.00  0.00    -0.030 A 
ATOM     21  C   UNL     1      -2.795  -2.335   0.986  0.00  0.00    +0.005 A 
ATOM     22  C   UNL     1      -3.889  -0.981  -0.690  0.00  0.00    +0.005 A 
ATOM     25  C   UNL     1      -3.615  -1.782   1.969  0.00  0.00    +0.000 A 
ATOM     26  C   UNL     1      -4.709  -0.428   0.293  0.00  0.00    +0.000 A 
ATOM     29  C   UNL     1      -4.573  -0.828   1.622  0.00  0.00    +0.000 A 
ENDBRANCH  16  19
ENDBRANCH   8  16
ENDBRANCH  13  15
ENDBRANCH  10  13
BRANCH  12  14
ATOM     14  C   UNL     1       2.981   1.125   2.002  0.00  0.00    +0.138 C 
BRANCH  14   7
ATOM      6  O   UNL     1       0.234   0.315   2.207  0.00  0.00    -0.270 OA
ATOM      7  N   UNL     1       1.867   1.691   1.300  0.00  0.00    -0.309 N 
ATOM     17  C   UNL     1       0.562   1.234   1.461  0.00  0.00    +0.244 C 
ATOM     33  H   UNL     1       2.060   2.491   0.707  0.00  0.00    +0.149 HD
BRANCH  17  20
ATOM      1  F   UNL     1      -0.775   3.692  -2.516  0.00  0.00    -0.205 F 
ATOM     20  C   UNL     1      -0.477   1.909   0.641  0.00  0.00    +0.039 A 
ATOM     23  C   UNL     1      -0.132   2.496  -0.576  0.00  0.00    +0.051 A 
ATOM     24  C   UNL     1      -1.797   1.957   1.089  0.00  0.00    +0.013 A 
ATOM     27  C   UNL     1      -1.107   3.130  -1.346  0.00  0.00    +0.124 A 
ATOM     28  C   UNL     1      -2.772   2.591   0.319  0.00  0.00    +0.004 A 
ATOM     30  C   UNL     1      -2.427   3.178  -0.898  0.00  0.00    +0.038 A 
ENDBRANCH  17  20
ENDBRANCH  14   7
ENDBRANCH  12  14
TORSDOF 9
