REMARK  Name = 26742536
REMARK  10 active torsions:
REMARK  status: ('A' for Active; 'I' for Inactive)
REMARK    1  A    between atoms: O_3  and  C_22
REMARK    2  A    between atoms: O_4  and  C_23
REMARK    3  A    between atoms: O_4  and  C_28
REMARK    4  A    between atoms: N_7  and  C_19
REMARK    5  A    between atoms: C_9  and  C_15
REMARK    6  A    between atoms: C_10  and  C_14
REMARK    7  A    between atoms: C_14  and  C_16
REMARK    8  A    between atoms: C_15  and  C_17
REMARK    9  A    between atoms: C_19  and  C_21
REMARK   10  A    between atoms: C_20  and  C_22
REMARK                            x       y       z     vdW  Elec       q    Type
REMARK                         _______ _______ _______ _____ _____    ______ ____
ROOT
ATOM      6  N   UNL     1      -0.738   2.153  -0.551  0.00  0.00    -0.316 NA
ATOM      9  C   UNL     1      -0.173  -0.741  -0.435  0.00  0.00    +0.004 C 
ATOM     10  C   UNL     1      -1.607  -0.164  -0.348  0.00  0.00    +0.012 C 
ATOM     11  C   UNL     1       0.728   0.264  -1.172  0.00  0.00    +0.019 C 
ATOM     12  C   UNL     1      -1.610   1.265   0.218  0.00  0.00    +0.085 C 
ATOM     13  C   UNL     1       0.641   1.669  -0.579  0.00  0.00    +0.081 C 
ATOM     29  H   UNL     1      -0.760   3.086  -0.141  0.00  0.00    +0.122 HD
ENDROOT
BRANCH  10  14
ATOM     14  C   UNL     1      -2.565  -1.057   0.441  0.00  0.00    +0.064 C 
BRANCH  14  16
ATOM      2  O   UNL     1      -5.867  -0.969  -0.992  0.00  0.00    -0.348 OA
ATOM      8  N   UNL     1      -4.570  -1.463  -0.922  0.00  0.00    -0.082 NA
ATOM     16  C   UNL     1      -3.995  -0.783   0.075  0.00  0.00    +0.085 A 
ATOM     18  C   UNL     1      -4.872   0.144   0.664  0.00  0.00    +0.083 A 
ATOM     20  C   UNL     1      -6.035  -0.013  -0.043  0.00  0.00    +0.244 A 
BRANCH  20  22
ATOM      5  O   UNL     1      -8.310   0.398  -0.656  0.00  0.00    -0.242 OA
ATOM     22  C   UNL     1      -7.302   0.624   0.055  0.00  0.00    +0.375 C 
BRANCH  22   3
ATOM      3  O   UNL     1      -7.368   1.574   1.045  0.00  0.00    -0.475 OA
ATOM     31  H   UNL     1      -8.255   1.993   1.084  0.00  0.00    +0.296 HD
ENDBRANCH  22   3
ENDBRANCH  20  22
ENDBRANCH  14  16
ENDBRANCH  10  14
BRANCH   9  15
ATOM     15  C   UNL     1       0.429  -1.121   0.922  0.00  0.00    +0.099 C 
BRANCH  15  17
ATOM      1  O   UNL     1       2.073  -2.725   0.161  0.00  0.00    -0.276 OA
ATOM      7  N   UNL     1       2.753  -0.925   1.464  0.00  0.00    -0.311 N 
ATOM     17  C   UNL     1       1.822  -1.700   0.789  0.00  0.00    +0.214 C 
ATOM     30  H   UNL     1       2.456  -0.078   1.939  0.00  0.00    +0.149 HD
BRANCH   7  19
ATOM     19  C   UNL     1       4.162  -1.243   1.508  0.00  0.00    +0.143 C 
BRANCH  19  21
ATOM     21  C   UNL     1       4.924  -0.573   0.401  0.00  0.00    +0.011 A 
ATOM     23  C   UNL     1       4.937   0.817   0.286  0.00  0.00    +0.125 A 
ATOM     24  C   UNL     1       5.623  -1.355  -0.517  0.00  0.00    +0.009 A 
ATOM     25  C   UNL     1       5.649   1.425  -0.748  0.00  0.00    +0.046 A 
ATOM     26  C   UNL     1       6.336  -0.748  -1.551  0.00  0.00    +0.001 A 
ATOM     27  C   UNL     1       6.349   0.642  -1.667  0.00  0.00    +0.004 A 
BRANCH  23   4
ATOM      4  O   UNL     1       4.259   1.597   1.174  0.00  0.00    -0.495 OA
ATOM     28  C   UNL     1       4.327   3.009   0.980  0.00  0.00    +0.277 C 
ENDBRANCH  23   4
ENDBRANCH  19  21
ENDBRANCH   7  19
ENDBRANCH  15  17
ENDBRANCH   9  15
TORSDOF 9
