REMARK  Name = 75368548
REMARK  2 active torsions:
REMARK  status: ('A' for Active; 'I' for Inactive)
REMARK    1  A    between atoms: N_2  and  C_6
REMARK    2  A    between atoms: N_4  and  C_17
REMARK                            x       y       z     vdW  Elec       q    Type
REMARK                         _______ _______ _______ _____ _____    ______ ____
ROOT
ATOM      1  O   UNL     1       4.786  -1.168  -0.410  0.00  0.00    -0.253 OA
ATOM      2  N   UNL     1      -0.153  -0.207   0.298  0.00  0.00    -0.296 NA
ATOM      3  N   UNL     1       2.651  -0.400   0.212  0.00  0.00    -0.279 N 
ATOM      5  N   UNL     1       4.245   1.111  -0.261  0.00  0.00    -0.297 N 
ATOM      7  C   UNL     1       2.045   0.879   0.518  0.00  0.00    +0.109 C 
ATOM      8  C   UNL     1       0.650   0.967  -0.101  0.00  0.00    +0.108 C 
ATOM      9  C   UNL     1       0.484  -1.460  -0.154  0.00  0.00    +0.104 C 
ATOM     12  C   UNL     1       1.892  -1.614   0.427  0.00  0.00    +0.125 C 
ATOM     13  C   UNL     1       3.052   1.892  -0.020  0.00  0.00    +0.129 C 
ATOM     16  C   UNL     1       3.988  -0.271  -0.176  0.00  0.00    +0.303 C 
ATOM     18  H   UNL     1       5.138   1.503  -0.542  0.00  0.00    +0.150 HD
ENDROOT
BRANCH   2   6
ATOM      4  N   UNL     1      -4.391   0.112   0.216  0.00  0.00    -0.305 NA
ATOM      6  C   UNL     1      -1.508  -0.102  -0.239  0.00  0.00    +0.059 C 
ATOM     10  C   UNL     1      -2.360  -1.302   0.185  0.00  0.00    +0.034 C 
ATOM     11  C   UNL     1      -2.166   1.197   0.230  0.00  0.00    +0.034 C 
ATOM     14  C   UNL     1      -3.808  -1.141  -0.285  0.00  0.00    +0.085 C 
ATOM     15  C   UNL     1      -3.620   1.277  -0.241  0.00  0.00    +0.085 C 
ATOM     17  C   UNL     1      -5.788   0.228  -0.199  0.00  0.00    +0.104 C 
ENDBRANCH   2   6
TORSDOF 1
