REMARK  Name = 75368502
REMARK  3 active torsions:
REMARK  status: ('A' for Active; 'I' for Inactive)
REMARK    1  A    between atoms: N_4  and  C_10
REMARK    2  A    between atoms: N_7  and  C_20
REMARK    3  A    between atoms: C_20  and  C_21
REMARK                            x       y       z     vdW  Elec       q    Type
REMARK                         _______ _______ _______ _____ _____    ______ ____
ROOT
ATOM      2  O   UNL     1      -1.727  -2.651  -0.525  0.00  0.00    -0.252 OA
ATOM      3  O   UNL     1       4.902  -0.806   0.155  0.00  0.00    -0.253 OA
ATOM      4  N   UNL     1      -1.880  -0.325  -0.175  0.00  0.00    -0.280 N 
ATOM      5  N   UNL     1       0.157  -1.264  -0.307  0.00  0.00    -0.278 N 
ATOM      6  N   UNL     1       2.656  -0.431   0.585  0.00  0.00    -0.282 N 
ATOM      7  N   UNL     1       4.180   1.361   0.352  0.00  0.00    -0.300 N 
ATOM      8  C   UNL     1       0.416   0.164  -0.214  0.00  0.00    +0.112 C 
ATOM      9  C   UNL     1      -0.954   0.761   0.097  0.00  0.00    +0.133 C 
ATOM     11  C   UNL     1       1.487   0.436   0.838  0.00  0.00    +0.133 C 
ATOM     12  C   UNL     1       1.265  -2.195  -0.435  0.00  0.00    +0.128 C 
ATOM     13  C   UNL     1      -1.214  -1.552  -0.361  0.00  0.00    +0.305 C 
ATOM     14  C   UNL     1       2.344  -1.870   0.598  0.00  0.00    +0.128 C 
ATOM     19  C   UNL     1       3.975  -0.013   0.353  0.00  0.00    +0.302 C 
ATOM     22  H   UNL     1       3.418   2.012   0.476  0.00  0.00    +0.150 HD
ENDROOT
BRANCH   4  10
ATOM      1  O   UNL     1      -5.563   1.622   0.194  0.00  0.00    -0.380 OA
ATOM     10  C   UNL     1      -3.309  -0.143  -0.106  0.00  0.00    +0.082 C 
ATOM     15  C   UNL     1      -3.800   0.759  -1.239  0.00  0.00    +0.050 C 
ATOM     16  C   UNL     1      -3.729   0.428   1.248  0.00  0.00    +0.050 C 
ATOM     17  C   UNL     1      -5.287   1.053  -1.086  0.00  0.00    +0.161 C 
ATOM     18  C   UNL     1      -5.220   0.738   1.261  0.00  0.00    +0.161 C 
ENDBRANCH   4  10
BRANCH   7  20
ATOM     20  C   UNL     1       5.482   1.945   0.122  0.00  0.00    +0.102 C 
ATOM     21  C   UNL     1       5.820   1.983  -1.354  0.00  0.00    +0.024 C 
ENDBRANCH   7  20
TORSDOF 2
