REMARK  Name = 51137904
REMARK  7 active torsions:
REMARK  status: ('A' for Active; 'I' for Inactive)
REMARK    1  A    between atoms: O_2  and  C_23
REMARK    2  A    between atoms: O_2  and  C_26
REMARK    3  A    between atoms: O_3  and  C_25
REMARK    4  A    between atoms: O_3  and  C_27
REMARK    5  A    between atoms: N_5  and  C_15
REMARK    6  A    between atoms: C_7  and  C_11
REMARK    7  A    between atoms: C_12  and  C_16
REMARK                            x       y       z     vdW  Elec       q    Type
REMARK                         _______ _______ _______ _____ _____    ______ ____
ROOT
ATOM      1  O   UNL     1      -1.630  -2.144   2.446  0.00  0.00    -0.270 OA
ATOM      4  N   UNL     1      -0.417  -1.911   0.480  0.00  0.00    -0.297 N 
ATOM      7  C   UNL     1       1.333  -1.668  -1.114  0.00  0.00    +0.074 C 
ATOM      8  C   UNL     1       1.418  -3.057  -0.463  0.00  0.00    +0.032 C 
ATOM      9  C   UNL     1      -0.109  -1.252  -0.791  0.00  0.00    +0.119 C 
ATOM     10  C   UNL     1       0.581  -2.919   0.802  0.00  0.00    +0.109 C 
ATOM     12  C   UNL     1      -1.452  -1.613   1.353  0.00  0.00    +0.247 C 
ENDROOT
BRANCH   7  11
ATOM      5  N   UNL     1       2.963   0.243  -1.395  0.00  0.00    -0.330 N 
ATOM      6  N   UNL     1       2.988  -0.784   0.576  0.00  0.00    -0.232 NA
ATOM     11  C   UNL     1       2.433  -0.747  -0.615  0.00  0.00    +0.115 A 
ATOM     13  C   UNL     1       3.924   0.887  -0.658  0.00  0.00    +0.069 A 
ATOM     14  C   UNL     1       3.920   0.227   0.567  0.00  0.00    +0.089 A 
ATOM     15  C   UNL     1       2.583   0.558  -2.754  0.00  0.00    +0.150 C 
ATOM     17  C   UNL     1       4.771   1.957  -0.951  0.00  0.00    +0.028 A 
ATOM     18  C   UNL     1       4.807   0.647   1.574  0.00  0.00    +0.030 A 
ATOM     21  C   UNL     1       5.646   2.361   0.062  0.00  0.00    +0.002 A 
ATOM     22  C   UNL     1       5.666   1.719   1.303  0.00  0.00    +0.002 A 
ENDBRANCH   7  11
BRANCH  12  16
ATOM     16  C   UNL     1      -2.403  -0.567   0.946  0.00  0.00    +0.041 A 
ATOM     19  C   UNL     1      -3.148  -0.718  -0.225  0.00  0.00    +0.062 A 
ATOM     20  C   UNL     1      -2.561   0.576   1.730  0.00  0.00    +0.017 A 
ATOM     23  C   UNL     1      -4.050   0.273  -0.610  0.00  0.00    +0.162 A 
ATOM     24  C   UNL     1      -3.463   1.567   1.344  0.00  0.00    +0.050 A 
ATOM     25  C   UNL     1      -4.207   1.416   0.174  0.00  0.00    +0.162 A 
BRANCH  23   2
ATOM      2  O   UNL     1      -4.771   0.114  -1.755  0.00  0.00    -0.491 OA
ATOM     26  C   UNL     1      -4.550  -1.083  -2.498  0.00  0.00    +0.277 C 
ENDBRANCH  23   2
BRANCH  25   3
ATOM      3  O   UNL     1      -5.086   2.391  -0.192  0.00  0.00    -0.491 OA
ATOM     27  C   UNL     1      -5.186   3.527   0.665  0.00  0.00    +0.277 C 
ENDBRANCH  25   3
ENDBRANCH  12  16
TORSDOF 4
