REMARK  Name = 45783615
REMARK  8 active torsions:
REMARK  status: ('A' for Active; 'I' for Inactive)
REMARK    1  A    between atoms: O_2  and  C_30
REMARK    2  A    between atoms: O_2  and  C_31
REMARK    3  A    between atoms: N_4  and  C_15
REMARK    4  A    between atoms: C_11  and  C_16
REMARK    5  A    between atoms: C_15  and  C_17
REMARK    6  A    between atoms: C_20  and  C_23
REMARK    7  A    between atoms: C_24  and  C_27
REMARK    8  A    between atoms: C_29  and  C_30
REMARK                            x       y       z     vdW  Elec       q    Type
REMARK                         _______ _______ _______ _____ _____    ______ ____
ROOT
ATOM      1  O   UNL     1      -1.333   1.298   2.331  0.00  0.00    -0.336 OA
ATOM      5  N   UNL     1      -0.293  -0.501   1.493  0.00  0.00    -0.190 NA
ATOM      6  N   UNL     1       0.036   1.589   2.364  0.00  0.00    -0.056 NA
ATOM     16  C   UNL     1      -1.439   0.049   1.805  0.00  0.00    +0.245 A 
ATOM     20  C   UNL     1       0.583   0.482   1.854  0.00  0.00    +0.207 A 
ENDROOT
BRANCH  20  23
ATOM      3  O   UNL     1       3.274  -2.225  -1.620  0.00  0.00    -0.273 OA
ATOM      7  N   UNL     1       1.751  -1.114  -0.209  0.00  0.00    -0.268 N 
ATOM      8  N   UNL     1       3.912  -0.590   0.552  0.00  0.00    -0.220 NA
ATOM      9  N   UNL     1       4.220   0.852   2.458  0.00  0.00    -0.243 NA
ATOM     23  C   UNL     1       2.000   0.324   1.693  0.00  0.00    +0.081 A 
ATOM     25  C   UNL     1       2.579  -0.443   0.703  0.00  0.00    +0.139 A 
ATOM     26  C   UNL     1       2.878   0.955   2.550  0.00  0.00    +0.127 A 
ATOM     28  C   UNL     1       4.662   0.075   1.451  0.00  0.00    +0.223 A 
ATOM     29  C   UNL     1       2.134  -1.933  -1.274  0.00  0.00    +0.244 C 
ATOM     32  H   UNL     1       0.751  -0.979  -0.091  0.00  0.00    +0.156 HD
BRANCH  29  30
ATOM     30  C   UNL     1       0.940  -2.468  -2.034  0.00  0.00    +0.255 C 
BRANCH  30   2
ATOM      2  O   UNL     1       1.275  -3.726  -2.581  0.00  0.00    -0.374 OA
ATOM     31  C   UNL     1       0.192  -4.292  -3.313  0.00  0.00    +0.194 C 
ENDBRANCH  30   2
ENDBRANCH  29  30
ENDBRANCH  20  23
BRANCH  16  11
ATOM      4  N   UNL     1      -3.162  -0.885   0.271  0.00  0.00    -0.287 NA
ATOM     11  C   UNL     1      -2.841  -0.506   1.661  0.00  0.00    +0.146 C 
ATOM     12  C   UNL     1      -3.057  -1.794   2.477  0.00  0.00    +0.030 C 
ATOM     13  C   UNL     1      -3.556  -2.822   1.472  0.00  0.00    +0.017 C 
ATOM     14  C   UNL     1      -4.130  -1.978   0.353  0.00  0.00    +0.085 C 
BRANCH   4  15
ATOM     15  C   UNL     1      -3.658   0.229  -0.528  0.00  0.00    +0.120 C 
BRANCH  15  17
ATOM     17  C   UNL     1      -2.539   1.111  -1.015  0.00  0.00    -0.033 A 
ATOM     18  C   UNL     1      -2.522   2.465  -0.678  0.00  0.00    +0.006 A 
ATOM     19  C   UNL     1      -1.521   0.576  -1.804  0.00  0.00    +0.006 A 
ATOM     21  C   UNL     1      -1.486   3.282  -1.129  0.00  0.00    +0.019 A 
ATOM     22  C   UNL     1      -0.485   1.394  -2.255  0.00  0.00    +0.019 A 
ATOM     24  C   UNL     1      -0.467   2.747  -1.917  0.00  0.00    +0.052 A 
BRANCH  24  27
ATOM     10  N   UNL     1       1.456   4.265  -2.754  0.00  0.00    -0.191 NA
ATOM     27  C   UNL     1       0.594   3.585  -2.379  0.00  0.00    +0.099 C 
ENDBRANCH  24  27
ENDBRANCH  15  17
ENDBRANCH   4  15
ENDBRANCH  16  11
TORSDOF 7
