REMARK  Name = 40779690
REMARK  8 active torsions:
REMARK  status: ('A' for Active; 'I' for Inactive)
REMARK    1  A    between atoms: N_6  and  C_15
REMARK    2  A    between atoms: N_7  and  C_16
REMARK    3  A    between atoms: C_9  and  C_15
REMARK    4  A    between atoms: C_11  and  C_16
REMARK    5  A    between atoms: C_19  and  C_22
REMARK    6  A    between atoms: C_22  and  C_24
REMARK    7  A    between atoms: C_23  and  C_25
REMARK    8  A    between atoms: C_35  and  C_36
REMARK                            x       y       z     vdW  Elec       q    Type
REMARK                         _______ _______ _______ _____ _____    ______ ____
ROOT
ATOM      5  N   UNL     1      -0.704   3.993  -0.092  0.00  0.00    -0.298 NA
ATOM      8  C   UNL     1       0.686   2.101   1.028  0.00  0.00    -0.003 C 
ATOM      9  C   UNL     1       1.423   2.670  -0.205  0.00  0.00    +0.020 C 
ATOM     10  C   UNL     1      -0.703   1.591   0.601  0.00  0.00    +0.024 C 
ATOM     11  C   UNL     1      -1.543   2.776   0.076  0.00  0.00    +0.074 C 
ATOM     12  C   UNL     1       0.494   3.683  -0.911  0.00  0.00    +0.089 C 
ATOM     13  C   UNL     1       0.461   3.276   1.998  0.00  0.00    +0.019 C 
ATOM     14  C   UNL     1      -0.246   4.422   1.252  0.00  0.00    +0.085 C 
ENDROOT
BRANCH   9  15
ATOM     15  C   UNL     1       1.913   1.590  -1.166  0.00  0.00    +0.089 C 
BRANCH  15   6
ATOM      6  N   UNL     1       2.771   0.627  -0.477  0.00  0.00    -0.302 NA
ATOM     17  C   UNL     1       4.136   1.155  -0.348  0.00  0.00    +0.084 C 
ATOM     18  C   UNL     1       2.766  -0.663  -1.180  0.00  0.00    +0.084 C 
ATOM     19  C   UNL     1       5.053  -1.199  -0.243  0.00  0.00    -0.004 C 
ATOM     20  C   UNL     1       5.034   0.183   0.419  0.00  0.00    +0.019 C 
ATOM     21  C   UNL     1       3.617  -1.698  -0.441  0.00  0.00    +0.019 C 
BRANCH  19  22
ATOM     22  C   UNL     1       5.869  -2.191   0.581  0.00  0.00    +0.038 C 
BRANCH  22  24
ATOM     24  C   UNL     1       7.346  -2.008   0.366  0.00  0.00    -0.047 A 
ATOM     26  C   UNL     1       7.996  -2.712  -0.648  0.00  0.00    +0.003 A 
ATOM     27  C   UNL     1       8.067  -1.135   1.181  0.00  0.00    +0.003 A 
ATOM     30  C   UNL     1       9.366  -2.542  -0.848  0.00  0.00    +0.000 A 
ATOM     31  C   UNL     1       9.437  -0.965   0.981  0.00  0.00    +0.000 A 
ATOM     32  C   UNL     1      10.086  -1.669  -0.033  0.00  0.00    +0.000 A 
ENDBRANCH  22  24
ENDBRANCH  19  22
ENDBRANCH  15   6
ENDBRANCH   9  15
BRANCH  11  16
ATOM     16  C   UNL     1      -2.305   2.412  -1.200  0.00  0.00    +0.123 C 
BRANCH  16   7
ATOM      4  O   UNL     1      -5.041   2.638  -0.360  0.00  0.00    -0.270 OA
ATOM      7  N   UNL     1      -3.230   1.318  -0.954  0.00  0.00    -0.310 N 
ATOM     23  C   UNL     1      -4.533   1.536  -0.550  0.00  0.00    +0.244 C 
ATOM     37  H   UNL     1      -2.854   0.379  -1.027  0.00  0.00    +0.149 HD
BRANCH  23  25
ATOM     25  C   UNL     1      -5.343   0.313  -0.315  0.00  0.00    +0.037 A 
ATOM     28  C   UNL     1      -6.407   0.344   0.588  0.00  0.00    +0.013 A 
ATOM     29  C   UNL     1      -5.040  -0.867  -0.995  0.00  0.00    +0.013 A 
ATOM     33  C   UNL     1      -7.167  -0.805   0.809  0.00  0.00    +0.013 A 
ATOM     34  C   UNL     1      -5.800  -2.015  -0.773  0.00  0.00    +0.013 A 
ATOM     35  C   UNL     1      -6.864  -1.984   0.129  0.00  0.00    +0.055 A 
BRANCH  35  36
ATOM      1  F   UNL     1      -8.292  -3.686  -0.757  0.00  0.00    -0.166 F 
ATOM      2  F   UNL     1      -8.675  -3.013   1.274  0.00  0.00    -0.166 F 
ATOM      3  F   UNL     1      -6.949  -4.265   0.845  0.00  0.00    -0.166 F 
ATOM     36  C   UNL     1      -7.676  -3.212   0.366  0.00  0.00    +0.417 C 
ENDBRANCH  35  36
ENDBRANCH  23  25
ENDBRANCH  16   7
ENDBRANCH  11  16
TORSDOF 8
