REMARK  Name = 75536777
REMARK  7 active torsions:
REMARK  status: ('A' for Active; 'I' for Inactive)
REMARK    1  A    between atoms: O_2  and  C_9
REMARK    2  A    between atoms: N_4  and  C_8
REMARK    3  A    between atoms: N_4  and  C_13
REMARK    4  A    between atoms: N_5  and  C_12
REMARK    5  A    between atoms: N_6  and  C_19
REMARK    6  A    between atoms: C_10  and  C_12
REMARK    7  A    between atoms: C_13  and  C_14
REMARK                            x       y       z     vdW  Elec       q    Type
REMARK                         _______ _______ _______ _____ _____    ______ ____
ROOT
ATOM      1  O   UNL     1      -0.162  -1.256   0.022  0.00  0.00    -0.371 OA
ATOM      8  C   UNL     1      -2.111   0.086  -0.191  0.00  0.00    +0.111 C 
ATOM      9  C   UNL     1      -1.197   0.703   0.851  0.00  0.00    +0.164 C 
ATOM     10  C   UNL     1       0.139   0.073   0.480  0.00  0.00    +0.165 C 
ATOM     11  C   UNL     1      -1.570  -1.333  -0.264  0.00  0.00    +0.181 C 
ENDROOT
BRANCH   9   2
ATOM      2  O   UNL     1      -1.154   2.114   0.773  0.00  0.00    -0.388 OA
ATOM     27  H   UNL     1      -0.884   2.363  -0.127  0.00  0.00    +0.210 HD
ENDBRANCH   9   2
BRANCH   8   4
ATOM      4  N   UNL     1      -3.520   0.137   0.164  0.00  0.00    -0.305 NA
ATOM     26  H   UNL     1      -3.742   1.071   0.510  0.00  0.00    +0.123 HD
BRANCH   4  13
ATOM     13  C   UNL     1      -4.363  -0.150  -0.991  0.00  0.00    +0.118 C 
BRANCH  13  14
ATOM      7  N   UNL     1      -7.941   1.052  -0.702  0.00  0.00    -0.263 NA
ATOM     14  C   UNL     1      -5.826  -0.118  -0.638  0.00  0.00    -0.015 A 
ATOM     16  C   UNL     1      -6.421  -1.169   0.051  0.00  0.00    +0.008 A 
ATOM     17  C   UNL     1      -6.623   0.960  -0.988  0.00  0.00    +0.115 A 
ATOM     18  C   UNL     1      -7.774  -1.111   0.364  0.00  0.00    +0.020 A 
ATOM     20  C   UNL     1      -8.483   0.011  -0.031  0.00  0.00    +0.111 A 
ENDBRANCH  13  14
ENDBRANCH   4  13
ENDBRANCH   8   4
BRANCH  10  12
ATOM     12  C   UNL     1       1.114   0.007   1.642  0.00  0.00    +0.140 C 
BRANCH  12   5
ATOM      3  O   UNL     1       3.417   1.353   0.598  0.00  0.00    -0.253 OA
ATOM      5  N   UNL     1       2.355  -0.596   1.248  0.00  0.00    -0.297 N 
ATOM      6  N   UNL     1       4.511  -0.719   0.445  0.00  0.00    -0.269 N 
ATOM     15  C   UNL     1       3.443   0.133   0.743  0.00  0.00    +0.304 C 
ATOM     28  H   UNL     1       2.444  -1.605   1.327  0.00  0.00    +0.150 HD
ATOM     29  H   UNL     1       4.368  -1.709   0.624  0.00  0.00    +0.156 HD
BRANCH   6  19
ATOM     19  C   UNL     1       5.778  -0.371  -0.079  0.00  0.00    +0.035 A 
ATOM     21  C   UNL     1       6.730  -1.363  -0.316  0.00  0.00    +0.023 A 
ATOM     22  C   UNL     1       6.076   0.962  -0.359  0.00  0.00    +0.023 A 
ATOM     23  C   UNL     1       7.980  -1.021  -0.833  0.00  0.00    +0.002 A 
ATOM     24  C   UNL     1       7.325   1.304  -0.876  0.00  0.00    +0.002 A 
ATOM     25  C   UNL     1       8.277   0.313  -1.113  0.00  0.00    +0.000 A 
ENDBRANCH   6  19
ENDBRANCH  12   5
ENDBRANCH  10  12
TORSDOF 7
