REMARK  Name = 75537087
REMARK  4 active torsions:
REMARK  status: ('A' for Active; 'I' for Inactive)
REMARK    1  A    between atoms: N_4  and  C_14
REMARK    2  A    between atoms: N_5  and  C_15
REMARK    3  A    between atoms: C_14  and  C_16
REMARK    4  A    between atoms: C_15  and  C_17
REMARK                            x       y       z     vdW  Elec       q    Type
REMARK                         _______ _______ _______ _____ _____    ______ ____
ROOT
ATOM      2  O   UNL     1       1.744   3.013   0.294  0.00  0.00    -0.252 OA
ATOM      3  N   UNL     1      -0.296   1.884   0.007  0.00  0.00    -0.278 N 
ATOM      4  N   UNL     1      -2.729   0.645   0.686  0.00  0.00    -0.292 NA
ATOM      5  N   UNL     1       1.492   1.157  -1.139  0.00  0.00    -0.279 N 
ATOM      8  C   UNL     1      -0.815   0.838  -0.850  0.00  0.00    +0.109 C 
ATOM      9  C   UNL     1      -1.698  -0.117  -0.048  0.00  0.00    +0.109 C 
ATOM     10  C   UNL     1       0.440   0.204  -1.447  0.00  0.00    +0.133 C 
ATOM     11  C   UNL     1      -1.203   2.598   0.882  0.00  0.00    +0.125 C 
ATOM     12  C   UNL     1      -2.108   1.607   1.619  0.00  0.00    +0.104 C 
ATOM     13  C   UNL     1       1.064   2.133  -0.217  0.00  0.00    +0.305 C 
ENDROOT
BRANCH   4  14
ATOM     14  C   UNL     1      -3.618  -0.264   1.408  0.00  0.00    +0.158 C 
BRANCH  14  16
ATOM      6  N   UNL     1      -5.696  -0.236   0.015  0.00  0.00    -0.347 N 
ATOM      7  N   UNL     1      -4.587  -2.159   0.060  0.00  0.00    -0.239 NA
ATOM     16  C   UNL     1      -4.614  -0.919   0.495  0.00  0.00    +0.121 A 
ATOM     20  C   UNL     1      -6.405  -1.095  -0.777  0.00  0.00    +0.104 A 
ATOM     21  C   UNL     1      -5.701  -2.275  -0.734  0.00  0.00    +0.130 A 
ATOM     25  H   UNL     1      -5.930   0.729   0.208  0.00  0.00    +0.167 HD
ENDBRANCH  14  16
ENDBRANCH   4  14
BRANCH   5  15
ATOM     15  C   UNL     1       2.844   0.990  -1.627  0.00  0.00    +0.144 C 
BRANCH  15  17
ATOM      1  F   UNL     1       5.775  -2.664   1.496  0.00  0.00    -0.205 F 
ATOM     17  C   UNL     1       3.625   0.015  -0.794  0.00  0.00    -0.030 A 
ATOM     18  C   UNL     1       4.357   0.467   0.304  0.00  0.00    +0.008 A 
ATOM     19  C   UNL     1       3.620  -1.341  -1.119  0.00  0.00    +0.008 A 
ATOM     22  C   UNL     1       5.083  -0.438   1.078  0.00  0.00    +0.038 A 
ATOM     23  C   UNL     1       4.347  -2.246  -0.345  0.00  0.00    +0.038 A 
ATOM     24  C   UNL     1       5.078  -1.795   0.753  0.00  0.00    +0.123 A 
ENDBRANCH  15  17
ENDBRANCH   5  15
TORSDOF 4
