REMARK  Name = 38027389
REMARK  17 active torsions:
REMARK  status: ('A' for Active; 'I' for Inactive)
REMARK    1  A    between atoms: S_1  and  N_6
REMARK    2  A    between atoms: S_1  and  C_22
REMARK    3  A    between atoms: O_5  and  C_29
REMARK    4  A    between atoms: O_5  and  C_32
REMARK    5  A    between atoms: N_6  and  C_16
REMARK    6  A    between atoms: N_7  and  C_23
REMARK    7  A    between atoms: N_8  and  C_24
REMARK    8  A    between atoms: N_8  and  C_30
REMARK    9  A    between atoms: N_8  and  C_31
REMARK   10  A    between atoms: C_9  and  C_13
REMARK   11  A    between atoms: C_10  and  C_16
REMARK   12  A    between atoms: C_12  and  C_17
REMARK   13  A    between atoms: C_13  and  C_18
REMARK   14  A    between atoms: C_13  and  C_19
REMARK   15  A    between atoms: C_14  and  C_20
REMARK   16  A    between atoms: C_17  and  C_21
REMARK   17  A    between atoms: C_23  and  C_24
REMARK                            x       y       z     vdW  Elec       q    Type
REMARK                         _______ _______ _______ _____ _____    ______ ____
ROOT
ATOM      9  C   UNL     1       1.492   0.823  -1.214  0.00  0.00    +0.000 C 
ATOM     10  C   UNL     1       3.037   0.772  -1.103  0.00  0.00    +0.030 C 
ATOM     11  C   UNL     1       1.003   2.279  -1.225  0.00  0.00    +0.012 C 
ATOM     12  C   UNL     1       1.427   3.046   0.042  0.00  0.00    +0.023 C 
ATOM     14  C   UNL     1       2.890   2.826   0.370  0.00  0.00    -0.073 C 
ATOM     15  C   UNL     1       3.596   1.812  -0.162  0.00  0.00    -0.023 C 
ATOM     20  C   UNL     1       3.535   3.826   1.289  0.00  0.00    +0.039 C 
ENDROOT
BRANCH   9  13
ATOM     13  C   UNL     1       0.987   0.096  -2.465  0.00  0.00    -0.013 C 
ATOM     18  C   UNL     1      -0.538   0.073  -2.487  0.00  0.00    +0.007 C 
ATOM     19  C   UNL     1       1.537   0.760  -3.724  0.00  0.00    +0.007 C 
ENDBRANCH   9  13
BRANCH  10  16
ATOM     16  C   UNL     1       3.515  -0.619  -0.670  0.00  0.00    +0.113 C 
BRANCH  16   6
ATOM      6  N   UNL     1       3.080  -0.913   0.659  0.00  0.00    -0.189 NA
ATOM     33  H   UNL     1       3.334  -0.247   1.398  0.00  0.00    +0.148 HD
BRANCH   6   1
ATOM      1  S   UNL     1       2.746  -2.531   1.158  0.00  0.00    +0.058 S 
ATOM      3  O   UNL     1       2.876  -2.604   2.600  0.00  0.00    -0.153 OA
ATOM      4  O   UNL     1       3.453  -3.474   0.312  0.00  0.00    -0.153 OA
BRANCH   1  22
ATOM     22  C   UNL     1       1.029  -2.665   0.758  0.00  0.00    +0.105 A 
ATOM     25  C   UNL     1       0.640  -3.117  -0.503  0.00  0.00    +0.032 A 
ATOM     26  C   UNL     1       0.064  -2.316   1.702  0.00  0.00    +0.032 A 
ATOM     27  C   UNL     1      -0.714  -3.220  -0.820  0.00  0.00    +0.047 A 
ATOM     28  C   UNL     1      -1.291  -2.419   1.385  0.00  0.00    +0.047 A 
ATOM     29  C   UNL     1      -1.680  -2.871   0.125  0.00  0.00    +0.120 A 
BRANCH  29   5
ATOM      5  O   UNL     1      -3.001  -2.972  -0.184  0.00  0.00    -0.495 OA
ATOM     32  C   UNL     1      -3.328  -3.442  -1.492  0.00  0.00    +0.277 C 
ENDBRANCH  29   5
ENDBRANCH   1  22
ENDBRANCH   6   1
ENDBRANCH  16   6
ENDBRANCH  10  16
BRANCH  12  17
ATOM     17  C   UNL     1       0.536   2.679   1.233  0.00  0.00    +0.103 C 
BRANCH  17  21
ATOM      2  O   UNL     1      -1.360   3.720   0.150  0.00  0.00    -0.276 OA
ATOM      7  N   UNL     1      -1.711   1.966   1.634  0.00  0.00    -0.314 N 
ATOM     21  C   UNL     1      -0.932   2.870   0.926  0.00  0.00    +0.214 C 
ATOM     34  H   UNL     1      -1.264   1.296   2.253  0.00  0.00    +0.149 HD
BRANCH   7  23
ATOM     23  C   UNL     1      -3.151   1.920   1.536  0.00  0.00    +0.119 C 
BRANCH  23  24
ATOM     24  C   UNL     1      -3.599   0.977   0.429  0.00  0.00    +0.102 C 
BRANCH  24   8
ATOM      8  N   UNL     1      -5.054   0.924   0.367  0.00  0.00    -0.307 NA
ATOM     30  C   UNL     1      -5.585   2.097  -0.330  0.00  0.00    +0.104 C 
ATOM     31  C   UNL     1      -5.498  -0.304  -0.296  0.00  0.00    +0.104 C 
ENDBRANCH  24   8
ENDBRANCH  23  24
ENDBRANCH   7  23
ENDBRANCH  17  21
ENDBRANCH  12  17
TORSDOF 11
