REMARK  Name = 40777976
REMARK  8 active torsions:
REMARK  status: ('A' for Active; 'I' for Inactive)
REMARK    1  A    between atoms: O_2  and  C_9
REMARK    2  A    between atoms: O_3  and  C_10
REMARK    3  A    between atoms: N_6  and  C_15
REMARK    4  A    between atoms: N_7  and  C_21
REMARK    5  A    between atoms: C_8  and  C_15
REMARK    6  A    between atoms: C_11  and  C_18
REMARK    7  A    between atoms: C_12  and  C_19
REMARK    8  A    between atoms: C_18  and  C_20
REMARK                            x       y       z     vdW  Elec       q    Type
REMARK                         _______ _______ _______ _____ _____    ______ ____
ROOT
ATOM      1  O   UNL     1       2.077   0.219  -0.563  0.00  0.00    -0.366 OA
ATOM      8  C   UNL     1       3.314  -0.520  -0.443  0.00  0.00    +0.167 C 
ATOM      9  C   UNL     1       4.391   0.500  -0.089  0.00  0.00    +0.176 C 
ATOM     10  C   UNL     1       3.594   1.556   0.648  0.00  0.00    +0.175 C 
ATOM     11  C   UNL     1       2.304   1.579  -0.153  0.00  0.00    +0.159 C 
ENDROOT
BRANCH   9   2
ATOM      2  O   UNL     1       4.913   1.033  -1.306  0.00  0.00    -0.387 OA
ATOM     28  H   UNL     1       5.382   0.312  -1.761  0.00  0.00    +0.210 HD
ENDBRANCH   9   2
BRANCH  10   3
ATOM      3  O   UNL     1       4.226   2.819   0.670  0.00  0.00    -0.387 OA
ATOM     29  H   UNL     1       5.093   2.703   1.094  0.00  0.00    +0.210 HD
ENDBRANCH  10   3
BRANCH   8  15
ATOM     15  C   UNL     1       3.121  -1.580   0.633  0.00  0.00    +0.138 C 
BRANCH  15   6
ATOM      4  O   UNL     1       0.280  -1.403   1.200  0.00  0.00    -0.276 OA
ATOM      6  N   UNL     1       2.100  -2.514   0.262  0.00  0.00    -0.313 N 
ATOM     19  C   UNL     1       0.755  -2.349   0.577  0.00  0.00    +0.216 C 
ATOM     27  H   UNL     1       2.383  -3.326  -0.279  0.00  0.00    +0.149 HD
BRANCH  19  12
ATOM     12  C   UNL     1      -0.102  -3.458   0.049  0.00  0.00    +0.075 C 
ATOM     13  C   UNL     1      -0.614  -3.113  -1.354  0.00  0.00    +0.013 C 
ATOM     14  C   UNL     1      -1.343  -3.644   0.923  0.00  0.00    +0.013 C 
ATOM     16  C   UNL     1      -2.134  -3.208  -1.278  0.00  0.00    +0.001 C 
ATOM     17  C   UNL     1      -2.452  -2.915   0.178  0.00  0.00    +0.001 C 
ENDBRANCH  19  12
ENDBRANCH  15   6
ENDBRANCH   8  15
BRANCH  11  18
ATOM     18  C   UNL     1       1.110   2.079   0.641  0.00  0.00    +0.130 C 
BRANCH  18  20
ATOM      5  O   UNL     1      -0.226   2.133  -1.361  0.00  0.00    -0.275 OA
ATOM      7  N   UNL     1      -1.264   1.770   0.715  0.00  0.00    -0.285 N 
ATOM     20  C   UNL     1      -0.192   2.002  -0.142  0.00  0.00    +0.220 C 
ATOM     30  H   UNL     1      -1.067   1.692   1.711  0.00  0.00    +0.155 HD
BRANCH   7  21
ATOM     21  C   UNL     1      -2.630   1.636   0.371  0.00  0.00    +0.033 A 
ATOM     22  C   UNL     1      -3.580   1.405   1.366  0.00  0.00    +0.023 A 
ATOM     23  C   UNL     1      -3.026   1.734  -0.963  0.00  0.00    +0.023 A 
ATOM     24  C   UNL     1      -4.926   1.272   1.027  0.00  0.00    +0.002 A 
ATOM     25  C   UNL     1      -4.372   1.601  -1.302  0.00  0.00    +0.002 A 
ATOM     26  C   UNL     1      -5.323   1.370  -0.307  0.00  0.00    +0.000 A 
ENDBRANCH   7  21
ENDBRANCH  18  20
ENDBRANCH  11  18
TORSDOF 8
