REMARK  Name = 75536650
REMARK  7 active torsions:
REMARK  status: ('A' for Active; 'I' for Inactive)
REMARK    1  A    between atoms: O_4  and  C_9
REMARK    2  A    between atoms: N_6  and  C_8
REMARK    3  A    between atoms: N_6  and  C_13
REMARK    4  A    between atoms: N_7  and  C_12
REMARK    5  A    between atoms: C_10  and  C_12
REMARK    6  A    between atoms: C_13  and  C_14
REMARK    7  A    between atoms: C_15  and  C_17
REMARK                            x       y       z     vdW  Elec       q    Type
REMARK                         _______ _______ _______ _____ _____    ______ ____
ROOT
ATOM      3  O   UNL     1      -0.229  -0.810   0.249  0.00  0.00    -0.371 OA
ATOM      8  C   UNL     1      -2.313   0.173  -0.325  0.00  0.00    +0.111 C 
ATOM      9  C   UNL     1      -1.443   1.217   0.352  0.00  0.00    +0.164 C 
ATOM     10  C   UNL     1      -0.059   0.614   0.158  0.00  0.00    +0.165 C 
ATOM     11  C   UNL     1      -1.627  -1.113   0.103  0.00  0.00    +0.181 C 
ENDROOT
BRANCH   9   4
ATOM      4  O   UNL     1      -1.552   2.492  -0.250  0.00  0.00    -0.388 OA
ATOM     26  H   UNL     1      -1.333   2.405  -1.193  0.00  0.00    +0.210 HD
ENDBRANCH   9   4
BRANCH   8   6
ATOM      6  N   UNL     1      -3.710   0.230   0.075  0.00  0.00    -0.304 NA
ATOM     25  H   UNL     1      -4.018   1.203   0.063  0.00  0.00    +0.123 HD
BRANCH   6  13
ATOM     13  C   UNL     1      -4.548  -0.545  -0.832  0.00  0.00    +0.124 C 
BRANCH  13  14
ATOM      1  S   UNL     1      -6.810  -1.979  -0.081  0.00  0.00    -0.100 S 
ATOM     14  C   UNL     1      -5.997  -0.511  -0.424  0.00  0.00    +0.004 A 
ATOM     16  C   UNL     1      -6.820   0.583  -0.275  0.00  0.00    +0.012 A 
ATOM     18  C   UNL     1      -8.136   0.212   0.126  0.00  0.00    +0.008 A 
ATOM     19  C   UNL     1      -8.268  -1.152   0.268  0.00  0.00    +0.045 A 
ENDBRANCH  13  14
ENDBRANCH   6  13
ENDBRANCH   8   6
BRANCH  10  12
ATOM     12  C   UNL     1       0.949   1.078   1.195  0.00  0.00    +0.138 C 
BRANCH  12   7
ATOM      5  O   UNL     1       3.072   2.132  -0.425  0.00  0.00    -0.270 OA
ATOM      7  N   UNL     1       2.235   0.483   0.976  0.00  0.00    -0.309 N 
ATOM     15  C   UNL     1       3.208   1.067   0.171  0.00  0.00    +0.244 C 
ATOM     27  H   UNL     1       2.387  -0.434   1.383  0.00  0.00    +0.149 HD
BRANCH  15  17
ATOM      2  F   UNL     1       8.012  -1.787  -0.382  0.00  0.00    -0.205 F 
ATOM     17  C   UNL     1       4.479   0.312   0.024  0.00  0.00    +0.037 A 
ATOM     20  C   UNL     1       5.257   0.470  -1.123  0.00  0.00    +0.016 A 
ATOM     21  C   UNL     1       4.895  -0.556   1.034  0.00  0.00    +0.016 A 
ATOM     22  C   UNL     1       6.450  -0.238  -1.261  0.00  0.00    +0.039 A 
ATOM     23  C   UNL     1       6.089  -1.265   0.896  0.00  0.00    +0.039 A 
ATOM     24  C   UNL     1       6.866  -1.106  -0.251  0.00  0.00    +0.123 A 
ENDBRANCH  15  17
ENDBRANCH  12   7
ENDBRANCH  10  12
TORSDOF 7
