REMARK  Name = 45783476
REMARK  9 active torsions:
REMARK  status: ('A' for Active; 'I' for Inactive)
REMARK    1  A    between atoms: O_4  and  C_29
REMARK    2  A    between atoms: O_4  and  C_30
REMARK    3  A    between atoms: N_5  and  C_14
REMARK    4  A    between atoms: N_9  and  C_27
REMARK    5  A    between atoms: N_9  and  C_28
REMARK    6  A    between atoms: C_10  and  C_15
REMARK    7  A    between atoms: C_14  and  C_16
REMARK    8  A    between atoms: C_19  and  C_22
REMARK    9  A    between atoms: C_28  and  C_29
REMARK                            x       y       z     vdW  Elec       q    Type
REMARK                         _______ _______ _______ _____ _____    ______ ____
ROOT
ATOM      3  O   UNL     1      -2.224   0.884  -2.016  0.00  0.00    -0.336 OA
ATOM      6  N   UNL     1      -1.179   1.417  -0.108  0.00  0.00    -0.190 NA
ATOM      7  N   UNL     1      -0.863   0.632  -2.234  0.00  0.00    -0.056 NA
ATOM     15  C   UNL     1      -2.322   1.343  -0.741  0.00  0.00    +0.245 A 
ATOM     19  C   UNL     1      -0.313   0.970  -1.064  0.00  0.00    +0.204 A 
ENDROOT
BRANCH  19  22
ATOM      8  N   UNL     1       3.301   0.306  -1.632  0.00  0.00    -0.240 NA
ATOM     22  C   UNL     1       1.097   0.875  -0.818  0.00  0.00    +0.041 A 
ATOM     24  C   UNL     1       1.636   1.237   0.411  0.00  0.00    +0.016 A 
ATOM     25  C   UNL     1       1.964   0.420  -1.798  0.00  0.00    +0.124 A 
ATOM     26  C   UNL     1       3.007   1.134   0.621  0.00  0.00    +0.044 A 
ATOM     27  C   UNL     1       3.789   0.667  -0.423  0.00  0.00    +0.119 A 
BRANCH  27   9
ATOM      9  N   UNL     1       5.184   0.569  -0.196  0.00  0.00    -0.327 N 
ATOM     31  H   UNL     1       5.744   0.223  -0.966  0.00  0.00    +0.148 HD
BRANCH   9  28
ATOM     28  C   UNL     1       5.789   0.928   1.046  0.00  0.00    +0.131 C 
BRANCH  28  29
ATOM     29  C   UNL     1       7.294   0.744   0.963  0.00  0.00    +0.178 C 
BRANCH  29   4
ATOM      4  O   UNL     1       7.591  -0.624   0.710  0.00  0.00    -0.381 OA
ATOM     30  C   UNL     1       8.992  -0.847   0.630  0.00  0.00    +0.194 C 
ENDBRANCH  29   4
ENDBRANCH  28  29
ENDBRANCH   9  28
ENDBRANCH  27   9
ENDBRANCH  19  22
BRANCH  15  10
ATOM      5  N   UNL     1      -4.096   0.941   0.957  0.00  0.00    -0.287 NA
ATOM     10  C   UNL     1      -3.713   1.692  -0.255  0.00  0.00    +0.146 C 
ATOM     11  C   UNL     1      -3.849   3.173   0.144  0.00  0.00    +0.030 C 
ATOM     12  C   UNL     1      -4.371   3.154   1.574  0.00  0.00    +0.017 C 
ATOM     13  C   UNL     1      -5.028   1.793   1.695  0.00  0.00    +0.085 C 
BRANCH   5  14
ATOM     14  C   UNL     1      -4.665  -0.369   0.665  0.00  0.00    +0.120 C 
BRANCH  14  16
ATOM      1  F   UNL     1      -0.672  -2.880   1.919  0.00  0.00    -0.202 F 
ATOM      2  F   UNL     1      -0.676  -4.179  -0.486  0.00  0.00    -0.202 F 
ATOM     16  C   UNL     1      -3.599  -1.387   0.357  0.00  0.00    -0.030 A 
ATOM     17  C   UNL     1      -2.610  -1.667   1.299  0.00  0.00    +0.046 A 
ATOM     18  C   UNL     1      -3.602  -2.050  -0.870  0.00  0.00    +0.008 A 
ATOM     20  C   UNL     1      -1.622  -2.611   1.015  0.00  0.00    +0.159 A 
ATOM     21  C   UNL     1      -2.615  -2.994  -1.155  0.00  0.00    +0.041 A 
ATOM     23  C   UNL     1      -1.625  -3.274  -0.213  0.00  0.00    +0.158 A 
ENDBRANCH  14  16
ENDBRANCH   5  14
ENDBRANCH  15  10
TORSDOF 8
