REMARK  Name = 51137298
REMARK  4 active torsions:
REMARK  status: ('A' for Active; 'I' for Inactive)
REMARK    1  A    between atoms: N_3  and  C_11
REMARK    2  A    between atoms: C_7  and  C_12
REMARK    3  A    between atoms: C_11  and  C_13
REMARK    4  A    between atoms: C_16  and  C_19
REMARK                            x       y       z     vdW  Elec       q    Type
REMARK                         _______ _______ _______ _____ _____    ______ ____
ROOT
ATOM      3  N   UNL     1      -1.954  -0.500  -0.050  0.00  0.00    -0.297 NA
ATOM      7  C   UNL     1      -0.006  -1.713   0.434  0.00  0.00    +0.092 C 
ATOM      8  C   UNL     1      -0.511  -1.020   1.711  0.00  0.00    +0.029 C 
ATOM      9  C   UNL     1      -0.751  -1.010  -0.710  0.00  0.00    +0.097 C 
ATOM     10  C   UNL     1      -1.483   0.046   1.223  0.00  0.00    +0.085 C 
ENDROOT
BRANCH   7  12
ATOM      2  O   UNL     1       2.096  -0.481   0.188  0.00  0.00    -0.420 OA
ATOM      4  N   UNL     1       2.333  -2.705   0.152  0.00  0.00    -0.112 NA
ATOM      5  N   UNL     1       3.585  -2.139   0.004  0.00  0.00    -0.107 NA
ATOM     12  C   UNL     1       1.494  -1.700   0.255  0.00  0.00    +0.222 A 
ATOM     16  C   UNL     1       3.399  -0.840   0.031  0.00  0.00    +0.248 A 
BRANCH  16  19
ATOM      6  N   UNL     1       6.170   2.339  -0.290  0.00  0.00    -0.263 NA
ATOM     19  C   UNL     1       4.339   0.238  -0.077  0.00  0.00    +0.041 A 
ATOM     21  C   UNL     1       5.693  -0.031  -0.239  0.00  0.00    +0.033 A 
ATOM     22  C   UNL     1       3.899   1.556  -0.022  0.00  0.00    +0.033 A 
ATOM     23  C   UNL     1       6.560   1.045  -0.339  0.00  0.00    +0.111 A 
ATOM     24  C   UNL     1       4.846   2.561  -0.132  0.00  0.00    +0.111 A 
ENDBRANCH  16  19
ENDBRANCH   7  12
BRANCH   3  11
ATOM     11  C   UNL     1      -2.651   0.493  -0.855  0.00  0.00    +0.122 C 
BRANCH  11  13
ATOM      1  F   UNL     1      -4.724  -1.349  -1.432  0.00  0.00    -0.205 F 
ATOM     13  C   UNL     1      -4.073   0.687  -0.399  0.00  0.00    +0.002 A 
ATOM     14  C   UNL     1      -5.045  -0.261  -0.719  0.00  0.00    +0.128 A 
ATOM     15  C   UNL     1      -4.417   1.816   0.344  0.00  0.00    +0.008 A 
ATOM     17  C   UNL     1      -6.362  -0.079  -0.295  0.00  0.00    +0.038 A 
ATOM     18  C   UNL     1      -5.733   1.998   0.767  0.00  0.00    +0.000 A 
ATOM     20  C   UNL     1      -6.706   1.050   0.448  0.00  0.00    +0.003 A 
ENDBRANCH  11  13
ENDBRANCH   3  11
TORSDOF 4
