REMARK  Name = 25313316
REMARK  8 active torsions:
REMARK  status: ('A' for Active; 'I' for Inactive)
REMARK    1  A    between atoms: O_5  and  C_25
REMARK    2  A    between atoms: N_9  and  C_19
REMARK    3  A    between atoms: N_10  and  C_28
REMARK    4  A    between atoms: C_12  and  C_16
REMARK    5  A    between atoms: C_13  and  C_18
REMARK    6  A    between atoms: C_16  and  C_19
REMARK    7  A    between atoms: C_18  and  C_25
REMARK    8  A    between atoms: C_33  and  C_36
REMARK                            x       y       z     vdW  Elec       q    Type
REMARK                         _______ _______ _______ _____ _____    ______ ____
ROOT
ATOM      4  O   UNL     1      -3.369  -1.602   2.047  0.00  0.00    -0.252 OA
ATOM      6  O   UNL     1      -3.572  -5.523  -0.397  0.00  0.00    -0.377 OA
ATOM      8  N   UNL     1      -4.335  -0.627   0.197  0.00  0.00    -0.285 N 
ATOM     11  N   UNL     1      -3.267  -2.761   0.061  0.00  0.00    -0.281 N 
ATOM     12  C   UNL     1      -3.391   1.364  -0.958  0.00  0.00    +0.011 C 
ATOM     13  C   UNL     1      -4.380   2.249  -0.158  0.00  0.00    +0.006 C 
ATOM     14  C   UNL     1      -3.954  -0.065  -1.108  0.00  0.00    +0.113 C 
ATOM     15  C   UNL     1      -4.773   1.592   1.176  0.00  0.00    +0.023 C 
ATOM     17  C   UNL     1      -5.295   0.177   0.950  0.00  0.00    +0.109 C 
ATOM     22  C   UNL     1      -3.640  -1.661   0.841  0.00  0.00    +0.305 C 
ATOM     26  C   UNL     1      -4.011  -3.239  -1.112  0.00  0.00    +0.137 C 
ATOM     27  C   UNL     1      -2.282  -3.718   0.563  0.00  0.00    +0.137 C 
ATOM     29  C   UNL     1      -4.597  -4.619  -0.819  0.00  0.00    +0.179 C 
ATOM     30  C   UNL     1      -2.943  -5.067   0.805  0.00  0.00    +0.179 C 
ENDROOT
BRANCH  12  16
ATOM     16  C   UNL     1      -1.977   1.320  -0.362  0.00  0.00    +0.020 C 
BRANCH  16  19
ATOM     19  C   UNL     1      -0.944   1.020  -1.438  0.00  0.00    +0.085 C 
BRANCH  19   9
ATOM      9  N   UNL     1       0.391   0.966  -0.843  0.00  0.00    -0.299 NA
ATOM     10  N   UNL     1       3.034  -0.044  -0.455  0.00  0.00    -0.327 N 
ATOM     20  C   UNL     1       0.602  -0.319  -0.166  0.00  0.00    +0.103 C 
ATOM     21  C   UNL     1       1.421   1.165  -1.870  0.00  0.00    +0.103 C 
ATOM     23  C   UNL     1       1.974  -0.365   0.509  0.00  0.00    +0.120 C 
ATOM     24  C   UNL     1       2.821   1.168  -1.252  0.00  0.00    +0.120 C 
BRANCH  10  28
ATOM     28  C   UNL     1       4.337  -0.463  -0.164  0.00  0.00    +0.030 A 
ATOM     31  C   UNL     1       5.360   0.476  -0.037  0.00  0.00    +0.035 A 
ATOM     32  C   UNL     1       4.612  -1.821   0.001  0.00  0.00    +0.023 A 
ATOM     33  C   UNL     1       6.659   0.059   0.254  0.00  0.00    +0.057 A 
ATOM     34  C   UNL     1       5.911  -2.239   0.292  0.00  0.00    +0.002 A 
ATOM     35  C   UNL     1       6.934  -1.299   0.418  0.00  0.00    +0.012 A 
BRANCH  33  36
ATOM      1  F   UNL     1       8.959   0.491   0.673  0.00  0.00    -0.166 F 
ATOM      2  F   UNL     1       7.957   1.805  -0.740  0.00  0.00    -0.166 F 
ATOM      3  F   UNL     1       7.538   1.977   1.381  0.00  0.00    -0.166 F 
ATOM     36  C   UNL     1       7.753   1.063   0.388  0.00  0.00    +0.417 C 
ENDBRANCH  33  36
ENDBRANCH  10  28
ENDBRANCH  19   9
ENDBRANCH  16  19
ENDBRANCH  12  16
BRANCH  13  18
ATOM     18  C   UNL     1      -3.866   3.670   0.071  0.00  0.00    +0.124 C 
BRANCH  18  25
ATOM      7  O   UNL     1      -6.183   4.362   0.382  0.00  0.00    -0.251 OA
ATOM     25  C   UNL     1      -4.991   4.631   0.338  0.00  0.00    +0.305 C 
BRANCH  25   5
ATOM      5  O   UNL     1      -4.492   5.879   0.531  0.00  0.00    -0.481 OA
ATOM     37  H   UNL     1      -5.200   6.533   0.708  0.00  0.00    +0.295 HD
ENDBRANCH  25   5
ENDBRANCH  18  25
ENDBRANCH  13  18
TORSDOF 8
