REMARK  Name = 56774094
REMARK  10 active torsions:
REMARK  status: ('A' for Active; 'I' for Inactive)
REMARK    1  A    between atoms: O_2  and  C_20
REMARK    2  A    between atoms: O_2  and  C_23
REMARK    3  A    between atoms: N_3  and  C_8
REMARK    4  A    between atoms: N_3  and  C_14
REMARK    5  A    between atoms: C_6  and  C_11
REMARK    6  A    between atoms: C_6  and  C_12
REMARK    7  A    between atoms: C_7  and  C_10
REMARK    8  A    between atoms: C_10  and  C_13
REMARK    9  A    between atoms: C_14  and  C_16
REMARK   10  A    between atoms: C_17  and  C_20
REMARK                            x       y       z     vdW  Elec       q    Type
REMARK                         _______ _______ _______ _____ _____    ______ ____
ROOT
ATOM      6  C   UNL     1      -0.533   1.653   0.495  0.00  0.00    -0.016 C 
ATOM      7  C   UNL     1       0.908   1.104   0.466  0.00  0.00    +0.004 C 
ATOM      8  C   UNL     1      -0.970   0.265   1.009  0.00  0.00    +0.060 C 
ATOM      9  C   UNL     1       0.289  -0.301   0.318  0.00  0.00    +0.023 C 
ATOM     11  C   UNL     1      -1.140   1.975  -0.860  0.00  0.00    +0.013 C 
ATOM     12  C   UNL     1      -0.718   2.833   1.425  0.00  0.00    +0.013 C 
ENDROOT
BRANCH   8   3
ATOM      3  N   UNL     1      -2.157  -0.214   0.299  0.00  0.00    -0.309 NA
ATOM     24  H   UNL     1      -2.088  -1.192   0.015  0.00  0.00    +0.123 HD
BRANCH   3  14
ATOM     14  C   UNL     1      -3.329  -0.065   1.155  0.00  0.00    +0.118 C 
BRANCH  14  16
ATOM      5  N   UNL     1      -6.365  -2.053   0.077  0.00  0.00    -0.263 NA
ATOM     16  C   UNL     1      -4.598  -0.442   0.438  0.00  0.00    -0.015 A 
ATOM     18  C   UNL     1      -5.176   0.412  -0.493  0.00  0.00    +0.008 A 
ATOM     19  C   UNL     1      -5.226  -1.653   0.686  0.00  0.00    +0.115 A 
ATOM     21  C   UNL     1      -6.348   0.036  -1.140  0.00  0.00    +0.020 A 
ATOM     22  C   UNL     1      -6.898  -1.195  -0.822  0.00  0.00    +0.111 A 
ENDBRANCH  14  16
ENDBRANCH   3  14
ENDBRANCH   8   3
BRANCH   7  10
ATOM     10  C   UNL     1       1.784   1.530  -0.690  0.00  0.00    +0.063 C 
BRANCH  10  13
ATOM      1  O   UNL     1       4.342  -0.949  -1.267  0.00  0.00    -0.357 OA
ATOM      4  N   UNL     1       3.060  -0.441  -1.438  0.00  0.00    -0.083 NA
ATOM     13  C   UNL     1       3.041   0.693  -0.733  0.00  0.00    +0.084 A 
ATOM     15  C   UNL     1       4.269   0.950  -0.101  0.00  0.00    +0.073 A 
ATOM     17  C   UNL     1       5.053  -0.112  -0.468  0.00  0.00    +0.163 A 
BRANCH  17  20
ATOM     20  C   UNL     1       6.439  -0.499  -0.181  0.00  0.00    +0.236 C 
BRANCH  20   2
ATOM      2  O   UNL     1       6.469  -1.569   0.767  0.00  0.00    -0.375 OA
ATOM     23  C   UNL     1       7.801  -1.959   1.058  0.00  0.00    +0.194 C 
ENDBRANCH  20   2
ENDBRANCH  17  20
ENDBRANCH  10  13
ENDBRANCH   7  10
TORSDOF 7
