REMARK  Name = 38029425
REMARK  14 active torsions:
REMARK  status: ('A' for Active; 'I' for Inactive)
REMARK    1  A    between atoms: O_3  and  C_22
REMARK    2  A    between atoms: O_3  and  C_26
REMARK    3  A    between atoms: N_4  and  C_14
REMARK    4  A    between atoms: N_5  and  C_21
REMARK    5  A    between atoms: C_7  and  C_11
REMARK    6  A    between atoms: C_8  and  C_14
REMARK    7  A    between atoms: C_10  and  C_15
REMARK    8  A    between atoms: C_11  and  C_16
REMARK    9  A    between atoms: C_11  and  C_17
REMARK   10  A    between atoms: C_12  and  C_18
REMARK   11  A    between atoms: C_15  and  C_19
REMARK   12  A    between atoms: C_20  and  C_22
REMARK   13  A    between atoms: C_21  and  C_23
REMARK   14  A    between atoms: C_29  and  C_34
REMARK                            x       y       z     vdW  Elec       q    Type
REMARK                         _______ _______ _______ _____ _____    ______ ____
ROOT
ATOM      7  C   UNL     1      -3.364  -0.209  -0.944  0.00  0.00    +0.000 C 
ATOM      8  C   UNL     1      -4.315   0.946  -0.542  0.00  0.00    +0.032 C 
ATOM      9  C   UNL     1      -3.713  -1.487  -0.166  0.00  0.00    +0.012 C 
ATOM     10  C   UNL     1      -3.620  -1.286   1.358  0.00  0.00    +0.023 C 
ATOM     12  C   UNL     1      -4.312  -0.013   1.802  0.00  0.00    -0.073 C 
ATOM     13  C   UNL     1      -4.627   0.967   0.936  0.00  0.00    -0.022 C 
ATOM     18  C   UNL     1      -4.676   0.087   3.257  0.00  0.00    +0.039 C 
ENDROOT
BRANCH   7  11
ATOM     11  C   UNL     1      -3.413  -0.488  -2.449  0.00  0.00    -0.013 C 
ATOM     16  C   UNL     1      -4.616  -1.362  -2.790  0.00  0.00    +0.007 C 
ATOM     17  C   UNL     1      -2.117  -1.147  -2.911  0.00  0.00    +0.007 C 
ENDBRANCH   7  11
BRANCH   8  14
ATOM     14  C   UNL     1      -3.745   2.305  -0.963  0.00  0.00    +0.112 C 
BRANCH  14   4
ATOM      2  O   UNL     1      -1.111   2.773  -2.063  0.00  0.00    -0.272 OA
ATOM      4  N   UNL     1      -2.547   2.598  -0.240  0.00  0.00    -0.312 N 
ATOM     20  C   UNL     1      -1.313   2.811  -0.852  0.00  0.00    +0.251 C 
ATOM     36  H   UNL     1      -2.611   2.711   0.768  0.00  0.00    +0.149 HD
BRANCH  20  22
ATOM     22  C   UNL     1      -0.218   3.103   0.152  0.00  0.00    +0.324 C 
BRANCH  22   3
ATOM      3  O   UNL     1       1.012   3.327  -0.504  0.00  0.00    -0.483 OA
BRANCH   3  26
ATOM     26  C   UNL     1       2.157   2.986   0.178  0.00  0.00    +0.121 A 
ATOM     30  C   UNL     1       2.184   3.050   1.571  0.00  0.00    +0.045 A 
ATOM     31  C   UNL     1       3.291   2.578  -0.524  0.00  0.00    +0.045 A 
ATOM     32  C   UNL     1       3.346   2.706   2.263  0.00  0.00    +0.004 A 
ATOM     33  C   UNL     1       4.452   2.233   0.168  0.00  0.00    +0.004 A 
ATOM     35  C   UNL     1       4.480   2.297   1.561  0.00  0.00    +0.000 A 
ENDBRANCH   3  26
ENDBRANCH  22   3
ENDBRANCH  20  22
ENDBRANCH  14   4
ENDBRANCH   8  14
BRANCH  10  15
ATOM     15  C   UNL     1      -2.162  -1.310   1.829  0.00  0.00    +0.103 C 
BRANCH  15  19
ATOM      1  O   UNL     1      -1.781  -3.696   1.706  0.00  0.00    -0.276 OA
ATOM      5  N   UNL     1      -0.358  -2.250   0.573  0.00  0.00    -0.311 N 
ATOM     19  C   UNL     1      -1.440  -2.562   1.383  0.00  0.00    +0.214 C 
ATOM     37  H   UNL     1      -0.203  -1.283   0.303  0.00  0.00    +0.149 HD
BRANCH   5  21
ATOM     21  C   UNL     1       0.514  -3.250   0.002  0.00  0.00    +0.139 C 
BRANCH  21  23
ATOM     23  C   UNL     1       1.911  -2.735  -0.189  0.00  0.00    -0.030 A 
ATOM     24  C   UNL     1       2.195  -1.859  -1.237  0.00  0.00    +0.006 A 
ATOM     25  C   UNL     1       2.926  -3.131   0.683  0.00  0.00    +0.006 A 
ATOM     27  C   UNL     1       3.493  -1.380  -1.414  0.00  0.00    +0.019 A 
ATOM     28  C   UNL     1       4.224  -2.652   0.506  0.00  0.00    +0.019 A 
ATOM     29  C   UNL     1       4.508  -1.776  -0.543  0.00  0.00    +0.052 A 
BRANCH  29  34
ATOM      6  N   UNL     1       6.917  -0.887  -0.871  0.00  0.00    -0.191 NA
ATOM     34  C   UNL     1       5.837  -1.286  -0.724  0.00  0.00    +0.099 C 
ENDBRANCH  29  34
ENDBRANCH  21  23
ENDBRANCH   5  21
ENDBRANCH  15  19
ENDBRANCH  10  15
TORSDOF 11
