REMARK  Name = 7049366
REMARK  8 active torsions:
REMARK  status: ('A' for Active; 'I' for Inactive)
REMARK    1  A    between atoms: O_2  and  C_11
REMARK    2  A    between atoms: O_3  and  C_13
REMARK    3  A    between atoms: N_7  and  C_12
REMARK    4  A    between atoms: N_8  and  C_19
REMARK    5  A    between atoms: N_9  and  C_22
REMARK    6  A    between atoms: C_15  and  C_17
REMARK    7  A    between atoms: C_19  and  C_20
REMARK    8  A    between atoms: C_19  and  C_21
REMARK                            x       y       z     vdW  Elec       q    Type
REMARK                         _______ _______ _______ _____ _____    ______ ____
ROOT
ATOM     11  C   UNL     1       0.273   2.469   1.008  0.00  0.00    +0.167 C 
ATOM     12  C   UNL     1       0.111   1.532  -0.205  0.00  0.00    +0.129 C 
ATOM     13  C   UNL     1       1.535   3.332   0.887  0.00  0.00    +0.149 C 
ATOM     14  C   UNL     1       2.802   2.480   0.699  0.00  0.00    +0.074 C 
ATOM     15  C   UNL     1       2.593   1.288  -0.190  0.00  0.00    +0.015 C 
ATOM     16  C   UNL     1       1.393   0.857  -0.610  0.00  0.00    +0.006 C 
ENDROOT
BRANCH  12   7
ATOM      5  O   UNL     1      -2.693   1.743  -0.750  0.00  0.00    -0.252 OA
ATOM      7  N   UNL     1      -0.892   0.523   0.033  0.00  0.00    -0.290 N 
ATOM      9  N   UNL     1      -2.978  -0.437   0.072  0.00  0.00    -0.268 N 
ATOM     18  C   UNL     1      -2.248   0.707  -0.264  0.00  0.00    +0.304 C 
ATOM     28  H   UNL     1      -0.613  -0.343   0.485  0.00  0.00    +0.151 HD
ATOM     32  H   UNL     1      -2.457  -1.215   0.468  0.00  0.00    +0.156 HD
BRANCH   9  22
ATOM      1 BR   UNL     1      -3.956  -3.281   1.048  0.00  0.00    -0.048 Br
ATOM     22  C   UNL     1      -4.369  -0.652  -0.071  0.00  0.00    +0.049 A 
ATOM     23  C   UNL     1      -4.966  -1.853   0.310  0.00  0.00    +0.039 A 
ATOM     24  C   UNL     1      -5.146   0.374  -0.609  0.00  0.00    +0.024 A 
ATOM     25  C   UNL     1      -6.341  -2.029   0.154  0.00  0.00    +0.017 A 
ATOM     26  C   UNL     1      -6.521   0.198  -0.766  0.00  0.00    +0.002 A 
ATOM     27  C   UNL     1      -7.118  -1.004  -0.384  0.00  0.00    +0.001 A 
ENDBRANCH   9  22
ENDBRANCH  12   7
BRANCH  15  17
ATOM      4  O   UNL     1       4.652   1.114  -1.308  0.00  0.00    -0.271 OA
ATOM      8  N   UNL     1       3.767  -0.777  -0.271  0.00  0.00    -0.301 N 
ATOM     17  C   UNL     1       3.775   0.554  -0.651  0.00  0.00    +0.240 C 
ATOM     31  H   UNL     1       2.984  -1.135   0.271  0.00  0.00    +0.150 HD
BRANCH   8  19
ATOM     19  C   UNL     1       4.824  -1.702  -0.610  0.00  0.00    +0.156 C 
ATOM     20  C   UNL     1       4.540  -2.396  -1.932  0.00  0.00    +0.038 C 
BRANCH  19  21
ATOM      6  O   UNL     1       4.003  -3.118   1.184  0.00  0.00    -0.274 OA
ATOM     10  N   UNL     1       6.247  -3.158   0.693  0.00  0.00    -0.328 N 
ATOM     21  C   UNL     1       4.954  -2.711   0.520  0.00  0.00    +0.231 C 
ATOM     33  H   UNL     1       6.469  -3.844   1.407  0.00  0.00    +0.145 HD
ATOM     34  H   UNL     1       7.019  -2.828   0.123  0.00  0.00    +0.145 HD
ENDBRANCH  19  21
ENDBRANCH   8  19
ENDBRANCH  15  17
BRANCH  11   2
ATOM      2  O   UNL     1       0.359   1.694   2.205  0.00  0.00    -0.387 OA
ATOM     29  H   UNL     1       0.431   2.314   2.951  0.00  0.00    +0.210 HD
ENDBRANCH  11   2
BRANCH  13   3
ATOM      3  O   UNL     1       1.399   4.252  -0.194  0.00  0.00    -0.389 OA
ATOM     30  H   UNL     1       2.197   4.809  -0.209  0.00  0.00    +0.210 HD
ENDBRANCH  13   3
TORSDOF 7
