REMARK  Name = 11882057
REMARK  10 active torsions:
REMARK  status: ('A' for Active; 'I' for Inactive)
REMARK    1  A    between atoms: N_7  and  C_13
REMARK    2  A    between atoms: N_8  and  C_19
REMARK    3  A    between atoms: N_9  and  C_23
REMARK    4  A    between atoms: C_14  and  C_17
REMARK    5  A    between atoms: C_18  and  C_21
REMARK    6  A    between atoms: C_19  and  C_22
REMARK    7  A    between atoms: C_19  and  C_24
REMARK    8  A    between atoms: C_22  and  C_25
REMARK    9  A    between atoms: C_23  and  C_27
REMARK   10  A    between atoms: C_23  and  C_28
REMARK                            x       y       z     vdW  Elec       q    Type
REMARK                         _______ _______ _______ _____ _____    ______ ____
ROOT
ATOM      3  O   UNL     1      -0.230   2.122   1.143  0.00  0.00    -0.268 OA
ATOM      6  N   UNL     1      -1.262   1.019  -0.630  0.00  0.00    -0.283 N 
ATOM     13  C   UNL     1      -1.292  -1.238  -1.356  0.00  0.00    +0.105 C 
ATOM     14  C   UNL     1      -0.507  -0.225  -0.523  0.00  0.00    +0.182 C 
ATOM     15  C   UNL     1      -1.994  -0.370  -2.403  0.00  0.00    +0.043 C 
ATOM     16  C   UNL     1      -2.297   0.924  -1.659  0.00  0.00    +0.111 C 
ATOM     18  C   UNL     1      -1.105   2.054   0.283  0.00  0.00    +0.267 C 
ENDROOT
BRANCH  13   7
ATOM      4  O   UNL     1      -0.917  -3.780  -0.042  0.00  0.00    -0.253 OA
ATOM      7  N   UNL     1      -2.252  -1.948  -0.545  0.00  0.00    -0.294 N 
ATOM      9  N   UNL     1      -3.083  -3.636   0.777  0.00  0.00    -0.297 N 
ATOM     20  C   UNL     1      -1.985  -3.177   0.054  0.00  0.00    +0.300 C 
ATOM     34  H   UNL     1      -3.145  -1.504  -0.349  0.00  0.00    +0.151 HD
ATOM     36  H   UNL     1      -3.895  -3.031   0.859  0.00  0.00    +0.150 HD
BRANCH   9  23
ATOM     23  C   UNL     1      -3.077  -4.887   1.498  0.00  0.00    +0.068 C 
ATOM     27  C   UNL     1      -4.473  -5.497   1.512  0.00  0.00    +0.027 C 
ATOM     28  C   UNL     1      -2.549  -4.686   2.913  0.00  0.00    +0.027 C 
ENDBRANCH   9  23
ENDBRANCH  13   7
BRANCH  18  21
ATOM     10  N   UNL     1      -3.367   2.836   0.407  0.00  0.00    -0.247 NA
ATOM     12  N   UNL     1      -2.547   5.473  -0.086  0.00  0.00    -0.259 NA
ATOM     21  C   UNL     1      -2.072   3.157   0.218  0.00  0.00    +0.144 A 
ATOM     26  C   UNL     1      -1.669   4.452  -0.024  0.00  0.00    +0.143 A 
ATOM     30  C   UNL     1      -4.245   3.857   0.346  0.00  0.00    +0.131 A 
ATOM     31  C   UNL     1      -3.843   5.152   0.103  0.00  0.00    +0.130 A 
ENDBRANCH  18  21
BRANCH  14  17
ATOM      2  O   UNL     1       1.002   0.858  -2.023  0.00  0.00    -0.274 OA
ATOM      8  N   UNL     1       1.837  -0.720  -0.530  0.00  0.00    -0.302 N 
ATOM     17  C   UNL     1       0.845   0.049  -1.113  0.00  0.00    +0.236 C 
ATOM     35  H   UNL     1       1.574  -1.417   0.162  0.00  0.00    +0.150 HD
BRANCH   8  19
ATOM     19  C   UNL     1       3.223  -0.662  -0.934  0.00  0.00    +0.163 C 
BRANCH  19  24
ATOM      5  O   UNL     1       2.784  -2.699  -2.186  0.00  0.00    -0.274 OA
ATOM     11  N   UNL     1       4.262  -1.171  -3.057  0.00  0.00    -0.328 N 
ATOM     24  C   UNL     1       3.391  -1.635  -2.093  0.00  0.00    +0.231 C 
ATOM     37  H   UNL     1       4.452  -1.716  -3.891  0.00  0.00    +0.145 HD
ATOM     38  H   UNL     1       4.754  -0.288  -2.969  0.00  0.00    +0.145 HD
ENDBRANCH  19  24
BRANCH  19  22
ATOM     22  C   UNL     1       4.178  -1.023   0.210  0.00  0.00    +0.074 C 
BRANCH  22  25
ATOM      1  S   UNL     1       5.975   0.702   1.457  0.00  0.00    -0.102 S 
ATOM     25  C   UNL     1       4.389   0.127   1.166  0.00  0.00    -0.008 A 
ATOM     29  C   UNL     1       3.445   0.828   1.885  0.00  0.00    +0.011 A 
ATOM     32  C   UNL     1       4.033   1.850   2.685  0.00  0.00    +0.008 A 
ATOM     33  C   UNL     1       5.403   1.892   2.547  0.00  0.00    +0.045 A 
ENDBRANCH  22  25
ENDBRANCH  19  22
ENDBRANCH   8  19
ENDBRANCH  14  17
TORSDOF 8
