REMARK  Name = 38028073
REMARK  10 active torsions:
REMARK  status: ('A' for Active; 'I' for Inactive)
REMARK    1  A    between atoms: S_2  and  N_7
REMARK    2  A    between atoms: S_2  and  C_26
REMARK    3  A    between atoms: N_7  and  C_16
REMARK    4  A    between atoms: C_9  and  C_13
REMARK    5  A    between atoms: C_10  and  C_16
REMARK    6  A    between atoms: C_12  and  C_17
REMARK    7  A    between atoms: C_13  and  C_18
REMARK    8  A    between atoms: C_13  and  C_19
REMARK    9  A    between atoms: C_14  and  C_20
REMARK   10  A    between atoms: C_17  and  C_21
REMARK                            x       y       z     vdW  Elec       q    Type
REMARK                         _______ _______ _______ _____ _____    ______ ____
ROOT
ATOM      9  C   UNL     1      -0.493  -1.753   0.745  0.00  0.00    +0.000 C 
ATOM     10  C   UNL     1       0.671  -2.096  -0.218  0.00  0.00    +0.030 C 
ATOM     11  C   UNL     1      -1.820  -2.300   0.198  0.00  0.00    +0.012 C 
ATOM     12  C   UNL     1      -2.155  -1.733  -1.194  0.00  0.00    +0.023 C 
ATOM     14  C   UNL     1      -0.963  -1.792  -2.128  0.00  0.00    -0.073 C 
ATOM     15  C   UNL     1       0.291  -1.968  -1.674  0.00  0.00    -0.023 C 
ATOM     20  C   UNL     1      -1.250  -1.689  -3.600  0.00  0.00    +0.039 C 
ENDROOT
BRANCH   9  13
ATOM     13  C   UNL     1      -0.247  -2.302   2.154  0.00  0.00    -0.013 C 
ATOM     18  C   UNL     1      -1.028  -1.493   3.184  0.00  0.00    +0.007 C 
ATOM     19  C   UNL     1      -0.626  -3.777   2.224  0.00  0.00    +0.007 C 
ENDBRANCH   9  13
BRANCH  10  16
ATOM     16  C   UNL     1       1.900  -1.225   0.068  0.00  0.00    +0.113 C 
BRANCH  16   7
ATOM      7  N   UNL     1       1.578   0.177  -0.239  0.00  0.00    -0.189 NA
ATOM     32  H   UNL     1       1.284   0.375  -1.203  0.00  0.00    +0.148 HD
BRANCH   7   2
ATOM      2  S   UNL     1       2.337   1.438   0.619  0.00  0.00    +0.058 S 
ATOM      5  O   UNL     1       2.150   1.228   2.042  0.00  0.00    -0.153 OA
ATOM      6  O   UNL     1       1.977   2.707   0.016  0.00  0.00    -0.153 OA
BRANCH   2  26
ATOM      1 CL   UNL     1       8.389   0.426  -0.709  0.00  0.00    -0.084 Cl
ATOM     26  C   UNL     1       4.041   1.153   0.245  0.00  0.00    +0.105 A 
ATOM     27  C   UNL     1       4.620   1.756  -0.871  0.00  0.00    +0.030 A 
ATOM     28  C   UNL     1       4.806   0.326   1.067  0.00  0.00    +0.030 A 
ATOM     29  C   UNL     1       5.964   1.531  -1.167  0.00  0.00    +0.022 A 
ATOM     30  C   UNL     1       6.151   0.101   0.772  0.00  0.00    +0.022 A 
ATOM     31  C   UNL     1       6.730   0.704  -0.345  0.00  0.00    +0.041 A 
ENDBRANCH   2  26
ENDBRANCH   7   2
ENDBRANCH  16   7
ENDBRANCH  10  16
BRANCH  12  17
ATOM     17  C   UNL     1      -2.702  -0.304  -1.092  0.00  0.00    +0.103 C 
BRANCH  17  21
ATOM      3  O   UNL     1      -4.649  -1.418  -0.325  0.00  0.00    -0.276 OA
ATOM      4  O   UNL     1      -5.800   3.300   0.613  0.00  0.00    -0.377 OA
ATOM      8  N   UNL     1      -4.750   0.899  -0.425  0.00  0.00    -0.297 N 
ATOM     21  C   UNL     1      -4.120  -0.334  -0.581  0.00  0.00    +0.216 C 
ATOM     22  C   UNL     1      -6.125   0.962   0.070  0.00  0.00    +0.136 C 
ATOM     23  C   UNL     1      -4.199   2.195  -0.837  0.00  0.00    +0.136 C 
ATOM     24  C   UNL     1      -6.259   2.047   1.129  0.00  0.00    +0.179 C 
ATOM     25  C   UNL     1      -4.417   3.233   0.257  0.00  0.00    +0.179 C 
ENDBRANCH  17  21
ENDBRANCH  12  17
TORSDOF 7
