REMARK  Name = 45360572
REMARK  6 active torsions:
REMARK  status: ('A' for Active; 'I' for Inactive)
REMARK    1  A    between atoms: O_3  and  C_10
REMARK    2  A    between atoms: N_5  and  C_9
REMARK    3  A    between atoms: N_6  and  C_11
REMARK    4  A    between atoms: N_7  and  C_20
REMARK    5  A    between atoms: N_8  and  C_21
REMARK    6  A    between atoms: C_21  and  C_22
REMARK                            x       y       z     vdW  Elec       q    Type
REMARK                         _______ _______ _______ _____ _____    ______ ____
ROOT
ATOM      1  O   UNL     1      -0.400  -1.895  -1.499  0.00  0.00    -0.342 OA
ATOM      2  O   UNL     1      -0.790  -3.540   0.088  0.00  0.00    -0.347 OA
ATOM      9  C   UNL     1      -1.074  -1.222   0.716  0.00  0.00    +0.144 C 
ATOM     10  C   UNL     1       0.403  -1.139   1.162  0.00  0.00    +0.159 C 
ATOM     11  C   UNL     1       1.407  -1.386   0.015  0.00  0.00    +0.136 C 
ATOM     12  C   UNL     1      -1.244  -2.267  -0.402  0.00  0.00    +0.270 C 
ATOM     13  C   UNL     1       0.878  -2.363  -1.055  0.00  0.00    +0.170 C 
ATOM     14  C   UNL     1       0.499  -3.729  -0.515  0.00  0.00    +0.196 C 
ENDROOT
BRANCH   9   5
ATOM      5  N   UNL     1      -1.531   0.084   0.244  0.00  0.00    -0.290 NA
ATOM      7  N   UNL     1      -3.475   2.216   0.051  0.00  0.00    -0.303 NA
ATOM     15  C   UNL     1      -1.790   0.985   1.374  0.00  0.00    +0.100 C 
ATOM     16  C   UNL     1      -2.733  -0.053  -0.588  0.00  0.00    +0.100 C 
ATOM     17  C   UNL     1      -2.272   2.354   0.881  0.00  0.00    +0.099 C 
ATOM     18  C   UNL     1      -3.216   1.316  -1.080  0.00  0.00    +0.099 C 
ATOM     20  C   UNL     1      -3.934   3.521  -0.420  0.00  0.00    +0.105 C 
ENDBRANCH   9   5
BRANCH  11   6
ATOM      4  O   UNL     1       3.551   0.380   0.796  0.00  0.00    -0.253 OA
ATOM      6  N   UNL     1       1.773  -0.131  -0.606  0.00  0.00    -0.291 N 
ATOM      8  N   UNL     1       2.958   1.808  -0.934  0.00  0.00    -0.300 N 
ATOM     19  C   UNL     1       2.827   0.658  -0.159  0.00  0.00    +0.300 C 
ATOM     23  H   UNL     1       1.185   0.226  -1.354  0.00  0.00    +0.151 HD
ATOM     25  H   UNL     1       2.307   1.958  -1.698  0.00  0.00    +0.150 HD
BRANCH   8  21
ATOM     21  C   UNL     1       3.974   2.805  -0.690  0.00  0.00    +0.102 C 
ATOM     22  C   UNL     1       3.582   3.729   0.444  0.00  0.00    +0.024 C 
ENDBRANCH   8  21
ENDBRANCH  11   6
BRANCH  10   3
ATOM      3  O   UNL     1       0.609  -2.132   2.176  0.00  0.00    -0.388 OA
ATOM     24  H   UNL     1       1.522  -2.039   2.497  0.00  0.00    +0.210 HD
ENDBRANCH  10   3
TORSDOF 4
