REMARK  Name = 40776827
REMARK  11 active torsions:
REMARK  status: ('A' for Active; 'I' for Inactive)
REMARK    1  A    between atoms: O_1  and  C_16
REMARK    2  A    between atoms: O_1  and  C_21
REMARK    3  A    between atoms: O_3  and  C_29
REMARK    4  A    between atoms: O_3  and  C_35
REMARK    5  A    between atoms: N_8  and  C_26
REMARK    6  A    between atoms: C_10  and  C_17
REMARK    7  A    between atoms: C_11  and  C_16
REMARK    8  A    between atoms: C_19  and  C_22
REMARK    9  A    between atoms: C_20  and  C_23
REMARK   10  A    between atoms: C_34  and  C_36
REMARK   11  A    between atoms: C_36  and  C_37
REMARK                            x       y       z     vdW  Elec       q    Type
REMARK                         _______ _______ _______ _____ _____    ______ ____
ROOT
ATOM      5  N   UNL     1      -0.638   3.584   1.700  0.00  0.00    -0.296 NA
ATOM      9  C   UNL     1      -1.265   3.752  -0.822  0.00  0.00    +0.002 C 
ATOM     10  C   UNL     1      -2.293   2.868  -0.064  0.00  0.00    +0.055 C 
ATOM     11  C   UNL     1       0.550   3.277   0.859  0.00  0.00    +0.095 C 
ATOM     12  C   UNL     1       0.151   3.169  -0.628  0.00  0.00    +0.026 C 
ATOM     13  C   UNL     1      -1.281   5.138  -0.141  0.00  0.00    +0.019 C 
ATOM     14  C   UNL     1      -1.745   2.650   1.375  0.00  0.00    +0.094 C 
ATOM     15  C   UNL     1      -1.082   4.960   1.374  0.00  0.00    +0.085 C 
ENDROOT
BRANCH  10  17
ATOM      6  N   UNL     1      -2.193   1.268  -1.911  0.00  0.00    -0.237 NA
ATOM      7  N   UNL     1      -3.505  -0.753  -1.932  0.00  0.00    -0.232 NA
ATOM     17  C   UNL     1      -2.740   1.567  -0.715  0.00  0.00    +0.050 A 
ATOM     18  C   UNL     1      -3.663   0.767  -0.073  0.00  0.00    +0.052 A 
ATOM     19  C   UNL     1      -4.011  -0.393  -0.735  0.00  0.00    +0.075 A 
ATOM     20  C   UNL     1      -2.614   0.111  -2.455  0.00  0.00    +0.127 A 
ATOM     23  C   UNL     1      -2.033  -0.253  -3.780  0.00  0.00    +0.088 C 
BRANCH  19  22
ATOM     22  C   UNL     1      -4.968  -1.315  -0.170  0.00  0.00    +0.001 A 
ATOM     24  C   UNL     1      -4.718  -1.910   1.066  0.00  0.00    +0.013 A 
ATOM     25  C   UNL     1      -6.142  -1.612  -0.863  0.00  0.00    +0.013 A 
ATOM     27  C   UNL     1      -5.641  -2.802   1.611  0.00  0.00    +0.046 A 
ATOM     28  C   UNL     1      -7.065  -2.505  -0.318  0.00  0.00    +0.046 A 
ATOM     29  C   UNL     1      -6.815  -3.099   0.918  0.00  0.00    +0.120 A 
BRANCH  29   3
ATOM      3  O   UNL     1      -7.715  -3.971   1.449  0.00  0.00    -0.495 OA
ATOM     35  C   UNL     1      -8.894  -4.230   0.688  0.00  0.00    +0.277 C 
ENDBRANCH  29   3
ENDBRANCH  19  22
ENDBRANCH  10  17
BRANCH  11  16
ATOM     16  C   UNL     1       1.299   2.033   1.341  0.00  0.00    +0.252 C 
BRANCH  16   1
ATOM      1  O   UNL     1       2.466   1.883   0.556  0.00  0.00    -0.449 OA
BRANCH   1  21
ATOM      2  O   UNL     1       3.018   0.004   1.736  0.00  0.00    -0.226 OA
ATOM      8  N   UNL     1       4.361   0.805  -0.005  0.00  0.00    -0.251 N 
ATOM     21  C   UNL     1       3.274   0.806   0.847  0.00  0.00    +0.405 C 
ATOM     38  H   UNL     1       4.401   1.561  -0.684  0.00  0.00    +0.158 HD
BRANCH   8  26
ATOM     26  C   UNL     1       5.431  -0.118  -0.050  0.00  0.00    +0.036 A 
ATOM     30  C   UNL     1       5.466  -1.189   0.843  0.00  0.00    +0.024 A 
ATOM     31  C   UNL     1       6.452   0.043  -0.987  0.00  0.00    +0.024 A 
ATOM     32  C   UNL     1       6.522  -2.099   0.798  0.00  0.00    +0.013 A 
ATOM     33  C   UNL     1       7.508  -0.867  -1.031  0.00  0.00    +0.013 A 
ATOM     34  C   UNL     1       7.543  -1.938  -0.138  0.00  0.00    +0.017 A 
BRANCH  34  36
ATOM      4  O   UNL     1       9.241  -3.142  -1.248  0.00  0.00    -0.292 OA
ATOM     36  C   UNL     1       8.644  -2.887  -0.183  0.00  0.00    +0.160 C 
ATOM     37  C   UNL     1       9.095  -3.601   1.087  0.00  0.00    +0.091 C 
ENDBRANCH  34  36
ENDBRANCH   8  26
ENDBRANCH   1  21
ENDBRANCH  16   1
ENDBRANCH  11  16
TORSDOF 8
