REMARK  Name = 26742909
REMARK  6 active torsions:
REMARK  status: ('A' for Active; 'I' for Inactive)
REMARK    1  A    between atoms: N_5  and  C_18
REMARK    2  A    between atoms: C_7  and  C_13
REMARK    3  A    between atoms: C_8  and  C_12
REMARK    4  A    between atoms: C_12  and  C_14
REMARK    5  A    between atoms: C_13  and  C_15
REMARK    6  A    between atoms: C_17  and  C_19
REMARK                            x       y       z     vdW  Elec       q    Type
REMARK                         _______ _______ _______ _____ _____    ______ ____
ROOT
ATOM      4  N   UNL     1       0.096   3.358   0.828  0.00  0.00    -0.316 NA
ATOM      7  C   UNL     1       1.638   1.323  -0.651  0.00  0.00    +0.004 C 
ATOM      8  C   UNL     1       0.127   1.175  -0.354  0.00  0.00    +0.012 C 
ATOM      9  C   UNL     1       2.008   2.816  -0.639  0.00  0.00    +0.019 C 
ATOM     10  C   UNL     1      -0.282   1.947   0.911  0.00  0.00    +0.085 C 
ATOM     11  C   UNL     1       1.534   3.524   0.629  0.00  0.00    +0.081 C 
ATOM     30  H   UNL     1      -0.183   3.833   1.686  0.00  0.00    +0.122 HD
ENDROOT
BRANCH   8  12
ATOM     12  C   UNL     1      -0.326  -0.283  -0.264  0.00  0.00    +0.064 C 
BRANCH  12  14
ATOM      3  O   UNL     1      -3.636  -0.681  -1.624  0.00  0.00    -0.354 OA
ATOM      6  N   UNL     1      -2.255  -0.605  -1.753  0.00  0.00    -0.083 NA
ATOM     14  C   UNL     1      -1.801  -0.414  -0.511  0.00  0.00    +0.085 A 
ATOM     16  C   UNL     1      -2.841  -0.362   0.434  0.00  0.00    +0.076 A 
ATOM     17  C   UNL     1      -3.973  -0.535  -0.317  0.00  0.00    +0.167 A 
BRANCH  17  19
ATOM      1  F   UNL     1      -9.416  -0.760   0.808  0.00  0.00    -0.205 F 
ATOM     19  C   UNL     1      -5.376  -0.592  -0.027  0.00  0.00    +0.020 A 
ATOM     22  C   UNL     1      -5.823  -0.453   1.287  0.00  0.00    +0.014 A 
ATOM     23  C   UNL     1      -6.294  -0.788  -1.059  0.00  0.00    +0.014 A 
ATOM     26  C   UNL     1      -7.188  -0.509   1.569  0.00  0.00    +0.039 A 
ATOM     27  C   UNL     1      -7.659  -0.845  -0.777  0.00  0.00    +0.039 A 
ATOM     29  C   UNL     1      -8.106  -0.705   0.537  0.00  0.00    +0.123 A 
ENDBRANCH  17  19
ENDBRANCH  12  14
ENDBRANCH   8  12
BRANCH   7  13
ATOM     13  C   UNL     1       2.541   0.530   0.301  0.00  0.00    +0.100 C 
BRANCH  13  15
ATOM      2  O   UNL     1       4.236   0.662  -1.405  0.00  0.00    -0.275 OA
ATOM      5  N   UNL     1       4.704  -0.427   0.623  0.00  0.00    -0.285 N 
ATOM     15  C   UNL     1       3.918   0.277  -0.285  0.00  0.00    +0.217 C 
ATOM     31  H   UNL     1       4.284  -0.672   1.517  0.00  0.00    +0.155 HD
BRANCH   5  18
ATOM     18  C   UNL     1       6.043  -0.854   0.455  0.00  0.00    +0.033 A 
ATOM     20  C   UNL     1       6.684  -1.555   1.476  0.00  0.00    +0.023 A 
ATOM     21  C   UNL     1       6.721  -0.575  -0.732  0.00  0.00    +0.023 A 
ATOM     24  C   UNL     1       8.004  -1.976   1.311  0.00  0.00    +0.002 A 
ATOM     25  C   UNL     1       8.041  -0.996  -0.896  0.00  0.00    +0.002 A 
ATOM     28  C   UNL     1       8.682  -1.697   0.125  0.00  0.00    +0.000 A 
ENDBRANCH   5  18
ENDBRANCH  13  15
ENDBRANCH   7  13
TORSDOF 6
