REMARK  Name = 26743302
REMARK  12 active torsions:
REMARK  status: ('A' for Active; 'I' for Inactive)
REMARK    1  A    between atoms: N_4  and  C_18
REMARK    2  A    between atoms: N_4  and  C_20
REMARK    3  A    between atoms: C_6  and  C_12
REMARK    4  A    between atoms: C_7  and  C_11
REMARK    5  A    between atoms: C_11  and  C_13
REMARK    6  A    between atoms: C_12  and  C_14
REMARK    7  A    between atoms: C_16  and  C_19
REMARK    8  A    between atoms: C_17  and  C_21
REMARK    9  A    between atoms: C_17  and  C_26
REMARK   10  A    between atoms: C_17  and  C_27
REMARK   11  A    between atoms: C_17  and  C_28
REMARK   12  A    between atoms: C_18  and  C_29
REMARK                            x       y       z     vdW  Elec       q    Type
REMARK                         _______ _______ _______ _____ _____    ______ ____
ROOT
ATOM     11  C   UNL     1       1.526   0.209  -0.347  0.00  0.00    +0.064 C 
ENDROOT
BRANCH  11   7
ATOM      3  N   UNL     1       2.700  -3.373  -0.991  0.00  0.00    -0.316 NA
ATOM      6  C   UNL     1       3.403  -1.125   0.786  0.00  0.00    +0.004 C 
ATOM      7  C   UNL     1       2.079  -1.177  -0.014  0.00  0.00    +0.012 C 
ATOM      8  C   UNL     1       3.917  -2.559   0.998  0.00  0.00    +0.019 C 
ATOM      9  C   UNL     1       2.219  -2.024  -1.290  0.00  0.00    +0.085 C 
ATOM     10  C   UNL     1       3.991  -3.351  -0.307  0.00  0.00    +0.081 C 
ATOM     31  H   UNL     1       2.788  -3.900  -1.860  0.00  0.00    +0.122 HD
BRANCH   6  12
ATOM     12  C   UNL     1       4.484  -0.246   0.146  0.00  0.00    +0.100 C 
BRANCH  12  14
ATOM      2  O   UNL     1       5.470  -0.151   2.329  0.00  0.00    -0.276 OA
ATOM      4  N   UNL     1       6.567   0.997   0.637  0.00  0.00    -0.293 N 
ATOM     14  C   UNL     1       5.540   0.194   1.146  0.00  0.00    +0.216 C 
ATOM     20  C   UNL     1       7.652   1.499   1.471  0.00  0.00    +0.133 C 
BRANCH   4  18
ATOM     18  C   UNL     1       6.628   1.393  -0.768  0.00  0.00    +0.196 C 
BRANCH  18  29
ATOM     29  C   UNL     1       5.918   2.651  -0.992  0.00  0.00    -0.086 C 
ATOM     30  C   UNL     1       5.335   3.684  -1.181  0.00  0.00    +0.005 C 
ENDBRANCH  18  29
ENDBRANCH   4  18
ENDBRANCH  12  14
ENDBRANCH   6  12
ENDBRANCH  11   7
BRANCH  11  13
ATOM      1  O   UNL     1      -1.772  -0.037  -1.769  0.00  0.00    -0.354 OA
ATOM      5  N   UNL     1      -0.386  -0.048  -1.869  0.00  0.00    -0.083 NA
ATOM     13  C   UNL     1       0.051   0.158  -0.623  0.00  0.00    +0.085 A 
ATOM     15  C   UNL     1      -1.002   0.305   0.295  0.00  0.00    +0.076 A 
ATOM     16  C   UNL     1      -2.127   0.174  -0.476  0.00  0.00    +0.167 A 
BRANCH  16  19
ATOM     19  C   UNL     1      -3.537   0.210  -0.216  0.00  0.00    +0.020 A 
ATOM     21  C   UNL     1      -6.279   0.284   0.288  0.00  0.00    -0.042 A 
ATOM     22  C   UNL     1      -4.002   0.422   1.082  0.00  0.00    +0.012 A 
ATOM     23  C   UNL     1      -4.443   0.036  -1.262  0.00  0.00    +0.012 A 
ATOM     24  C   UNL     1      -5.373   0.459   1.334  0.00  0.00    +0.005 A 
ATOM     25  C   UNL     1      -5.815   0.073  -1.010  0.00  0.00    +0.005 A 
BRANCH  21  17
ATOM     17  C   UNL     1      -7.746   0.323   0.558  0.00  0.00    -0.013 C 
ATOM     26  C   UNL     1      -8.173   1.696   1.163  0.00  0.00    +0.015 C 
ATOM     27  C   UNL     1      -8.164  -0.787   1.571  0.00  0.00    +0.015 C 
ATOM     28  C   UNL     1      -8.664   0.114  -0.691  0.00  0.00    +0.015 C 
ENDBRANCH  21  17
ENDBRANCH  16  19
ENDBRANCH  11  13
TORSDOF 8
