REMARK  Name = 11867236
REMARK  6 active torsions:
REMARK  status: ('A' for Active; 'I' for Inactive)
REMARK    1  A    between atoms: S_1  and  N_10
REMARK    2  A    between atoms: S_1  and  C_24
REMARK    3  A    between atoms: N_9  and  C_23
REMARK    4  A    between atoms: N_10  and  C_21
REMARK    5  A    between atoms: C_24  and  C_25
REMARK    6  A    between atoms: C_25  and  C_28
REMARK                            x       y       z     vdW  Elec       q    Type
REMARK                         _______ _______ _______ _____ _____    ______ ____
ROOT
ATOM      3  O   UNL     1      -1.182  -2.599   0.891  0.00  0.00    -0.266 OA
ATOM      4  O   UNL     1       2.104   1.261   2.267  0.00  0.00    -0.252 OA
ATOM      7  N   UNL     1       0.938  -2.250  -0.044  0.00  0.00    -0.310 N 
ATOM      8  N   UNL     1       3.161  -0.086   0.711  0.00  0.00    -0.284 N 
ATOM      9  N   UNL     1       2.218   1.979   0.065  0.00  0.00    -0.269 N 
ATOM     11  C   UNL     1       3.110  -2.521   1.281  0.00  0.00    +0.027 C 
ATOM     12  C   UNL     1       3.199  -1.823  -1.074  0.00  0.00    +0.054 C 
ATOM     13  C   UNL     1       3.734  -2.842  -0.071  0.00  0.00    +0.018 C 
ATOM     14  C   UNL     1       1.591  -2.712   1.187  0.00  0.00    +0.130 C 
ATOM     15  C   UNL     1       3.488  -1.097   1.721  0.00  0.00    +0.114 C 
ATOM     16  C   UNL     1       3.623  -0.401  -0.653  0.00  0.00    +0.119 C 
ATOM     17  C   UNL     1       1.686  -1.896  -1.175  0.00  0.00    +0.027 A 
ATOM     18  C   UNL     1       1.069  -1.589  -2.330  0.00  0.00    +0.024 A 
ATOM     19  C   UNL     1      -0.472  -2.282  -0.063  0.00  0.00    +0.274 A 
ATOM     20  C   UNL     1       2.455   1.074   1.099  0.00  0.00    +0.306 C 
ATOM     21  C   UNL     1      -1.095  -1.910  -1.358  0.00  0.00    +0.112 A 
ATOM     22  C   UNL     1      -0.366  -1.594  -2.429  0.00  0.00    +0.031 A 
ATOM     32  H   UNL     1       2.869   2.000  -0.713  0.00  0.00    +0.156 HD
ENDROOT
BRANCH   9  23
ATOM      2  F   UNL     1      -1.854   5.723  -0.238  0.00  0.00    -0.205 F 
ATOM     23  C   UNL     1       1.176   2.935  -0.013  0.00  0.00    +0.035 A 
ATOM     26  C   UNL     1       0.197   2.974   0.976  0.00  0.00    +0.026 A 
ATOM     27  C   UNL     1       1.139   3.832  -1.077  0.00  0.00    +0.026 A 
ATOM     29  C   UNL     1      -0.829   3.917   0.899  0.00  0.00    +0.040 A 
ATOM     30  C   UNL     1       0.113   4.775  -1.153  0.00  0.00    +0.040 A 
ATOM     31  C   UNL     1      -0.870   4.817  -0.165  0.00  0.00    +0.124 A 
ENDBRANCH   9  23
BRANCH  21  10
ATOM     10  N   UNL     1      -2.494  -1.896  -1.493  0.00  0.00    -0.215 N 
ATOM     33  H   UNL     1      -2.832  -1.944  -2.464  0.00  0.00    +0.173 HD
BRANCH  10   1
ATOM      1  S   UNL     1      -3.313  -0.758  -0.522  0.00  0.00    +0.043 S 
ATOM      5  O   UNL     1      -2.403  -0.217   0.470  0.00  0.00    -0.155 OA
ATOM      6  O   UNL     1      -4.105   0.113  -1.368  0.00  0.00    -0.155 OA
BRANCH   1  24
ATOM     24  C   UNL     1      -4.433  -1.843   0.328  0.00  0.00    +0.188 C 
BRANCH  24  25
ATOM     25  C   UNL     1      -5.319  -1.076   1.295  0.00  0.00    +0.021 C 
ATOM     28  C   UNL     1      -6.265  -2.005   2.038  0.00  0.00    +0.005 C 
ENDBRANCH  24  25
ENDBRANCH   1  24
ENDBRANCH  10   1
ENDBRANCH  21  10
TORSDOF 5
