REMARK  Name = 71693633
REMARK  8 active torsions:
REMARK  status: ('A' for Active; 'I' for Inactive)
REMARK    1  A    between atoms: O_2  and  C_10
REMARK    2  A    between atoms: N_5  and  C_13
REMARK    3  A    between atoms: N_6  and  C_18
REMARK    4  A    between atoms: C_7  and  C_10
REMARK    5  A    between atoms: C_8  and  C_9
REMARK    6  A    between atoms: C_19  and  C_20
REMARK    7  A    between atoms: C_19  and  C_21
REMARK    8  A    between atoms: C_21  and  C_22
REMARK                            x       y       z     vdW  Elec       q    Type
REMARK                         _______ _______ _______ _____ _____    ______ ____
ROOT
ATOM      9  C   UNL     1       2.498  -0.292   0.128  0.00  0.00    -0.017 A 
ATOM     14  C   UNL     1       1.984  -0.532  -1.147  0.00  0.00    +0.008 A 
ATOM     15  C   UNL     1       1.633  -0.047   1.194  0.00  0.00    +0.008 A 
ATOM     16  C   UNL     1       0.604  -0.526  -1.354  0.00  0.00    +0.023 A 
ATOM     17  C   UNL     1       0.254  -0.041   0.986  0.00  0.00    +0.023 A 
ATOM     18  C   UNL     1      -0.261  -0.281  -0.288  0.00  0.00    +0.033 A 
ENDROOT
BRANCH   9   8
ATOM      1  O   UNL     1       4.457  -1.619   0.063  0.00  0.00    -0.361 OA
ATOM      3  O   UNL     1       7.973  -1.067  -0.097  0.00  0.00    -0.273 OA
ATOM      5  N   UNL     1       6.237   0.448  -0.450  0.00  0.00    -0.295 N 
ATOM      7  C   UNL     1       4.775   0.684  -0.541  0.00  0.00    +0.134 C 
ATOM      8  C   UNL     1       3.995  -0.299   0.354  0.00  0.00    +0.171 C 
ATOM     11  C   UNL     1       5.787  -1.790   0.489  0.00  0.00    +0.256 C 
ATOM     12  C   UNL     1       6.773  -0.782  -0.066  0.00  0.00    +0.242 C 
ATOM     13  C   UNL     1       7.132   1.457  -1.010  0.00  0.00    +0.132 C 
BRANCH   7  10
ATOM     10  C   UNL     1       4.392   2.134  -0.211  0.00  0.00    +0.181 C 
BRANCH  10   2
ATOM      2  O   UNL     1       4.697   2.373   1.148  0.00  0.00    -0.393 OA
ATOM     28  H   UNL     1       4.440   3.290   1.344  0.00  0.00    +0.209 HD
ENDBRANCH  10   2
ENDBRANCH   7  10
ENDBRANCH   9   8
BRANCH  18   6
ATOM      4  O   UNL     1      -2.523   0.158   1.643  0.00  0.00    -0.275 OA
ATOM      6  N   UNL     1      -1.640  -0.276  -0.496  0.00  0.00    -0.285 N 
ATOM     20  C   UNL     1      -2.657  -0.052   0.441  0.00  0.00    +0.218 C 
ATOM     29  H   UNL     1      -1.936  -0.454  -1.454  0.00  0.00    +0.155 HD
BRANCH  20  19
ATOM     19  C   UNL     1      -4.045  -0.129  -0.175  0.00  0.00    +0.101 C 
BRANCH  19  21
ATOM     21  C   UNL     1      -5.139   0.119   0.865  0.00  0.00    +0.044 C 
BRANCH  21  22
ATOM     22  C   UNL     1      -6.533   0.088   0.288  0.00  0.00    -0.047 A 
ATOM     23  C   UNL     1      -7.114   1.261  -0.195  0.00  0.00    +0.003 A 
ATOM     24  C   UNL     1      -7.240  -1.113   0.237  0.00  0.00    +0.003 A 
ATOM     25  C   UNL     1      -8.402   1.232  -0.729  0.00  0.00    +0.000 A 
ATOM     26  C   UNL     1      -8.528  -1.141  -0.297  0.00  0.00    +0.000 A 
ATOM     27  C   UNL     1      -9.109   0.031  -0.780  0.00  0.00    +0.000 A 
ENDBRANCH  21  22
ENDBRANCH  19  21
ENDBRANCH  20  19
ENDBRANCH  18   6
TORSDOF 7
