REMARK  Name = 56774551
REMARK  7 active torsions:
REMARK  status: ('A' for Active; 'I' for Inactive)
REMARK    1  A    between atoms: O_2  and  C_15
REMARK    2  A    between atoms: N_5  and  C_18
REMARK    3  A    between atoms: N_6  and  C_21
REMARK    4  A    between atoms: C_7  and  C_14
REMARK    5  A    between atoms: C_13  and  C_15
REMARK    6  A    between atoms: C_15  and  C_17
REMARK    7  A    between atoms: C_18  and  C_26
REMARK                            x       y       z     vdW  Elec       q    Type
REMARK                         _______ _______ _______ _____ _____    ______ ____
ROOT
ATOM     17  C   UNL     1       1.197   0.630  -0.486  0.00  0.00    -0.017 A 
ATOM     21  C   UNL     1      -1.528   0.906   0.043  0.00  0.00    +0.033 A 
ATOM     22  C   UNL     1       0.272  -0.171  -1.155  0.00  0.00    +0.008 A 
ATOM     23  C   UNL     1       0.760   1.569   0.449  0.00  0.00    +0.008 A 
ATOM     24  C   UNL     1      -1.091  -0.032  -0.891  0.00  0.00    +0.023 A 
ATOM     25  C   UNL     1      -0.603   1.707   0.713  0.00  0.00    +0.023 A 
ENDROOT
BRANCH  21   6
ATOM      3  O   UNL     1      -3.900  -0.552  -1.102  0.00  0.00    -0.275 OA
ATOM      6  N   UNL     1      -2.891   1.045   0.308  0.00  0.00    -0.285 N 
ATOM     14  C   UNL     1      -3.959   0.337  -0.259  0.00  0.00    +0.220 C 
ATOM     27  H   UNL     1      -3.122   1.748   1.007  0.00  0.00    +0.155 HD
BRANCH  14   7
ATOM      7  C   UNL     1      -5.280   0.785   0.295  0.00  0.00    +0.075 C 
ATOM      8  C   UNL     1      -5.601   0.017   1.579  0.00  0.00    +0.013 C 
ATOM      9  C   UNL     1      -6.385   0.668  -0.757  0.00  0.00    +0.013 C 
ATOM     10  C   UNL     1      -6.067  -1.415   1.319  0.00  0.00    +0.001 C 
ATOM     11  C   UNL     1      -6.860  -0.767  -0.983  0.00  0.00    +0.001 C 
ATOM     12  C   UNL     1      -7.223  -1.458   0.326  0.00  0.00    +0.000 C 
ENDBRANCH  14   7
ENDBRANCH  21   6
BRANCH  17  15
ATOM     15  C   UNL     1       2.670   0.481  -0.772  0.00  0.00    +0.167 C 
BRANCH  15  13
ATOM      1  O   UNL     1       3.229  -2.239   0.176  0.00  0.00    -0.369 OA
ATOM      4  O   UNL     1       6.624  -1.309  -0.630  0.00  0.00    -0.273 OA
ATOM      5  N   UNL     1       4.894   0.017   0.187  0.00  0.00    -0.292 N 
ATOM     13  C   UNL     1       3.461   0.119   0.488  0.00  0.00    +0.135 C 
ATOM     16  C   UNL     1       2.961  -1.186   1.094  0.00  0.00    +0.185 C 
ATOM     19  C   UNL     1       5.475  -1.189  -0.201  0.00  0.00    +0.242 C 
ATOM     20  C   UNL     1       4.617  -2.430   0.018  0.00  0.00    +0.255 C 
BRANCH   5  18
ATOM     18  C   UNL     1       5.660   1.254   0.127  0.00  0.00    +0.105 C 
ATOM     26  C   UNL     1       6.395   1.515   1.426  0.00  0.00    +0.024 C 
ENDBRANCH   5  18
ENDBRANCH  15  13
BRANCH  15   2
ATOM      2  O   UNL     1       3.174   1.698  -1.312  0.00  0.00    -0.385 OA
ATOM     28  H   UNL     1       2.895   2.439  -0.749  0.00  0.00    +0.210 HD
ENDBRANCH  15   2
ENDBRANCH  17  15
TORSDOF 6
