REMARK  Name = 28990637
REMARK  3 active torsions:
REMARK  status: ('A' for Active; 'I' for Inactive)
REMARK    1  A    between atoms: N_3  and  C_13
REMARK    2  A    between atoms: C_13  and  C_18
REMARK    3  A    between atoms: C_16  and  C_19
REMARK                            x       y       z     vdW  Elec       q    Type
REMARK                         _______ _______ _______ _____ _____    ______ ____
ROOT
ATOM      2  O   UNL     1      -1.859   1.203  -1.762  0.00  0.00    -0.267 OA
ATOM      3  N   UNL     1       2.921   0.559  -0.388  0.00  0.00    -0.297 NA
ATOM      4  N   UNL     1      -0.097   1.585  -0.283  0.00  0.00    -0.311 N 
ATOM      6  C   UNL     1       2.035   2.833  -0.963  0.00  0.00    +0.024 C 
ATOM      7  C   UNL     1       1.798   1.991   1.324  0.00  0.00    +0.050 C 
ATOM      8  C   UNL     1       2.085   3.245   0.502  0.00  0.00    +0.017 C 
ATOM      9  C   UNL     1       3.090   1.742  -1.242  0.00  0.00    +0.090 C 
ATOM     10  C   UNL     1       2.881   0.926   1.035  0.00  0.00    +0.094 C 
ATOM     11  C   UNL     1       0.610   2.375  -1.300  0.00  0.00    +0.130 C 
ATOM     12  C   UNL     1       0.418   1.444   1.008  0.00  0.00    +0.026 A 
ATOM     14  C   UNL     1      -0.296   0.813   1.954  0.00  0.00    +0.022 A 
ATOM     15  C   UNL     1      -1.357   1.069  -0.644  0.00  0.00    +0.259 A 
ATOM     16  C   UNL     1      -2.120   0.337   0.428  0.00  0.00    +0.048 A 
ATOM     17  C   UNL     1      -1.581   0.248   1.653  0.00  0.00    +0.015 A 
ENDROOT
BRANCH  16  19
ATOM      5  N   UNL     1      -5.791  -0.424   0.637  0.00  0.00    -0.263 NA
ATOM     19  C   UNL     1      -3.428  -0.281   0.148  0.00  0.00    +0.005 A 
ATOM     22  C   UNL     1      -3.562  -1.267  -0.824  0.00  0.00    +0.011 A 
ATOM     24  C   UNL     1      -4.563   0.102   0.844  0.00  0.00    +0.119 A 
ATOM     25  C   UNL     1      -4.809  -1.832  -1.065  0.00  0.00    +0.020 A 
ATOM     26  C   UNL     1      -5.883  -1.380  -0.315  0.00  0.00    +0.111 A 
ENDBRANCH  16  19
BRANCH   3  13
ATOM     13  C   UNL     1       3.969  -0.426  -0.645  0.00  0.00    +0.126 C 
BRANCH  13  18
ATOM      1  S   UNL     1       2.165  -2.502  -1.036  0.00  0.00    -0.100 S 
ATOM     18  C   UNL     1       3.536  -1.815  -0.274  0.00  0.00    +0.004 A 
ATOM     20  C   UNL     1       4.105  -2.675   0.639  0.00  0.00    +0.012 A 
ATOM     21  C   UNL     1       3.406  -3.914   0.715  0.00  0.00    +0.008 A 
ATOM     23  C   UNL     1       2.329  -3.954  -0.144  0.00  0.00    +0.045 A 
ENDBRANCH  13  18
ENDBRANCH   3  13
TORSDOF 3
