REMARK  Name = 75367091
REMARK  8 active torsions:
REMARK  status: ('A' for Active; 'I' for Inactive)
REMARK    1  A    between atoms: O_3  and  C_8
REMARK    2  A    between atoms: N_5  and  C_7
REMARK    3  A    between atoms: N_5  and  C_12
REMARK    4  A    between atoms: N_6  and  C_11
REMARK    5  A    between atoms: C_9  and  C_11
REMARK    6  A    between atoms: C_12  and  C_13
REMARK    7  A    between atoms: C_14  and  C_17
REMARK    8  A    between atoms: C_20  and  C_23
REMARK                            x       y       z     vdW  Elec       q    Type
REMARK                         _______ _______ _______ _____ _____    ______ ____
ROOT
ATOM      2  O   UNL     1       3.723   1.187   1.065  0.00  0.00    -0.371 OA
ATOM      7  C   UNL     1       2.989  -1.061   0.965  0.00  0.00    +0.111 C 
ATOM      8  C   UNL     1       3.730  -0.755  -0.324  0.00  0.00    +0.164 C 
ATOM      9  C   UNL     1       3.976   0.753  -0.284  0.00  0.00    +0.165 C 
ATOM     10  C   UNL     1       3.499   0.035   1.886  0.00  0.00    +0.181 C 
ENDROOT
BRANCH   8   3
ATOM      3  O   UNL     1       4.987  -1.434  -0.276  0.00  0.00    -0.388 OA
ATOM     28  H   UNL     1       5.469  -1.211  -1.091  0.00  0.00    +0.210 HD
ENDBRANCH   8   3
BRANCH   7   5
ATOM      5  N   UNL     1       1.542  -0.960   0.792  0.00  0.00    -0.305 NA
ATOM     27  H   UNL     1       1.112  -0.733   1.689  0.00  0.00    +0.123 HD
BRANCH   5  12
ATOM     12  C   UNL     1       0.981  -2.219   0.317  0.00  0.00    +0.116 C 
BRANCH  12  13
ATOM     13  C   UNL     1      -0.509  -2.130   0.117  0.00  0.00    -0.034 A 
ATOM     15  C   UNL     1      -1.363  -2.159   1.219  0.00  0.00    +0.005 A 
ATOM     16  C   UNL     1      -1.034  -2.020  -1.171  0.00  0.00    +0.005 A 
ATOM     18  C   UNL     1      -2.743  -2.079   1.034  0.00  0.00    +0.003 A 
ATOM     19  C   UNL     1      -2.414  -1.940  -1.356  0.00  0.00    +0.003 A 
ATOM     20  C   UNL     1      -3.269  -1.969  -0.254  0.00  0.00    -0.050 A 
ATOM     23  C   UNL     1      -4.745  -1.884  -0.451  0.00  0.00    +0.044 C 
ENDBRANCH  12  13
ENDBRANCH   5  12
ENDBRANCH   7   5
BRANCH   9  11
ATOM     11  C   UNL     1       3.071   1.542  -1.218  0.00  0.00    +0.138 C 
BRANCH  11   6
ATOM      4  O   UNL     1       0.571   0.648  -2.312  0.00  0.00    -0.270 OA
ATOM      6  N   UNL     1       1.769   1.731  -0.646  0.00  0.00    -0.309 N 
ATOM     14  C   UNL     1       0.606   1.261  -1.248  0.00  0.00    +0.244 C 
ATOM     29  H   UNL     1       1.719   2.302   0.191  0.00  0.00    +0.149 HD
BRANCH  14  17
ATOM      1  F   UNL     1      -4.202   2.394   1.421  0.00  0.00    -0.205 F 
ATOM     17  C   UNL     1      -0.666   1.562  -0.542  0.00  0.00    +0.037 A 
ATOM     21  C   UNL     1      -1.857   1.659  -1.262  0.00  0.00    +0.016 A 
ATOM     22  C   UNL     1      -0.670   1.745   0.841  0.00  0.00    +0.016 A 
ATOM     24  C   UNL     1      -3.052   1.941  -0.599  0.00  0.00    +0.039 A 
ATOM     25  C   UNL     1      -1.865   2.027   1.504  0.00  0.00    +0.039 A 
ATOM     26  C   UNL     1      -3.055   2.125   0.784  0.00  0.00    +0.123 A 
ENDBRANCH  14  17
ENDBRANCH  11   6
ENDBRANCH   9  11
TORSDOF 7
