REMARK  Name = 75536361
REMARK  7 active torsions:
REMARK  status: ('A' for Active; 'I' for Inactive)
REMARK    1  A    between atoms: O_2  and  C_9
REMARK    2  A    between atoms: N_4  and  C_11
REMARK    3  A    between atoms: N_4  and  C_14
REMARK    4  A    between atoms: C_8  and  C_14
REMARK    5  A    between atoms: C_10  and  C_17
REMARK    6  A    between atoms: C_17  and  C_20
REMARK    7  A    between atoms: C_22  and  C_23
REMARK                            x       y       z     vdW  Elec       q    Type
REMARK                         _______ _______ _______ _____ _____    ______ ____
ROOT
ATOM      1  O   UNL     1       2.433  -1.139   0.808  0.00  0.00    -0.369 OA
ATOM      8  C   UNL     1       3.315  -0.040   1.072  0.00  0.00    +0.161 C 
ATOM      9  C   UNL     1       4.760  -0.377   0.684  0.00  0.00    +0.145 C 
ATOM     10  C   UNL     1       2.449  -1.621  -0.538  0.00  0.00    +0.125 C 
ATOM     12  C   UNL     1       4.864  -0.955  -0.726  0.00  0.00    +0.036 C 
ATOM     13  C   UNL     1       3.853  -2.080  -0.929  0.00  0.00    +0.034 C 
ENDROOT
BRANCH   9   2
ATOM      2  O   UNL     1       5.266  -1.357   1.595  0.00  0.00    -0.389 OA
ATOM     30  H   UNL     1       6.195  -1.523   1.362  0.00  0.00    +0.210 HD
ENDBRANCH   9   2
BRANCH   8  14
ATOM     14  C   UNL     1       2.806   1.244   0.419  0.00  0.00    +0.115 C 
BRANCH  14   4
ATOM      4  N   UNL     1       1.443   1.533   0.837  0.00  0.00    -0.311 NA
ATOM     28  H   UNL     1       0.913   0.661   0.852  0.00  0.00    +0.122 HD
BRANCH   4  11
ATOM      5  N   UNL     1      -0.930   4.787  -0.534  0.00  0.00    -0.316 NA
ATOM     11  C   UNL     1       0.798   2.462  -0.087  0.00  0.00    +0.056 C 
ATOM     15  C   UNL     1      -0.726   2.388   0.063  0.00  0.00    +0.034 C 
ATOM     16  C   UNL     1       1.282   3.897   0.150  0.00  0.00    +0.034 C 
ATOM     18  C   UNL     1      -1.411   3.433  -0.819  0.00  0.00    +0.082 C 
ATOM     19  C   UNL     1       0.518   4.883  -0.735  0.00  0.00    +0.082 C 
ATOM     29  H   UNL     1      -1.400   5.448  -1.152  0.00  0.00    +0.122 HD
ENDBRANCH   4  11
ENDBRANCH  14   4
ENDBRANCH   8  14
BRANCH  10  17
ATOM     17  C   UNL     1       1.458  -2.775  -0.624  0.00  0.00    +0.090 C 
BRANCH  17  20
ATOM      3  O   UNL     1      -1.812  -1.612  -1.597  0.00  0.00    -0.353 OA
ATOM      6  N   UNL     1      -0.523  -2.042  -1.888  0.00  0.00    -0.083 NA
ATOM     20  C   UNL     1       0.037  -2.284  -0.699  0.00  0.00    +0.087 A 
ATOM     21  C   UNL     1      -0.843  -2.028   0.367  0.00  0.00    +0.077 A 
ATOM     22  C   UNL     1      -1.991  -1.608  -0.251  0.00  0.00    +0.186 A 
BRANCH  22  23
ATOM      7  N   UNL     1      -4.145  -0.848  -0.781  0.00  0.00    -0.252 NA
ATOM     23  C   UNL     1      -3.283  -1.186   0.204  0.00  0.00    +0.109 A 
ATOM     24  C   UNL     1      -3.592  -1.141   1.554  0.00  0.00    +0.031 A 
ATOM     25  C   UNL     1      -4.868  -0.722   1.916  0.00  0.00    +0.004 A 
ATOM     26  C   UNL     1      -5.375  -0.446  -0.392  0.00  0.00    +0.111 A 
ATOM     27  C   UNL     1      -5.782  -0.366   0.930  0.00  0.00    +0.020 A 
ENDBRANCH  22  23
ENDBRANCH  17  20
ENDBRANCH  10  17
TORSDOF 7
