REMARK  Name = 26763150
REMARK  15 active torsions:
REMARK  status: ('A' for Active; 'I' for Inactive)
REMARK    1  A    between atoms: O_4  and  C_30
REMARK    2  A    between atoms: O_4  and  C_33
REMARK    3  A    between atoms: N_7  and  C_10
REMARK    4  A    between atoms: N_8  and  C_14
REMARK    5  A    between atoms: N_9  and  C_25
REMARK    6  A    between atoms: C_11  and  C_15
REMARK    7  A    between atoms: C_16  and  C_19
REMARK    8  A    between atoms: C_19  and  C_20
REMARK    9  A    between atoms: C_20  and  C_26
REMARK   10  A    between atoms: C_20  and  C_27
REMARK   11  A    between atoms: C_20  and  C_28
REMARK   12  A    between atoms: C_25  and  C_29
REMARK   13  A    between atoms: C_25  and  C_30
REMARK   14  A    between atoms: C_29  and  C_31
REMARK   15  A    between atoms: C_29  and  C_32
REMARK                            x       y       z     vdW  Elec       q    Type
REMARK                         _______ _______ _______ _____ _____    ______ ____
ROOT
ATOM      2  O   UNL     1       1.718   1.693   1.542  0.00  0.00    -0.276 OA
ATOM      6  N   UNL     1       0.738   1.750  -0.554  0.00  0.00    -0.288 N 
ATOM     10  C   UNL     1      -0.705   0.275  -1.722  0.00  0.00    +0.105 C 
ATOM     11  C   UNL     1       0.291   0.361  -0.566  0.00  0.00    +0.182 C 
ATOM     12  C   UNL     1      -0.236   1.375  -2.679  0.00  0.00    +0.043 C 
ATOM     13  C   UNL     1       0.297   2.459  -1.752  0.00  0.00    +0.110 C 
ATOM     16  C   UNL     1       1.358   2.322   0.546  0.00  0.00    +0.217 C 
ENDROOT
BRANCH  10   7
ATOM      3  O   UNL     1      -2.625  -1.703  -0.905  0.00  0.00    -0.253 OA
ATOM      7  N   UNL     1      -2.053   0.517  -1.264  0.00  0.00    -0.294 N 
ATOM      8  N   UNL     1      -4.152  -0.005  -0.486  0.00  0.00    -0.297 N 
ATOM     24  C   UNL     1      -2.917  -0.508  -0.886  0.00  0.00    +0.300 C 
ATOM     34  H   UNL     1      -2.365   1.476  -1.151  0.00  0.00    +0.151 HD
ATOM     35  H   UNL     1      -4.262   1.003  -0.440  0.00  0.00    +0.151 HD
BRANCH   8  14
ATOM     14  C   UNL     1      -5.242  -0.845  -0.041  0.00  0.00    +0.074 C 
ATOM     17  C   UNL     1      -5.152  -1.113   1.465  0.00  0.00    +0.022 C 
ATOM     18  C   UNL     1      -6.596  -0.234  -0.416  0.00  0.00    +0.022 C 
ATOM     21  C   UNL     1      -5.492   0.121   2.300  0.00  0.00    +0.002 C 
ATOM     22  C   UNL     1      -6.934   0.999   0.423  0.00  0.00    +0.002 C 
ATOM     23  C   UNL     1      -6.848   0.704   1.917  0.00  0.00    +0.000 C 
ENDBRANCH   8  14
ENDBRANCH  10   7
BRANCH  11  15
ATOM      1  O   UNL     1       2.446  -0.064  -1.502  0.00  0.00    -0.274 OA
ATOM      9  N   UNL     1       1.416  -1.729  -0.241  0.00  0.00    -0.301 N 
ATOM     15  C   UNL     1       1.507  -0.477  -0.825  0.00  0.00    +0.236 C 
ATOM     36  H   UNL     1       0.613  -1.935   0.344  0.00  0.00    +0.150 HD
BRANCH   9  25
ATOM     25  C   UNL     1       2.447  -2.734  -0.361  0.00  0.00    +0.184 C 
BRANCH  25  29
ATOM     29  C   UNL     1       1.880  -4.170  -0.324  0.00  0.00    +0.014 C 
ATOM     31  C   UNL     1       1.336  -4.516   1.065  0.00  0.00    +0.009 C 
ATOM     32  C   UNL     1       0.802  -4.422  -1.384  0.00  0.00    +0.009 C 
ENDBRANCH  25  29
BRANCH  25  30
ATOM      5  O   UNL     1       3.470  -1.701   1.572  0.00  0.00    -0.249 OA
ATOM     30  C   UNL     1       3.541  -2.544   0.683  0.00  0.00    +0.328 C 
BRANCH  30   4
ATOM      4  O   UNL     1       4.580  -3.408   0.506  0.00  0.00    -0.467 OA
ATOM     33  C   UNL     1       5.653  -3.293   1.446  0.00  0.00    +0.280 C 
ENDBRANCH  30   4
ENDBRANCH  25  30
ENDBRANCH   9  25
ENDBRANCH  11  15
BRANCH  16  19
ATOM     19  C   UNL     1       1.591   3.810   0.460  0.00  0.00    +0.102 C 
BRANCH  19  20
ATOM     20  C   UNL     1       3.083   4.185   0.501  0.00  0.00    -0.029 C 
ATOM     26  C   UNL     1       3.742   3.701   1.804  0.00  0.00    +0.011 C 
ATOM     27  C   UNL     1       3.278   5.704   0.364  0.00  0.00    +0.011 C 
ATOM     28  C   UNL     1       3.777   3.491  -0.686  0.00  0.00    +0.011 C 
ENDBRANCH  19  20
ENDBRANCH  16  19
TORSDOF 9
