REMARK  Name = 45783583
REMARK  6 active torsions:
REMARK  status: ('A' for Active; 'I' for Inactive)
REMARK    1  A    between atoms: O_1  and  C_13
REMARK    2  A    between atoms: O_1  and  C_26
REMARK    3  A    between atoms: N_3  and  C_12
REMARK    4  A    between atoms: C_8  and  C_14
REMARK    5  A    between atoms: C_12  and  C_20
REMARK    6  A    between atoms: C_24  and  C_27
REMARK                            x       y       z     vdW  Elec       q    Type
REMARK                         _______ _______ _______ _____ _____    ______ ____
ROOT
ATOM      2  O   UNL     1       3.054  -2.464  -0.898  0.00  0.00    -0.336 OA
ATOM      4  N   UNL     1       1.795  -1.081   0.335  0.00  0.00    -0.190 NA
ATOM      6  N   UNL     1       1.725  -2.726  -1.254  0.00  0.00    -0.056 NA
ATOM     14  C   UNL     1       3.006  -1.484   0.042  0.00  0.00    +0.245 A 
ATOM     24  C   UNL     1       1.043  -1.871  -0.485  0.00  0.00    +0.204 A 
ENDROOT
BRANCH  24  27
ATOM      7  N   UNL     1      -2.409  -0.756   0.325  0.00  0.00    -0.221 NA
ATOM     26  C   UNL     1      -3.107  -1.563  -0.506  0.00  0.00    +0.215 A 
ATOM     27  C   UNL     1      -0.387  -1.784  -0.511  0.00  0.00    +0.041 A 
ATOM     30  C   UNL     1      -2.525  -2.490  -1.356  0.00  0.00    +0.068 A 
ATOM     31  C   UNL     1      -1.139  -2.596  -1.353  0.00  0.00    +0.018 A 
ATOM     33  C   UNL     1      -1.064  -0.888   0.301  0.00  0.00    +0.126 A 
BRANCH  26   1
ATOM      1  O   UNL     1      -4.471  -1.439  -0.491  0.00  0.00    -0.473 OA
BRANCH   1  13
ATOM     13  C   UNL     1      -5.016  -0.472   0.401  0.00  0.00    +0.175 C 
ATOM     15  C   UNL     1      -5.097   0.883  -0.301  0.00  0.00    +0.044 C 
ATOM     16  C   UNL     1      -6.387  -0.938   0.886  0.00  0.00    +0.044 C 
ATOM     17  C   UNL     1      -5.766   1.933   0.582  0.00  0.00    +0.004 C 
ATOM     18  C   UNL     1      -7.056   0.111   1.769  0.00  0.00    +0.004 C 
ATOM     19  C   UNL     1      -7.135   1.466   1.069  0.00  0.00    +0.000 C 
ENDBRANCH   1  13
ENDBRANCH  26   1
ENDBRANCH  24  27
BRANCH  14   8
ATOM      3  N   UNL     1       4.290   0.384   1.069  0.00  0.00    -0.287 NA
ATOM      8  C   UNL     1       4.334  -1.015   0.597  0.00  0.00    +0.146 C 
ATOM      9  C   UNL     1       4.787  -1.827   1.824  0.00  0.00    +0.030 C 
ATOM     10  C   UNL     1       5.273   0.487   2.148  0.00  0.00    +0.085 C 
ATOM     11  C   UNL     1       5.031  -0.796   2.917  0.00  0.00    +0.017 C 
BRANCH   3  12
ATOM     12  C   UNL     1       4.534   1.355   0.010  0.00  0.00    +0.122 C 
BRANCH  12  20
ATOM      5  N   UNL     1       1.940   1.714  -2.574  0.00  0.00    -0.360 N 
ATOM     20  C   UNL     1       3.307   1.589  -0.830  0.00  0.00    -0.008 A 
ATOM     21  C   UNL     1       2.042   2.052  -0.371  0.00  0.00    +0.004 A 
ATOM     22  C   UNL     1       3.213   1.390  -2.188  0.00  0.00    +0.088 A 
ATOM     23  C   UNL     1       1.202   2.121  -1.486  0.00  0.00    +0.047 A 
ATOM     25  C   UNL     1       1.528   2.419   0.888  0.00  0.00    +0.010 A 
ATOM     28  C   UNL     1      -0.130   2.542  -1.403  0.00  0.00    +0.026 A 
ATOM     29  C   UNL     1       0.198   2.842   0.986  0.00  0.00    +0.001 A 
ATOM     32  C   UNL     1      -0.617   2.901  -0.143  0.00  0.00    +0.002 A 
ATOM     34  H   UNL     1       1.591   1.660  -3.521  0.00  0.00    +0.165 HD
ENDBRANCH  12  20
ENDBRANCH   3  12
ENDBRANCH  14   8
TORSDOF 6
