REMARK  Name = 26742464
REMARK  8 active torsions:
REMARK  status: ('A' for Active; 'I' for Inactive)
REMARK    1  A    between atoms: N_5  and  C_16
REMARK    2  A    between atoms: N_8  and  C_25
REMARK    3  A    between atoms: C_10  and  C_17
REMARK    4  A    between atoms: C_11  and  C_16
REMARK    5  A    between atoms: C_19  and  C_22
REMARK    6  A    between atoms: C_20  and  C_23
REMARK    7  A    between atoms: C_32  and  C_33
REMARK    8  A    between atoms: C_33  and  C_34
REMARK                            x       y       z     vdW  Elec       q    Type
REMARK                         _______ _______ _______ _____ _____    ______ ____
ROOT
ATOM      4  N   UNL     1       1.052  -2.771   0.806  0.00  0.00    -0.297 NA
ATOM      9  C   UNL     1       1.736  -2.105  -1.617  0.00  0.00    +0.002 C 
ATOM     10  C   UNL     1       2.924  -1.892  -0.639  0.00  0.00    +0.055 C 
ATOM     11  C   UNL     1       0.034  -1.858   0.223  0.00  0.00    +0.074 C 
ATOM     12  C   UNL     1       0.520  -1.290  -1.127  0.00  0.00    +0.024 C 
ATOM     13  C   UNL     1       1.348  -3.596  -1.529  0.00  0.00    +0.019 C 
ATOM     14  C   UNL     1       2.384  -2.115   0.802  0.00  0.00    +0.094 C 
ATOM     15  C   UNL     1       1.128  -3.976  -0.054  0.00  0.00    +0.085 C 
ENDROOT
BRANCH  10  17
ATOM      6  N   UNL     1       3.347   0.265  -1.712  0.00  0.00    -0.237 NA
ATOM      7  N   UNL     1       5.151   1.709  -1.025  0.00  0.00    -0.229 NA
ATOM     17  C   UNL     1       3.735  -0.610  -0.760  0.00  0.00    +0.050 A 
ATOM     18  C   UNL     1       4.805  -0.399   0.085  0.00  0.00    +0.055 A 
ATOM     19  C   UNL     1       5.483   0.790  -0.095  0.00  0.00    +0.110 A 
ATOM     20  C   UNL     1       4.088   1.387  -1.788  0.00  0.00    +0.127 A 
ATOM     23  C   UNL     1       3.690   2.380  -2.827  0.00  0.00    +0.088 C 
BRANCH  19  22
ATOM      2  O   UNL     1       7.193   2.335   0.435  0.00  0.00    -0.461 OA
ATOM     22  C   UNL     1       6.619   1.136   0.718  0.00  0.00    +0.153 A 
ATOM     24  C   UNL     1       7.282   0.514   1.750  0.00  0.00    +0.051 A 
ATOM     26  C   UNL     1       8.331   1.387   2.125  0.00  0.00    +0.042 A 
ATOM     27  C   UNL     1       8.234   2.481   1.296  0.00  0.00    +0.196 A 
ENDBRANCH  19  22
ENDBRANCH  10  17
BRANCH  11  16
ATOM     16  C   UNL     1      -0.379  -0.749   1.193  0.00  0.00    +0.124 C 
BRANCH  16   5
ATOM      1  O   UNL     1      -3.188  -1.216   1.497  0.00  0.00    -0.253 OA
ATOM      5  N   UNL     1      -1.440   0.039   0.647  0.00  0.00    -0.298 N 
ATOM      8  N   UNL     1      -3.607   0.688   0.189  0.00  0.00    -0.269 N 
ATOM     21  C   UNL     1      -2.803  -0.253   0.839  0.00  0.00    +0.304 C 
ATOM     35  H   UNL     1      -1.197   0.850   0.086  0.00  0.00    +0.150 HD
ATOM     36  H   UNL     1      -3.126   1.428  -0.316  0.00  0.00    +0.156 HD
BRANCH   8  25
ATOM     25  C   UNL     1      -5.020   0.739   0.145  0.00  0.00    +0.035 A 
ATOM     28  C   UNL     1      -5.659   1.760  -0.560  0.00  0.00    +0.024 A 
ATOM     29  C   UNL     1      -5.774  -0.231   0.805  0.00  0.00    +0.024 A 
ATOM     30  C   UNL     1      -7.052   1.810  -0.604  0.00  0.00    +0.013 A 
ATOM     31  C   UNL     1      -7.167  -0.181   0.761  0.00  0.00    +0.013 A 
ATOM     32  C   UNL     1      -7.806   0.840   0.056  0.00  0.00    +0.017 A 
BRANCH  32  33
ATOM      3  O   UNL     1      -9.950  -0.144   0.071  0.00  0.00    -0.292 OA
ATOM     33  C   UNL     1      -9.259   0.892   0.010  0.00  0.00    +0.160 C 
ATOM     34  C   UNL     1      -9.976   2.232  -0.115  0.00  0.00    +0.091 C 
ENDBRANCH  32  33
ENDBRANCH   8  25
ENDBRANCH  16   5
ENDBRANCH  11  16
TORSDOF 6
