REMARK  Name = 40776919
REMARK  6 active torsions:
REMARK  status: ('A' for Active; 'I' for Inactive)
REMARK    1  A    between atoms: N_5  and  C_15
REMARK    2  A    between atoms: C_9  and  C_16
REMARK    3  A    between atoms: C_10  and  C_15
REMARK    4  A    between atoms: C_18  and  C_21
REMARK    5  A    between atoms: C_19  and  C_22
REMARK    6  A    between atoms: C_20  and  C_23
REMARK                            x       y       z     vdW  Elec       q    Type
REMARK                         _______ _______ _______ _____ _____    ______ ____
ROOT
ATOM      4  N   UNL     1      -1.366  -2.603   1.048  0.00  0.00    -0.297 NA
ATOM      8  C   UNL     1      -0.868  -2.209  -1.477  0.00  0.00    +0.002 C 
ATOM      9  C   UNL     1       0.432  -2.070  -0.638  0.00  0.00    +0.055 C 
ATOM     10  C   UNL     1      -2.330  -1.620   0.488  0.00  0.00    +0.074 C 
ATOM     11  C   UNL     1      -1.926  -1.218  -0.947  0.00  0.00    +0.024 C 
ATOM     12  C   UNL     1      -1.411  -3.631  -1.223  0.00  0.00    +0.019 C 
ATOM     13  C   UNL     1       0.024  -2.116   0.862  0.00  0.00    +0.094 C 
ATOM     14  C   UNL     1      -1.518  -3.870   0.293  0.00  0.00    +0.085 C 
ENDROOT
BRANCH   9  16
ATOM      6  N   UNL     1       0.982  -0.067  -1.930  0.00  0.00    -0.237 NA
ATOM      7  N   UNL     1       2.999   1.195  -1.547  0.00  0.00    -0.232 NA
ATOM     16  C   UNL     1       1.365  -0.907  -0.947  0.00  0.00    +0.050 A 
ATOM     17  C   UNL     1       2.535  -0.765  -0.228  0.00  0.00    +0.052 A 
ATOM     18  C   UNL     1       3.321   0.316  -0.575  0.00  0.00    +0.075 A 
ATOM     19  C   UNL     1       1.834   0.948  -2.174  0.00  0.00    +0.127 A 
ATOM     22  C   UNL     1       1.446   1.897  -3.256  0.00  0.00    +0.088 C 
BRANCH  18  21
ATOM      1  F   UNL     1       8.145   1.319   2.027  0.00  0.00    -0.205 F 
ATOM     21  C   UNL     1       4.570   0.576   0.100  0.00  0.00    +0.001 A 
ATOM     24  C   UNL     1       4.586   0.806   1.475  0.00  0.00    +0.013 A 
ATOM     25  C   UNL     1       5.762   0.596  -0.625  0.00  0.00    +0.013 A 
ATOM     27  C   UNL     1       5.794   1.057   2.126  0.00  0.00    +0.039 A 
ATOM     28  C   UNL     1       6.970   0.848   0.026  0.00  0.00    +0.039 A 
ATOM     31  C   UNL     1       6.985   1.078   1.402  0.00  0.00    +0.123 A 
ENDBRANCH  18  21
ENDBRANCH   9  16
BRANCH  10  15
ATOM     15  C   UNL     1      -2.510  -0.400   1.393  0.00  0.00    +0.123 C 
BRANCH  15   5
ATOM      2  O   UNL     1      -5.314  -0.500   2.005  0.00  0.00    -0.267 OA
ATOM      5  N   UNL     1      -3.527   0.468   0.884  0.00  0.00    -0.307 N 
ATOM     20  C   UNL     1      -4.871   0.348   1.235  0.00  0.00    +0.279 C 
ATOM     32  H   UNL     1      -3.254   1.196   0.230  0.00  0.00    +0.149 HD
BRANCH  20  23
ATOM      3  O   UNL     1      -5.290   2.221  -0.268  0.00  0.00    -0.458 OA
ATOM     23  C   UNL     1      -5.807   1.310   0.598  0.00  0.00    +0.189 A 
ATOM     26  C   UNL     1      -7.168   1.472   0.715  0.00  0.00    +0.054 A 
ATOM     29  C   UNL     1      -7.510   2.552  -0.133  0.00  0.00    +0.042 A 
ATOM     30  C   UNL     1      -6.333   2.973  -0.708  0.00  0.00    +0.196 A 
ENDBRANCH  20  23
ENDBRANCH  15   5
ENDBRANCH  10  15
TORSDOF 5
