REMARK  Name = 75536993
REMARK  4 active torsions:
REMARK  status: ('A' for Active; 'I' for Inactive)
REMARK    1  A    between atoms: S_1  and  N_7
REMARK    2  A    between atoms: S_1  and  C_16
REMARK    3  A    between atoms: N_8  and  C_15
REMARK    4  A    between atoms: C_15  and  C_17
REMARK                            x       y       z     vdW  Elec       q    Type
REMARK                         _______ _______ _______ _____ _____    ______ ____
ROOT
ATOM      3  O   UNL     1       1.804  -2.421  -2.010  0.00  0.00    -0.252 OA
ATOM      6  N   UNL     1      -0.041  -2.213  -0.570  0.00  0.00    -0.278 N 
ATOM      7  N   UNL     1      -2.562  -1.387   0.311  0.00  0.00    -0.173 NA
ATOM      8  N   UNL     1       2.018  -1.969   0.294  0.00  0.00    -0.279 N 
ATOM      9  C   UNL     1      -0.261  -2.067   0.856  0.00  0.00    +0.111 C 
ATOM     10  C   UNL     1      -1.349  -1.034   1.123  0.00  0.00    +0.133 C 
ATOM     11  C   UNL     1       1.117  -1.694   1.400  0.00  0.00    +0.133 C 
ATOM     12  C   UNL     1      -1.171  -2.428  -1.452  0.00  0.00    +0.127 C 
ATOM     13  C   UNL     1      -2.263  -1.403  -1.160  0.00  0.00    +0.128 C 
ATOM     14  C   UNL     1       1.321  -2.229  -0.902  0.00  0.00    +0.305 C 
ENDROOT
BRANCH   7   1
ATOM      1  S   UNL     1      -4.000  -0.566   0.754  0.00  0.00    +0.061 S 
ATOM      4  O   UNL     1      -4.072  -0.487   2.197  0.00  0.00    -0.153 OA
ATOM      5  O   UNL     1      -5.100  -1.098  -0.020  0.00  0.00    -0.153 OA
BRANCH   1  16
ATOM     16  C   UNL     1      -3.634   1.048   0.141  0.00  0.00    +0.105 A 
ATOM     18  C   UNL     1      -3.983   1.394  -1.164  0.00  0.00    +0.028 A 
ATOM     19  C   UNL     1      -2.995   1.978   0.962  0.00  0.00    +0.028 A 
ATOM     22  C   UNL     1      -3.693   2.670  -1.649  0.00  0.00    +0.002 A 
ATOM     23  C   UNL     1      -2.706   3.254   0.478  0.00  0.00    +0.002 A 
ATOM     26  C   UNL     1      -3.055   3.600  -0.828  0.00  0.00    +0.000 A 
ENDBRANCH   1  16
ENDBRANCH   7   1
BRANCH   8  15
ATOM     15  C   UNL     1       3.453  -1.845   0.427  0.00  0.00    +0.144 C 
BRANCH  15  17
ATOM      2  F   UNL     1       5.165   3.492  -0.106  0.00  0.00    -0.205 F 
ATOM     17  C   UNL     1       3.910  -0.422   0.285  0.00  0.00    -0.030 A 
ATOM     20  C   UNL     1       4.246   0.081  -0.972  0.00  0.00    +0.008 A 
ATOM     21  C   UNL     1       3.998   0.399   1.410  0.00  0.00    +0.008 A 
ATOM     24  C   UNL     1       4.670   1.402  -1.105  0.00  0.00    +0.038 A 
ATOM     25  C   UNL     1       4.423   1.721   1.278  0.00  0.00    +0.038 A 
ATOM     27  C   UNL     1       4.759   2.223   0.020  0.00  0.00    +0.123 A 
ENDBRANCH  15  17
ENDBRANCH   8  15
TORSDOF 4
