REMARK  Name = 75536261
REMARK  8 active torsions:
REMARK  status: ('A' for Active; 'I' for Inactive)
REMARK    1  A    between atoms: O_3  and  C_9
REMARK    2  A    between atoms: N_5  and  C_13
REMARK    3  A    between atoms: N_5  and  C_16
REMARK    4  A    between atoms: C_8  and  C_13
REMARK    5  A    between atoms: C_10  and  C_14
REMARK    6  A    between atoms: C_14  and  C_15
REMARK    7  A    between atoms: C_16  and  C_19
REMARK    8  A    between atoms: C_18  and  C_20
REMARK                            x       y       z     vdW  Elec       q    Type
REMARK                         _______ _______ _______ _____ _____    ______ ____
ROOT
ATOM      2  O   UNL     1       3.099  -0.472   0.863  0.00  0.00    -0.369 OA
ATOM      8  C   UNL     1       3.771   0.793   0.829  0.00  0.00    +0.161 C 
ATOM      9  C   UNL     1       5.278   0.619   0.599  0.00  0.00    +0.145 C 
ATOM     10  C   UNL     1       3.298  -1.298  -0.287  0.00  0.00    +0.125 C 
ATOM     11  C   UNL     1       5.584  -0.299  -0.581  0.00  0.00    +0.036 C 
ATOM     12  C   UNL     1       4.784  -1.595  -0.485  0.00  0.00    +0.034 C 
ENDROOT
BRANCH   9   3
ATOM      3  O   UNL     1       5.857   0.034   1.769  0.00  0.00    -0.389 OA
ATOM     31  H   UNL     1       6.817  -0.025   1.623  0.00  0.00    +0.210 HD
ENDBRANCH   9   3
BRANCH   8  13
ATOM     13  C   UNL     1       3.119   1.736  -0.181  0.00  0.00    +0.115 C 
BRANCH  13   5
ATOM      5  N   UNL     1       1.699   1.887   0.093  0.00  0.00    -0.309 NA
ATOM     30  H   UNL     1       1.248   0.973   0.047  0.00  0.00    +0.122 HD
BRANCH   5  16
ATOM     16  C   UNL     1       1.076   2.795  -0.862  0.00  0.00    +0.116 C 
BRANCH  16  19
ATOM      7  N   UNL     1      -3.122   3.311  -0.079  0.00  0.00    -0.263 NA
ATOM     19  C   UNL     1      -0.394   2.975  -0.588  0.00  0.00    -0.031 A 
ATOM     21  C   UNL     1      -1.297   1.979  -0.940  0.00  0.00    +0.024 A 
ATOM     22  C   UNL     1      -0.852   4.140   0.018  0.00  0.00    +0.024 A 
ATOM     25  C   UNL     1      -2.638   2.194  -0.666  0.00  0.00    +0.111 A 
ATOM     26  C   UNL     1      -2.213   4.258   0.249  0.00  0.00    +0.111 A 
ENDBRANCH  16  19
ENDBRANCH   5  16
ENDBRANCH  13   5
ENDBRANCH   8  13
BRANCH  10  14
ATOM     14  C   UNL     1       2.512  -2.585  -0.069  0.00  0.00    +0.090 C 
BRANCH  14  15
ATOM      4  O   UNL     1      -0.812  -2.327  -1.439  0.00  0.00    -0.354 OA
ATOM      6  N   UNL     1       0.548  -2.588  -1.553  0.00  0.00    -0.083 NA
ATOM     15  C   UNL     1       1.042  -2.390  -0.327  0.00  0.00    +0.087 A 
ATOM     17  C   UNL     1       0.051  -2.006   0.592  0.00  0.00    +0.076 A 
ATOM     18  C   UNL     1      -1.096  -1.981  -0.157  0.00  0.00    +0.167 A 
BRANCH  18  20
ATOM      1  F   UNL     1      -6.433  -0.825   0.905  0.00  0.00    -0.205 F 
ATOM     20  C   UNL     1      -2.472  -1.682   0.117  0.00  0.00    +0.020 A 
ATOM     23  C   UNL     1      -2.864  -1.319   1.405  0.00  0.00    +0.014 A 
ATOM     24  C   UNL     1      -3.418  -1.755  -0.905  0.00  0.00    +0.014 A 
ATOM     27  C   UNL     1      -4.202  -1.030   1.672  0.00  0.00    +0.039 A 
ATOM     28  C   UNL     1      -4.756  -1.465  -0.639  0.00  0.00    +0.039 A 
ATOM     29  C   UNL     1      -5.148  -1.103   0.649  0.00  0.00    +0.123 A 
ENDBRANCH  18  20
ENDBRANCH  14  15
ENDBRANCH  10  14
TORSDOF 8
