REMARK  Name = 40779087
REMARK  4 active torsions:
REMARK  status: ('A' for Active; 'I' for Inactive)
REMARK    1  A    between atoms: O_3  and  C_29
REMARK    2  A    between atoms: O_3  and  C_30
REMARK    3  A    between atoms: C_13  and  C_14
REMARK    4  A    between atoms: C_17  and  C_24
REMARK                            x       y       z     vdW  Elec       q    Type
REMARK                         _______ _______ _______ _____ _____    ______ ____
ROOT
ATOM      1  O   UNL     1       3.803   1.384  -0.401  0.00  0.00    -0.275 OA
ATOM      2  O   UNL     1       2.769  -3.121   2.123  0.00  0.00    -0.268 OA
ATOM      4  N   UNL     1       2.014   0.308  -1.421  0.00  0.00    -0.300 N 
ATOM      5  N   UNL     1       1.468  -2.262   0.375  0.00  0.00    -0.311 N 
ATOM      6  C   UNL     1       2.382  -2.083  -2.014  0.00  0.00    +0.027 C 
ATOM      7  C   UNL     1       0.110  -1.294  -1.507  0.00  0.00    +0.054 C 
ATOM      8  C   UNL     1       0.924  -2.203  -2.426  0.00  0.00    +0.018 C 
ATOM      9  C   UNL     1       2.870  -0.630  -2.146  0.00  0.00    +0.113 C 
ATOM     10  C   UNL     1       0.576   0.167  -1.686  0.00  0.00    +0.117 C 
ATOM     11  C   UNL     1       2.527  -2.606  -0.584  0.00  0.00    +0.130 C 
ATOM     12  C   UNL     1       0.238  -1.714  -0.040  0.00  0.00    +0.034 A 
ATOM     14  C   UNL     1       2.591   1.284  -0.609  0.00  0.00    +0.219 C 
ATOM     17  C   UNL     1      -0.768  -1.553   0.859  0.00  0.00    +0.002 A 
ATOM     20  C   UNL     1       1.720  -2.627   1.709  0.00  0.00    +0.252 A 
ATOM     22  C   UNL     1      -0.544  -1.915   2.245  0.00  0.00    +0.015 A 
ATOM     23  C   UNL     1       0.618  -2.407   2.674  0.00  0.00    +0.071 A 
ENDROOT
BRANCH  14  13
ATOM     13  C   UNL     1       1.655   2.253   0.045  0.00  0.00    +0.075 C 
ATOM     15  C   UNL     1       2.224   2.698   1.393  0.00  0.00    +0.013 C 
ATOM     16  C   UNL     1       1.428   3.444  -0.888  0.00  0.00    +0.013 C 
ATOM     18  C   UNL     1       1.349   3.765   2.046  0.00  0.00    +0.001 C 
ATOM     19  C   UNL     1       0.557   4.512  -0.233  0.00  0.00    +0.001 C 
ATOM     21  C   UNL     1       1.123   4.953   1.114  0.00  0.00    +0.000 C 
ENDBRANCH  14  13
BRANCH  17  24
ATOM     24  C   UNL     1      -2.083  -1.000   0.466  0.00  0.00    -0.016 A 
ATOM     25  C   UNL     1      -2.301   0.377   0.508  0.00  0.00    +0.012 A 
ATOM     26  C   UNL     1      -3.105  -1.856   0.055  0.00  0.00    +0.012 A 
ATOM     27  C   UNL     1      -3.541   0.898   0.137  0.00  0.00    +0.046 A 
ATOM     28  C   UNL     1      -4.345  -1.335  -0.315  0.00  0.00    +0.046 A 
ATOM     29  C   UNL     1      -4.563   0.042  -0.274  0.00  0.00    +0.120 A 
BRANCH  29   3
ATOM      3  O   UNL     1      -5.772   0.551  -0.635  0.00  0.00    -0.495 OA
ATOM     30  C   UNL     1      -5.927   1.968  -0.570  0.00  0.00    +0.277 C 
ENDBRANCH  29   3
ENDBRANCH  17  24
TORSDOF 3
