REMARK  Name = 11882466
REMARK  11 active torsions:
REMARK  status: ('A' for Active; 'I' for Inactive)
REMARK    1  A    between atoms: N_8  and  C_15
REMARK    2  A    between atoms: N_9  and  C_23
REMARK    3  A    between atoms: N_10  and  C_31
REMARK    4  A    between atoms: C_16  and  C_20
REMARK    5  A    between atoms: C_21  and  C_22
REMARK    6  A    between atoms: C_23  and  C_25
REMARK    7  A    between atoms: C_23  and  C_28
REMARK    8  A    between atoms: C_24  and  C_27
REMARK    9  A    between atoms: C_25  and  C_30
REMARK   10  A    between atoms: C_29  and  C_33
REMARK   11  A    between atoms: C_32  and  C_35
REMARK                            x       y       z     vdW  Elec       q    Type
REMARK                         _______ _______ _______ _____ _____    ______ ____
ROOT
ATOM      4  O   UNL     1       2.645   1.327   1.730  0.00  0.00    -0.268 OA
ATOM      7  N   UNL     1       0.811   1.524   0.319  0.00  0.00    -0.285 N 
ATOM     15  C   UNL     1      -2.008   0.927  -0.194  0.00  0.00    +0.077 C 
ATOM     16  C   UNL     1       0.255   0.242   0.771  0.00  0.00    +0.164 C 
ATOM     17  C   UNL     1      -1.261   0.259   0.963  0.00  0.00    +0.054 C 
ATOM     18  C   UNL     1      -1.417   2.309  -0.465  0.00  0.00    +0.041 C 
ATOM     19  C   UNL     1       0.078   2.225  -0.749  0.00  0.00    +0.111 C 
ATOM     21  C   UNL     1       2.060   1.940   0.834  0.00  0.00    +0.265 C 
ENDROOT
BRANCH  21  22
ATOM     10  N   UNL     1       3.500   3.172  -0.805  0.00  0.00    -0.262 N 
ATOM     11  N   UNL     1       3.912   4.408  -1.134  0.00  0.00    -0.176 NA
ATOM     22  C   UNL     1       2.658   3.143   0.264  0.00  0.00    +0.123 A 
ATOM     26  C   UNL     1       2.505   4.444   0.665  0.00  0.00    +0.057 A 
ATOM     29  C   UNL     1       3.301   5.181  -0.232  0.00  0.00    +0.061 A 
ATOM     31  C   UNL     1       3.965   2.043  -1.577  0.00  0.00    +0.173 C 
ATOM     33  C   UNL     1       3.504   6.639  -0.261  0.00  0.00    +0.067 C 
ENDBRANCH  21  22
BRANCH  16  20
ATOM      3  O   UNL     1       0.823  -0.515  -1.423  0.00  0.00    -0.274 OA
ATOM      9  N   UNL     1       0.884  -2.031   0.343  0.00  0.00    -0.302 N 
ATOM     20  C   UNL     1       0.689  -0.787  -0.232  0.00  0.00    +0.234 C 
ATOM     39  H   UNL     1       0.663  -2.158   1.327  0.00  0.00    +0.150 HD
BRANCH   9  23
ATOM     23  C   UNL     1       1.282  -3.197  -0.412  0.00  0.00    +0.163 C 
BRANCH  23  28
ATOM      6  O   UNL     1      -1.057  -3.853  -0.340  0.00  0.00    -0.274 OA
ATOM     12  N   UNL     1       0.168  -4.354  -2.217  0.00  0.00    -0.328 N 
ATOM     28  C   UNL     1       0.010  -3.837  -0.949  0.00  0.00    +0.231 C 
ATOM     40  H   UNL     1       1.054  -4.332  -2.711  0.00  0.00    +0.145 HD
ATOM     41  H   UNL     1      -0.609  -4.796  -2.699  0.00  0.00    +0.145 HD
ENDBRANCH  23  28
BRANCH  23  25
ATOM     25  C   UNL     1       2.067  -4.201   0.441  0.00  0.00    +0.074 C 
BRANCH  25  30
ATOM      2  S   UNL     1       4.723  -4.883   0.129  0.00  0.00    -0.102 S 
ATOM     30  C   UNL     1       3.513  -3.798   0.617  0.00  0.00    -0.008 A 
ATOM     34  C   UNL     1       3.988  -2.637   1.137  0.00  0.00    +0.011 A 
ATOM     36  C   UNL     1       5.413  -2.624   1.139  0.00  0.00    +0.008 A 
ATOM     37  C   UNL     1       5.942  -3.784   0.618  0.00  0.00    +0.045 A 
ENDBRANCH  25  30
ENDBRANCH  23  25
ENDBRANCH   9  23
ENDBRANCH  16  20
BRANCH  15   8
ATOM      5  O   UNL     1      -3.948  -1.030  -0.793  0.00  0.00    -0.270 OA
ATOM      8  N   UNL     1      -3.419   1.022   0.095  0.00  0.00    -0.308 N 
ATOM     24  C   UNL     1      -4.315   0.006  -0.235  0.00  0.00    +0.254 C 
ATOM     38  H   UNL     1      -3.756   1.834   0.605  0.00  0.00    +0.149 HD
BRANCH  24  27
ATOM      1  S   UNL     1      -6.141   1.665   0.949  0.00  0.00    +0.041 S 
ATOM     13  N   UNL     1      -7.973   0.018   0.490  0.00  0.00    -0.146 NA
ATOM     14  N   UNL     1      -7.749   1.202   1.036  0.00  0.00    -0.110 NA
ATOM     27  C   UNL     1      -5.714   0.234   0.154  0.00  0.00    +0.117 A 
ATOM     32  C   UNL     1      -6.808  -0.537  -0.015  0.00  0.00    +0.081 A 
ATOM     35  C   UNL     1      -6.889  -1.864  -0.659  0.00  0.00    +0.069 C 
ENDBRANCH  24  27
ENDBRANCH  15   8
TORSDOF 8
