REMARK  Name = 11912556
REMARK  10 active torsions:
REMARK  status: ('A' for Active; 'I' for Inactive)
REMARK    1  A    between atoms: O_3  and  C_23
REMARK    2  A    between atoms: O_3  and  C_27
REMARK    3  A    between atoms: N_7  and  C_24
REMARK    4  A    between atoms: C_8  and  C_12
REMARK    5  A    between atoms: C_9  and  C_14
REMARK    6  A    between atoms: C_12  and  C_15
REMARK    7  A    between atoms: C_14  and  C_21
REMARK    8  A    between atoms: C_18  and  C_23
REMARK    9  A    between atoms: C_24  and  C_25
REMARK   10  A    between atoms: C_24  and  C_26
REMARK                            x       y       z     vdW  Elec       q    Type
REMARK                         _______ _______ _______ _____ _____    ______ ____
ROOT
ATOM      2  O   UNL     1      -5.478  -1.531  -0.894  0.00  0.00    -0.253 OA
ATOM      5  N   UNL     1      -3.742  -0.851   0.484  0.00  0.00    -0.285 N 
ATOM      7  N   UNL     1      -5.728   0.417   0.289  0.00  0.00    -0.297 N 
ATOM      8  C   UNL     1      -0.862  -0.554   0.478  0.00  0.00    +0.004 C 
ATOM      9  C   UNL     1      -1.788   0.622   0.887  0.00  0.00    +0.010 C 
ATOM     10  C   UNL     1      -1.579  -1.549  -0.454  0.00  0.00    +0.023 C 
ATOM     11  C   UNL     1      -3.111   0.067   1.444  0.00  0.00    +0.113 C 
ATOM     13  C   UNL     1      -2.913  -2.005   0.135  0.00  0.00    +0.109 C 
ATOM     22  C   UNL     1      -5.015  -0.713  -0.092  0.00  0.00    +0.302 C 
ATOM     28  H   UNL     1      -5.336   1.100   0.920  0.00  0.00    +0.150 HD
ENDROOT
BRANCH   7  24
ATOM     24  C   UNL     1      -7.048   0.703  -0.225  0.00  0.00    +0.068 C 
ATOM     25  C   UNL     1      -7.881   1.438   0.818  0.00  0.00    +0.027 C 
ATOM     26  C   UNL     1      -6.952   1.503  -1.517  0.00  0.00    +0.027 C 
ENDBRANCH   7  24
BRANCH   9  14
ATOM     14  C   UNL     1      -2.061   1.623  -0.242  0.00  0.00    +0.002 C 
ATOM     21  C   UNL     1      -2.891   2.790   0.251  0.00  0.00    +0.004 C 
ENDBRANCH   9  14
BRANCH   8  12
ATOM     12  C   UNL     1       0.457  -0.092  -0.140  0.00  0.00    +0.100 C 
BRANCH  12  15
ATOM      1  O   UNL     1       1.202  -2.227   0.567  0.00  0.00    -0.276 OA
ATOM      6  N   UNL     1       2.758  -0.900  -0.535  0.00  0.00    -0.301 N 
ATOM     15  C   UNL     1       1.499  -1.173  -0.001  0.00  0.00    +0.216 C 
ATOM     16  C   UNL     1       3.811  -1.915  -0.475  0.00  0.00    +0.108 C 
ATOM     17  C   UNL     1       3.141   0.343  -1.216  0.00  0.00    +0.108 C 
ATOM     18  C   UNL     1       5.527  -0.068  -0.506  0.00  0.00    +0.101 C 
ATOM     19  C   UNL     1       5.070  -1.356   0.184  0.00  0.00    +0.033 C 
ATOM     20  C   UNL     1       4.386   0.950  -0.572  0.00  0.00    +0.033 C 
BRANCH  18  23
ATOM      4  O   UNL     1       7.163   0.021   1.257  0.00  0.00    -0.251 OA
ATOM     23  C   UNL     1       6.689   0.511   0.240  0.00  0.00    +0.310 C 
BRANCH  23   3
ATOM      3  O   UNL     1       7.117   1.643  -0.388  0.00  0.00    -0.468 OA
ATOM     27  C   UNL     1       8.230   2.303   0.224  0.00  0.00    +0.280 C 
ENDBRANCH  23   3
ENDBRANCH  18  23
ENDBRANCH  12  15
ENDBRANCH   8  12
TORSDOF 6
