REMARK  Name = 25338395
REMARK  7 active torsions:
REMARK  status: ('A' for Active; 'I' for Inactive)
REMARK    1  A    between atoms: O_4  and  C_25
REMARK    2  A    between atoms: O_4  and  C_29
REMARK    3  A    between atoms: N_5  and  C_14
REMARK    4  A    between atoms: N_6  and  C_9
REMARK    5  A    between atoms: C_10  and  C_13
REMARK    6  A    between atoms: C_15  and  C_17
REMARK    7  A    between atoms: C_16  and  C_18
REMARK                            x       y       z     vdW  Elec       q    Type
REMARK                         _______ _______ _______ _____ _____    ______ ____
ROOT
ATOM      5  N   UNL     1      -0.400   3.325   1.212  0.00  0.00    -0.293 NA
ATOM      9  C   UNL     1       1.387   3.243  -0.283  0.00  0.00    +0.089 C 
ATOM     10  C   UNL     1      -1.050   3.246  -0.110  0.00  0.00    +0.147 C 
ATOM     11  C   UNL     1       0.112   3.038  -1.101  0.00  0.00    +0.052 C 
ATOM     12  C   UNL     1       0.909   3.944   0.980  0.00  0.00    +0.107 C 
ATOM     14  C   UNL     1      -1.184   4.063   2.195  0.00  0.00    +0.105 C 
ENDROOT
BRANCH  10  13
ATOM      2  O   UNL     1      -3.350   2.550  -0.552  0.00  0.00    -0.336 OA
ATOM      7  N   UNL     1      -1.977   0.870   0.004  0.00  0.00    -0.190 NA
ATOM      8  N   UNL     1      -4.130   1.387  -0.573  0.00  0.00    -0.056 NA
ATOM     13  C   UNL     1      -2.097   2.157  -0.204  0.00  0.00    +0.245 A 
ATOM     16  C   UNL     1      -3.250   0.440  -0.234  0.00  0.00    +0.202 A 
BRANCH  16  18
ATOM      1 CL   UNL     1      -4.735  -5.300   0.205  0.00  0.00    -0.084 Cl
ATOM     18  C   UNL     1      -3.609  -0.945  -0.127  0.00  0.00    +0.023 A 
ATOM     21  C   UNL     1      -2.646  -1.889   0.229  0.00  0.00    +0.013 A 
ATOM     22  C   UNL     1      -4.920  -1.348  -0.380  0.00  0.00    +0.013 A 
ATOM     26  C   UNL     1      -2.994  -3.236   0.332  0.00  0.00    +0.021 A 
ATOM     27  C   UNL     1      -5.268  -2.694  -0.277  0.00  0.00    +0.021 A 
ATOM     28  C   UNL     1      -4.305  -3.638   0.079  0.00  0.00    +0.041 A 
ENDBRANCH  16  18
ENDBRANCH  10  13
BRANCH   9   6
ATOM      3  O   UNL     1       3.436   1.944  -1.818  0.00  0.00    -0.270 OA
ATOM      6  N   UNL     1       2.029   1.986   0.024  0.00  0.00    -0.307 N 
ATOM     15  C   UNL     1       3.013   1.437  -0.782  0.00  0.00    +0.244 C 
ATOM     30  H   UNL     1       1.653   1.458   0.805  0.00  0.00    +0.149 HD
BRANCH  15  17
ATOM     17  C   UNL     1       3.555   0.126  -0.342  0.00  0.00    +0.037 A 
ATOM     19  C   UNL     1       4.082  -0.761  -1.281  0.00  0.00    +0.016 A 
ATOM     20  C   UNL     1       3.535  -0.219   1.009  0.00  0.00    +0.016 A 
ATOM     23  C   UNL     1       4.589  -1.994  -0.868  0.00  0.00    +0.046 A 
ATOM     24  C   UNL     1       4.042  -1.452   1.422  0.00  0.00    +0.046 A 
ATOM     25  C   UNL     1       4.569  -2.339   0.483  0.00  0.00    +0.120 A 
BRANCH  25   4
ATOM      4  O   UNL     1       5.064  -3.541   0.886  0.00  0.00    -0.495 OA
ATOM     29  C   UNL     1       5.588  -4.399  -0.126  0.00  0.00    +0.277 C 
ENDBRANCH  25   4
ENDBRANCH  15  17
ENDBRANCH   9   6
TORSDOF 5
