REMARK  Name = 75536590
REMARK  7 active torsions:
REMARK  status: ('A' for Active; 'I' for Inactive)
REMARK    1  A    between atoms: O_3  and  C_8
REMARK    2  A    between atoms: N_5  and  C_7
REMARK    3  A    between atoms: N_5  and  C_12
REMARK    4  A    between atoms: N_5  and  C_13
REMARK    5  A    between atoms: N_6  and  C_11
REMARK    6  A    between atoms: C_9  and  C_11
REMARK    7  A    between atoms: C_14  and  C_15
REMARK                            x       y       z     vdW  Elec       q    Type
REMARK                         _______ _______ _______ _____ _____    ______ ____
ROOT
ATOM      2  O   UNL     1      -1.153   1.262  -0.122  0.00  0.00    -0.371 OA
ATOM      7  C   UNL     1      -3.282   0.341   0.386  0.00  0.00    +0.113 C 
ATOM      8  C   UNL     1      -2.463  -0.692  -0.366  0.00  0.00    +0.164 C 
ATOM      9  C   UNL     1      -1.051  -0.171  -0.134  0.00  0.00    +0.165 C 
ATOM     10  C   UNL     1      -2.535   1.621   0.049  0.00  0.00    +0.181 C 
ENDROOT
BRANCH   7   5
ATOM      5  N   UNL     1      -4.680   0.380  -0.013  0.00  0.00    -0.301 NA
ATOM     12  C   UNL     1      -5.340  -0.896   0.279  0.00  0.00    +0.105 C 
ATOM     13  C   UNL     1      -5.383   1.476   0.659  0.00  0.00    +0.105 C 
ENDBRANCH   7   5
BRANCH   8   3
ATOM      3  O   UNL     1      -2.634  -2.000   0.143  0.00  0.00    -0.388 OA
ATOM     19  H   UNL     1      -2.420  -1.988   1.092  0.00  0.00    +0.210 HD
ENDBRANCH   8   3
BRANCH   9  11
ATOM     11  C   UNL     1      -0.067  -0.608  -1.204  0.00  0.00    +0.138 C 
BRANCH  11   6
ATOM      4  O   UNL     1       2.002  -1.876   0.331  0.00  0.00    -0.270 OA
ATOM      6  N   UNL     1       1.247  -0.092  -0.947  0.00  0.00    -0.308 N 
ATOM     14  C   UNL     1       2.190  -0.778  -0.188  0.00  0.00    +0.251 C 
ATOM     20  H   UNL     1       1.468   0.819  -1.333  0.00  0.00    +0.149 HD
BRANCH  14  15
ATOM      1  S   UNL     1       4.712  -0.874   0.930  0.00  0.00    -0.092 S 
ATOM     15  C   UNL     1       3.496  -0.097   0.008  0.00  0.00    +0.074 A 
ATOM     16  C   UNL     1       3.908   1.132  -0.459  0.00  0.00    +0.021 A 
ATOM     17  C   UNL     1       5.240   1.438  -0.056  0.00  0.00    +0.008 A 
ATOM     18  C   UNL     1       5.794   0.433   0.705  0.00  0.00    +0.046 A 
ENDBRANCH  14  15
ENDBRANCH  11   6
ENDBRANCH   9  11
TORSDOF 5
