REMARK  Name = 75536595
REMARK  6 active torsions:
REMARK  status: ('A' for Active; 'I' for Inactive)
REMARK    1  A    between atoms: O_5  and  C_11
REMARK    2  A    between atoms: N_7  and  C_9
REMARK    3  A    between atoms: N_7  and  C_10
REMARK    4  A    between atoms: N_8  and  C_19
REMARK    5  A    between atoms: C_14  and  C_19
REMARK    6  A    between atoms: C_20  and  C_21
REMARK                            x       y       z     vdW  Elec       q    Type
REMARK                         _______ _______ _______ _____ _____    ______ ____
ROOT
ATOM      4  O   UNL     1       0.819   0.538  -0.984  0.00  0.00    -0.371 OA
ATOM     10  C   UNL     1      -1.247  -0.412  -0.300  0.00  0.00    +0.111 C 
ATOM     11  C   UNL     1      -0.201  -1.508  -0.378  0.00  0.00    +0.164 C 
ATOM     14  C   UNL     1       1.083  -0.694  -0.292  0.00  0.00    +0.165 C 
ATOM     15  C   UNL     1      -0.604   0.679  -1.140  0.00  0.00    +0.181 C 
ENDROOT
BRANCH  11   5
ATOM      5  O   UNL     1      -0.306  -2.440   0.681  0.00  0.00    -0.388 OA
ATOM     26  H   UNL     1      -0.252  -1.955   1.522  0.00  0.00    +0.210 HD
ENDBRANCH  11   5
BRANCH  10   7
ATOM      7  N   UNL     1      -2.552  -0.815  -0.798  0.00  0.00    -0.306 NA
ATOM     25  H   UNL     1      -2.786  -1.748  -0.460  0.00  0.00    +0.123 HD
BRANCH   7   9
ATOM      2  F   UNL     1      -7.240   1.637   0.924  0.00  0.00    -0.206 F 
ATOM      3  F   UNL     1      -6.898  -0.491   0.636  0.00  0.00    -0.206 F 
ATOM      9  C   UNL     1      -3.581   0.137  -0.385  0.00  0.00    +0.054 C 
ATOM     12  C   UNL     1      -4.780   0.054  -1.339  0.00  0.00    +0.024 C 
ATOM     13  C   UNL     1      -4.003  -0.147   1.062  0.00  0.00    +0.024 C 
ATOM     16  C   UNL     1      -5.907   0.986  -0.897  0.00  0.00    +0.077 C 
ATOM     17  C   UNL     1      -5.129   0.785   1.505  0.00  0.00    +0.077 C 
ATOM     18  C   UNL     1      -6.307   0.729   0.546  0.00  0.00    +0.249 C 
ENDBRANCH   7   9
ENDBRANCH  10   7
BRANCH  14  19
ATOM     19  C   UNL     1       2.278  -1.389  -0.920  0.00  0.00    +0.138 C 
BRANCH  19   8
ATOM      6  O   UNL     1       4.187  -1.407   1.225  0.00  0.00    -0.270 OA
ATOM      8  N   UNL     1       3.462  -0.585  -0.820  0.00  0.00    -0.308 N 
ATOM     20  C   UNL     1       4.335  -0.660   0.262  0.00  0.00    +0.251 C 
ATOM     27  H   UNL     1       3.640   0.068  -1.575  0.00  0.00    +0.149 HD
BRANCH  20  21
ATOM      1  S   UNL     1       6.624   0.229   1.521  0.00  0.00    -0.092 S 
ATOM     21  C   UNL     1       5.502   0.258   0.228  0.00  0.00    +0.074 A 
ATOM     22  C   UNL     1       5.845   1.184  -0.733  0.00  0.00    +0.021 A 
ATOM     23  C   UNL     1       7.045   1.877  -0.403  0.00  0.00    +0.008 A 
ATOM     24  C   UNL     1       7.573   1.456   0.797  0.00  0.00    +0.046 A 
ENDBRANCH  20  21
ENDBRANCH  19   8
ENDBRANCH  14  19
TORSDOF 6
