REMARK  Name = 86769012
REMARK  2 active torsions:
REMARK  status: ('A' for Active; 'I' for Inactive)
REMARK    1  A    between atoms: N_6  and  C_14
REMARK    2  A    between atoms: C_14  and  C_15
REMARK                            x       y       z     vdW  Elec       q    Type
REMARK                         _______ _______ _______ _____ _____    ______ ____
ROOT
ATOM      1  O   UNL     1       5.316  -0.464  -1.389  0.00  0.00    -0.253 OA
ATOM      2  O   UNL     1      -0.925   2.359  -0.353  0.00  0.00    -0.253 OA
ATOM      3  N   UNL     1       3.157  -0.146  -0.507  0.00  0.00    -0.278 N 
ATOM      4  N   UNL     1       0.925   1.214   0.445  0.00  0.00    -0.282 N 
ATOM      5  N   UNL     1       4.489  -1.694   0.430  0.00  0.00    -0.297 N 
ATOM      6  N   UNL     1      -1.239   0.811   1.308  0.00  0.00    -0.295 N 
ATOM      7  C   UNL     1       2.321  -0.802   0.484  0.00  0.00    +0.112 C 
ATOM      8  C   UNL     1       1.594   0.238   1.331  0.00  0.00    +0.133 C 
ATOM      9  C   UNL     1       3.300  -1.684   1.252  0.00  0.00    +0.129 C 
ATOM     10  C   UNL     1       2.605   0.910  -1.338  0.00  0.00    +0.128 C 
ATOM     11  C   UNL     1       1.842   1.912  -0.472  0.00  0.00    +0.128 C 
ATOM     12  C   UNL     1       4.425  -0.731  -0.594  0.00  0.00    +0.303 C 
ATOM     13  C   UNL     1      -0.444   1.519   0.415  0.00  0.00    +0.303 C 
ATOM     21  H   UNL     1       5.307  -2.266   0.615  0.00  0.00    +0.150 HD
ATOM     22  H   UNL     1      -0.858   0.085   1.898  0.00  0.00    +0.151 HD
ENDROOT
BRANCH   6  14
ATOM     14  C   UNL     1      -2.668   1.015   1.389  0.00  0.00    +0.141 C 
BRANCH  14  15
ATOM     15  C   UNL     1      -3.419   0.103   0.462  0.00  0.00    -0.030 A 
ATOM     16  C   UNL     1      -3.699   0.512  -0.842  0.00  0.00    +0.005 A 
ATOM     17  C   UNL     1      -3.836  -1.152   0.904  0.00  0.00    +0.005 A 
ATOM     18  C   UNL     1      -4.396  -0.335  -1.704  0.00  0.00    +0.000 A 
ATOM     19  C   UNL     1      -4.534  -1.998   0.043  0.00  0.00    +0.000 A 
ATOM     20  C   UNL     1      -4.814  -1.590  -1.261  0.00  0.00    +0.000 A 
ENDBRANCH  14  15
ENDBRANCH   6  14
TORSDOF 2
