REMARK  Name = 75368427
REMARK  3 active torsions:
REMARK  status: ('A' for Active; 'I' for Inactive)
REMARK    1  A    between atoms: N_4  and  C_13
REMARK    2  A    between atoms: C_13  and  C_15
REMARK    3  A    between atoms: C_14  and  C_16
REMARK                            x       y       z     vdW  Elec       q    Type
REMARK                         _______ _______ _______ _____ _____    ______ ____
ROOT
ATOM      1  O   UNL     1      -2.552  -2.733  -0.569  0.00  0.00    -0.252 OA
ATOM      2  O   UNL     1       4.142  -1.847   1.227  0.00  0.00    -0.270 OA
ATOM      3  N   UNL     1      -0.425  -1.746  -0.414  0.00  0.00    -0.278 N 
ATOM      4  N   UNL     1      -2.118  -0.510  -1.225  0.00  0.00    -0.279 N 
ATOM      5  N   UNL     1       2.001  -1.044   0.746  0.00  0.00    -0.294 N 
ATOM      7  C   UNL     1       0.196  -0.499  -0.824  0.00  0.00    +0.112 C 
ATOM      8  C   UNL     1      -0.988   0.401  -1.169  0.00  0.00    +0.133 C 
ATOM      9  C   UNL     1       1.099   0.030   0.286  0.00  0.00    +0.132 C 
ATOM     10  C   UNL     1       0.391  -2.812   0.141  0.00  0.00    +0.128 C 
ATOM     11  C   UNL     1       1.317  -2.255   1.220  0.00  0.00    +0.127 C 
ATOM     12  C   UNL     1      -1.793  -1.785  -0.720  0.00  0.00    +0.306 C 
ATOM     14  C   UNL     1       3.393  -0.968   0.802  0.00  0.00    +0.247 C 
ENDROOT
BRANCH  14  16
ATOM     16  C   UNL     1       4.040   0.254   0.306  0.00  0.00    +0.037 A 
ATOM     19  C   UNL     1       4.276   1.320   1.174  0.00  0.00    +0.013 A 
ATOM     20  C   UNL     1       4.420   0.347  -1.032  0.00  0.00    +0.013 A 
ATOM     22  C   UNL     1       4.892   2.480   0.703  0.00  0.00    +0.001 A 
ATOM     23  C   UNL     1       5.036   1.506  -1.504  0.00  0.00    +0.001 A 
ATOM     25  C   UNL     1       5.272   2.573  -0.636  0.00  0.00    +0.000 A 
ENDBRANCH  14  16
BRANCH   4  13
ATOM     13  C   UNL     1      -3.434  -0.073  -1.632  0.00  0.00    +0.146 C 
BRANCH  13  15
ATOM      6  N   UNL     1      -4.988   2.624   0.517  0.00  0.00    -0.263 NA
ATOM     15  C   UNL     1      -4.178   0.589  -0.508  0.00  0.00    -0.012 A 
ATOM     17  C   UNL     1      -4.735  -0.160   0.522  0.00  0.00    +0.008 A 
ATOM     18  C   UNL     1      -4.331   1.966  -0.465  0.00  0.00    +0.115 A 
ATOM     21  C   UNL     1      -5.418   0.481   1.550  0.00  0.00    +0.020 A 
ATOM     24  C   UNL     1      -5.515   1.862   1.501  0.00  0.00    +0.111 A 
ENDBRANCH  13  15
ENDBRANCH   4  13
TORSDOF 3
