REMARK  Name = 7155435
REMARK  3 active torsions:
REMARK  status: ('A' for Active; 'I' for Inactive)
REMARK    1  A    between atoms: S_1  and  N_6
REMARK    2  A    between atoms: S_1  and  C_20
REMARK    3  A    between atoms: C_15  and  C_19
REMARK                            x       y       z     vdW  Elec       q    Type
REMARK                         _______ _______ _______ _____ _____    ______ ____
ROOT
ATOM      5  O   UNL     1      -0.855   3.502   2.366  0.00  0.00    -0.268 OA
ATOM      6  N   UNL     1      -1.957   0.053  -1.013  0.00  0.00    -0.175 NA
ATOM      7  N   UNL     1      -0.275   2.271   0.460  0.00  0.00    -0.311 N 
ATOM      8  C   UNL     1      -1.640   2.424  -1.705  0.00  0.00    +0.025 C 
ATOM      9  C   UNL     1       0.302   0.927  -1.585  0.00  0.00    +0.053 C 
ATOM     10  C   UNL     1      -0.329   2.064  -2.385  0.00  0.00    +0.017 C 
ATOM     11  C   UNL     1      -2.594   1.220  -1.684  0.00  0.00    +0.114 C 
ATOM     12  C   UNL     1      -0.634  -0.297  -1.609  0.00  0.00    +0.119 C 
ATOM     13  C   UNL     1      -1.334   2.947  -0.301  0.00  0.00    +0.130 C 
ATOM     14  C   UNL     1       0.604   1.350  -0.145  0.00  0.00    +0.034 A 
ATOM     15  C   UNL     1       1.659   0.861   0.557  0.00  0.00    +0.002 A 
ATOM     16  C   UNL     1      -0.126   2.691   1.794  0.00  0.00    +0.252 A 
ATOM     17  C   UNL     1       1.842   1.268   1.938  0.00  0.00    +0.015 A 
ATOM     18  C   UNL     1       1.011   2.115   2.546  0.00  0.00    +0.071 A 
ENDROOT
BRANCH  15  19
ATOM     19  C   UNL     1       2.620  -0.092  -0.041  0.00  0.00    -0.016 A 
ATOM     22  C   UNL     1       2.380  -1.460   0.043  0.00  0.00    +0.008 A 
ATOM     23  C   UNL     1       3.757   0.387  -0.685  0.00  0.00    +0.008 A 
ATOM     26  C   UNL     1       3.286  -2.358  -0.522  0.00  0.00    +0.001 A 
ATOM     27  C   UNL     1       4.663  -0.511  -1.250  0.00  0.00    +0.001 A 
ATOM     28  C   UNL     1       4.427  -1.883  -1.168  0.00  0.00    +0.000 A 
ENDBRANCH  15  19
BRANCH   6   1
ATOM      1  S   UNL     1      -2.992  -1.268  -0.680  0.00  0.00    +0.067 S 
ATOM      3  O   UNL     1      -3.137  -2.070  -1.877  0.00  0.00    -0.152 OA
ATOM      4  O   UNL     1      -4.153  -0.787   0.039  0.00  0.00    -0.152 OA
BRANCH   1  20
ATOM      2  S   UNL     1      -1.789  -1.425   1.980  0.00  0.00    -0.077 S 
ATOM     20  C   UNL     1      -1.986  -2.171   0.455  0.00  0.00    +0.143 A 
ATOM     21  C   UNL     1      -1.319  -3.368   0.366  0.00  0.00    +0.036 A 
ATOM     24  C   UNL     1      -0.631  -3.681   1.573  0.00  0.00    +0.010 A 
ATOM     25  C   UNL     1      -0.802  -2.709   2.534  0.00  0.00    +0.047 A 
ENDBRANCH   1  20
ENDBRANCH   6   1
TORSDOF 3
