REMARK  Name = 40776839
REMARK  12 active torsions:
REMARK  status: ('A' for Active; 'I' for Inactive)
REMARK    1  A    between atoms: S_1  and  N_6
REMARK    2  A    between atoms: S_1  and  C_23
REMARK    3  A    between atoms: N_6  and  C_18
REMARK    4  A    between atoms: N_9  and  C_35
REMARK    5  A    between atoms: N_9  and  C_36
REMARK    6  A    between atoms: N_9  and  C_37
REMARK    7  A    between atoms: N_10  and  C_34
REMARK    8  A    between atoms: C_12  and  C_19
REMARK    9  A    between atoms: C_13  and  C_18
REMARK   10  A    between atoms: C_21  and  C_24
REMARK   11  A    between atoms: C_22  and  C_25
REMARK   12  A    between atoms: C_38  and  C_39
REMARK                            x       y       z     vdW  Elec       q    Type
REMARK                         _______ _______ _______ _____ _____    ______ ____
ROOT
ATOM      5  N   UNL     1      -3.028  -2.719   1.847  0.00  0.00    -0.297 NA
ATOM     11  C   UNL     1      -2.636  -3.503  -0.606  0.00  0.00    +0.002 C 
ATOM     12  C   UNL     1      -1.281  -3.207   0.094  0.00  0.00    +0.055 C 
ATOM     13  C   UNL     1      -3.891  -1.940   0.920  0.00  0.00    +0.072 C 
ATOM     14  C   UNL     1      -3.525  -2.243  -0.549  0.00  0.00    +0.024 C 
ATOM     15  C   UNL     1      -3.340  -4.593   0.231  0.00  0.00    +0.019 C 
ATOM     16  C   UNL     1      -1.602  -2.558   1.470  0.00  0.00    +0.094 C 
ATOM     17  C   UNL     1      -3.385  -4.151   1.704  0.00  0.00    +0.085 C 
ENDROOT
BRANCH  12  19
ATOM      7  N   UNL     1      -0.558  -2.037  -1.929  0.00  0.00    -0.237 NA
ATOM      8  N   UNL     1       1.623  -1.030  -2.119  0.00  0.00    -0.232 NA
ATOM     19  C   UNL     1      -0.227  -2.428  -0.680  0.00  0.00    +0.050 A 
ATOM     20  C   UNL     1       0.992  -2.162  -0.091  0.00  0.00    +0.052 A 
ATOM     21  C   UNL     1       1.887  -1.452  -0.865  0.00  0.00    +0.075 A 
ATOM     22  C   UNL     1       0.400  -1.352  -2.582  0.00  0.00    +0.127 A 
ATOM     25  C   UNL     1       0.072  -0.904  -3.966  0.00  0.00    +0.088 C 
BRANCH  21  24
ATOM     24  C   UNL     1       3.197  -1.110  -0.366  0.00  0.00    +0.001 A 
ATOM     28  C   UNL     1       4.084  -2.118   0.014  0.00  0.00    +0.012 A 
ATOM     29  C   UNL     1       3.578   0.228  -0.264  0.00  0.00    +0.012 A 
ATOM     32  C   UNL     1       5.350  -1.788   0.497  0.00  0.00    +0.024 A 
ATOM     33  C   UNL     1       4.844   0.558   0.219  0.00  0.00    +0.024 A 
ATOM     35  C   UNL     1       5.730  -0.450   0.599  0.00  0.00    +0.029 A 
BRANCH  35   9
ATOM      9  N   UNL     1       7.010  -0.115   1.087  0.00  0.00    -0.336 N 
ATOM     36  C   UNL     1       7.939  -1.155   1.485  0.00  0.00    +0.129 C 
ATOM     37  C   UNL     1       7.418   1.272   1.190  0.00  0.00    +0.129 C 
ENDBRANCH  35   9
ENDBRANCH  21  24
ENDBRANCH  12  19
BRANCH  13  18
ATOM     18  C   UNL     1      -3.859  -0.439   1.218  0.00  0.00    +0.124 C 
BRANCH  18   6
ATOM      6  N   UNL     1      -4.786   0.266   0.387  0.00  0.00    -0.188 NA
ATOM     40  H   UNL     1      -4.993  -0.140  -0.534  0.00  0.00    +0.148 HD
BRANCH   6   1
ATOM      1  S   UNL     1      -4.985   1.974   0.512  0.00  0.00    +0.058 S 
ATOM      2  O   UNL     1      -5.265   2.306   1.896  0.00  0.00    -0.153 OA
ATOM      3  O   UNL     1      -5.853   2.458  -0.544  0.00  0.00    -0.153 OA
BRANCH   1  23
ATOM     23  C   UNL     1      -3.352   2.538   0.137  0.00  0.00    +0.105 A 
ATOM     26  C   UNL     1      -2.420   2.708   1.161  0.00  0.00    +0.030 A 
ATOM     27  C   UNL     1      -2.995   2.813  -1.184  0.00  0.00    +0.030 A 
ATOM     30  C   UNL     1      -1.132   3.152   0.865  0.00  0.00    +0.025 A 
ATOM     31  C   UNL     1      -1.707   3.258  -1.480  0.00  0.00    +0.025 A 
ATOM     34  C   UNL     1      -0.775   3.428  -0.456  0.00  0.00    +0.033 A 
BRANCH  34  10
ATOM      4  O   UNL     1       1.577   3.946   1.351  0.00  0.00    -0.276 OA
ATOM     10  N   UNL     1       0.514   3.872  -0.752  0.00  0.00    -0.286 N 
ATOM     38  C   UNL     1       1.576   4.098   0.134  0.00  0.00    +0.214 C 
ATOM     39  C   UNL     1       2.812   4.577  -0.586  0.00  0.00    +0.109 C 
ATOM     41  H   UNL     1       0.696   4.050  -1.737  0.00  0.00    +0.155 HD
ENDBRANCH  34  10
ENDBRANCH   1  23
ENDBRANCH   6   1
ENDBRANCH  18   6
ENDBRANCH  13  18
TORSDOF 8
