REMARK  Name = 40778211
REMARK  10 active torsions:
REMARK  status: ('A' for Active; 'I' for Inactive)
REMARK    1  A    between atoms: O_3  and  C_12
REMARK    2  A    between atoms: O_4  and  C_13
REMARK    3  A    between atoms: O_6  and  C_24
REMARK    4  A    between atoms: O_6  and  C_32
REMARK    5  A    between atoms: N_9  and  C_22
REMARK    6  A    between atoms: N_10  and  C_16
REMARK    7  A    between atoms: C_11  and  C_15
REMARK    8  A    between atoms: C_14  and  C_16
REMARK    9  A    between atoms: C_15  and  C_17
REMARK   10  A    between atoms: C_23  and  C_26
REMARK                            x       y       z     vdW  Elec       q    Type
REMARK                         _______ _______ _______ _____ _____    ______ ____
ROOT
ATOM      2  O   UNL     1      -4.059   0.922   0.870  0.00  0.00    -0.366 OA
ATOM     11  C   UNL     1      -3.587   1.971  -0.007  0.00  0.00    +0.159 C 
ATOM     12  C   UNL     1      -4.539   1.996  -1.198  0.00  0.00    +0.175 C 
ATOM     13  C   UNL     1      -5.007   0.557  -1.258  0.00  0.00    +0.176 C 
ATOM     14  C   UNL     1      -5.128   0.214   0.217  0.00  0.00    +0.167 C 
ENDROOT
BRANCH  12   3
ATOM      3  O   UNL     1      -5.629   2.859  -0.874  0.00  0.00    -0.387 OA
ATOM     36  H   UNL     1      -5.278   3.764  -0.822  0.00  0.00    +0.210 HD
ENDBRANCH  12   3
BRANCH  13   4
ATOM      4  O   UNL     1      -6.232   0.396  -1.941  0.00  0.00    -0.387 OA
ATOM     37  H   UNL     1      -6.114   0.751  -2.839  0.00  0.00    +0.210 HD
ENDBRANCH  13   4
BRANCH  11  15
ATOM     15  C   UNL     1      -2.153   1.640  -0.398  0.00  0.00    +0.130 C 
BRANCH  15  17
ATOM      5  O   UNL     1      -1.672   2.479   1.770  0.00  0.00    -0.276 OA
ATOM      8  N   UNL     1       0.132   1.701   0.529  0.00  0.00    -0.298 N 
ATOM      9  N   UNL     1       2.978   1.368   0.119  0.00  0.00    -0.324 N 
ATOM     17  C   UNL     1      -1.219   1.983   0.737  0.00  0.00    +0.218 C 
ATOM     18  C   UNL     1       0.668   1.112  -0.700  0.00  0.00    +0.126 C 
ATOM     19  C   UNL     1       1.101   2.011   1.577  0.00  0.00    +0.126 C 
ATOM     20  C   UNL     1       2.025   0.438  -0.491  0.00  0.00    +0.124 C 
ATOM     21  C   UNL     1       2.456   2.417   1.000  0.00  0.00    +0.124 C 
BRANCH   9  22
ATOM     22  C   UNL     1       4.348   1.240  -0.100  0.00  0.00    +0.072 A 
ATOM     24  C   UNL     1       4.915  -0.011  -0.338  0.00  0.00    +0.141 A 
ATOM     25  C   UNL     1       5.153   2.379  -0.081  0.00  0.00    +0.027 A 
ATOM     27  C   UNL     1       6.288  -0.124  -0.556  0.00  0.00    +0.047 A 
ATOM     28  C   UNL     1       6.526   2.266  -0.300  0.00  0.00    +0.002 A 
ATOM     29  C   UNL     1       7.094   1.014  -0.537  0.00  0.00    +0.004 A 
BRANCH  24   6
ATOM      6  O   UNL     1       4.146  -1.136  -0.359  0.00  0.00    -0.493 OA
ATOM     32  C   UNL     1       4.813  -2.372  -0.610  0.00  0.00    +0.277 C 
ENDBRANCH  24   6
ENDBRANCH   9  22
ENDBRANCH  15  17
ENDBRANCH  11  15
BRANCH  14  16
ATOM     16  C   UNL     1      -5.004  -1.272   0.502  0.00  0.00    +0.138 C 
BRANCH  16  10
ATOM      7  O   UNL     1      -2.586  -1.409   2.043  0.00  0.00    -0.270 OA
ATOM     10  N   UNL     1      -3.738  -1.780   0.063  0.00  0.00    -0.309 N 
ATOM     23  C   UNL     1      -2.612  -1.809   0.882  0.00  0.00    +0.244 C 
ATOM     38  H   UNL     1      -3.703  -2.177  -0.870  0.00  0.00    +0.149 HD
BRANCH  23  26
ATOM      1  F   UNL     1       1.714  -3.998   1.271  0.00  0.00    -0.205 F 
ATOM     26  C   UNL     1      -1.368  -2.342   0.270  0.00  0.00    +0.039 A 
ATOM     30  C   UNL     1      -0.392  -2.931   1.073  0.00  0.00    +0.051 A 
ATOM     31  C   UNL     1      -1.175  -2.253  -1.109  0.00  0.00    +0.013 A 
ATOM     33  C   UNL     1       0.776  -3.432   0.499  0.00  0.00    +0.124 A 
ATOM     34  C   UNL     1      -0.007  -2.753  -1.684  0.00  0.00    +0.004 A 
ATOM     35  C   UNL     1       0.969  -3.343  -0.880  0.00  0.00    +0.038 A 
ENDBRANCH  23  26
ENDBRANCH  16  10
ENDBRANCH  14  16
TORSDOF 9
