REMARK  Name = 45783707
REMARK  7 active torsions:
REMARK  status: ('A' for Active; 'I' for Inactive)
REMARK    1  A    between atoms: O_5  and  C_28
REMARK    2  A    between atoms: O_5  and  C_29
REMARK    3  A    between atoms: N_6  and  C_14
REMARK    4  A    between atoms: C_10  and  C_15
REMARK    5  A    between atoms: C_14  and  C_16
REMARK    6  A    between atoms: C_19  and  C_23
REMARK    7  A    between atoms: C_22  and  C_24
REMARK                            x       y       z     vdW  Elec       q    Type
REMARK                         _______ _______ _______ _____ _____    ______ ____
ROOT
ATOM      6  N   UNL     1      -3.724  -0.339  -0.681  0.00  0.00    -0.287 NA
ATOM     10  C   UNL     1      -3.443  -1.226   0.465  0.00  0.00    +0.146 C 
ATOM     11  C   UNL     1      -4.141  -2.553   0.113  0.00  0.00    +0.030 C 
ATOM     12  C   UNL     1      -4.837  -2.296  -1.216  0.00  0.00    +0.017 C 
ATOM     13  C   UNL     1      -4.995  -0.789  -1.250  0.00  0.00    +0.085 C 
ENDROOT
BRANCH  10  15
ATOM      4  O   UNL     1      -1.593  -1.676   1.997  0.00  0.00    -0.336 OA
ATOM      7  N   UNL     1      -0.958  -1.311  -0.120  0.00  0.00    -0.190 NA
ATOM      8  N   UNL     1      -0.196  -1.785   1.984  0.00  0.00    -0.056 NA
ATOM     15  C   UNL     1      -1.960  -1.396   0.719  0.00  0.00    +0.245 A 
ATOM     19  C   UNL     1       0.103  -1.557   0.702  0.00  0.00    +0.204 A 
BRANCH  19  23
ATOM      9  N   UNL     1       3.810  -1.843   0.656  0.00  0.00    -0.221 NA
ATOM     23  C   UNL     1       1.450  -1.569   0.210  0.00  0.00    +0.041 A 
ATOM     25  C   UNL     1       1.724  -1.329  -1.132  0.00  0.00    +0.018 A 
ATOM     26  C   UNL     1       2.519  -1.819   1.055  0.00  0.00    +0.126 A 
ATOM     27  C   UNL     1       3.040  -1.346  -1.581  0.00  0.00    +0.068 A 
ATOM     28  C   UNL     1       4.038  -1.606  -0.655  0.00  0.00    +0.214 A 
BRANCH  28   5
ATOM      5  O   UNL     1       5.343  -1.628  -1.073  0.00  0.00    -0.480 OA
ATOM     29  C   UNL     1       6.327  -1.899  -0.082  0.00  0.00    +0.279 C 
ENDBRANCH  28   5
ENDBRANCH  19  23
ENDBRANCH  10  15
BRANCH   6  14
ATOM     14  C   UNL     1      -3.755   1.073  -0.320  0.00  0.00    +0.120 C 
BRANCH  14  16
ATOM     16  C   UNL     1      -2.370   1.651  -0.199  0.00  0.00    -0.033 A 
ATOM     17  C   UNL     1      -1.956   2.222   1.004  0.00  0.00    +0.005 A 
ATOM     18  C   UNL     1      -1.501   1.614  -1.290  0.00  0.00    +0.005 A 
ATOM     20  C   UNL     1      -0.672   2.757   1.116  0.00  0.00    +0.012 A 
ATOM     21  C   UNL     1      -0.217   2.149  -1.177  0.00  0.00    +0.012 A 
ATOM     22  C   UNL     1       0.197   2.720   0.026  0.00  0.00    +0.055 A 
BRANCH  22  24
ATOM      1  F   UNL     1       2.562   2.377  -0.073  0.00  0.00    -0.166 F 
ATOM      2  F   UNL     1       1.816   3.805   1.387  0.00  0.00    -0.166 F 
ATOM      3  F   UNL     1       1.820   4.306  -0.729  0.00  0.00    -0.166 F 
ATOM     24  C   UNL     1       1.570   3.289   0.148  0.00  0.00    +0.417 C 
ENDBRANCH  22  24
ENDBRANCH  14  16
ENDBRANCH   6  14
TORSDOF 6
