REMARK  Name = 11913066
REMARK  9 active torsions:
REMARK  status: ('A' for Active; 'I' for Inactive)
REMARK    1  A    between atoms: O_3  and  C_14
REMARK    2  A    between atoms: O_3  and  C_18
REMARK    3  A    between atoms: O_5  and  C_28
REMARK    4  A    between atoms: O_5  and  C_34
REMARK    5  A    between atoms: O_6  and  C_33
REMARK    6  A    between atoms: O_6  and  C_35
REMARK    7  A    between atoms: N_7  and  C_13
REMARK    8  A    between atoms: N_10  and  C_22
REMARK    9  A    between atoms: C_19  and  C_23
REMARK                            x       y       z     vdW  Elec       q    Type
REMARK                         _______ _______ _______ _____ _____    ______ ____
ROOT
ATOM      1  O   UNL     1       0.730   0.719   0.882  0.00  0.00    -0.368 OA
ATOM      2  O   UNL     1       0.950   3.062  -1.087  0.00  0.00    -0.368 OA
ATOM     11  C   UNL     1       0.075   1.915  -1.058  0.00  0.00    +0.173 C 
ATOM     12  C   UNL     1       0.896   0.749  -0.545  0.00  0.00    +0.192 C 
ATOM     13  C   UNL     1      -0.991   2.103  -0.004  0.00  0.00    +0.130 C 
ATOM     14  C   UNL     1       2.301   1.141  -0.936  0.00  0.00    +0.235 C 
ATOM     15  C   UNL     1      -0.272   1.674   1.264  0.00  0.00    +0.185 C 
ATOM     16  C   UNL     1       2.278   2.641  -0.744  0.00  0.00    +0.207 C 
ENDROOT
BRANCH  13   7
ATOM      7  N   UNL     1      -2.115   1.229  -0.264  0.00  0.00    -0.306 N 
ATOM      8  N   UNL     1      -4.297   0.479  -0.009  0.00  0.00    -0.214 NA
ATOM      9  N   UNL     1      -3.480   2.388   1.214  0.00  0.00    -0.223 NA
ATOM     17  C   UNL     1      -3.351   1.371   0.340  0.00  0.00    +0.216 A 
ATOM     19  C   UNL     1      -5.490   0.647   0.599  0.00  0.00    +0.076 A 
ATOM     20  C   UNL     1      -4.698   2.498   1.784  0.00  0.00    +0.116 A 
ATOM     21  C   UNL     1      -5.751   1.648   1.513  0.00  0.00    +0.048 A 
ATOM     36  H   UNL     1      -2.000   0.440  -0.890  0.00  0.00    +0.149 HD
BRANCH  19  23
ATOM     23  C   UNL     1      -6.507  -0.308   0.229  0.00  0.00    +0.001 A 
ATOM     26  C   UNL     1      -7.696   0.131  -0.354  0.00  0.00    +0.013 A 
ATOM     27  C   UNL     1      -6.302  -1.670   0.454  0.00  0.00    +0.013 A 
ATOM     30  C   UNL     1      -8.680  -0.791  -0.711  0.00  0.00    +0.046 A 
ATOM     31  C   UNL     1      -7.285  -2.592   0.097  0.00  0.00    +0.046 A 
ATOM     33  C   UNL     1      -8.474  -2.152  -0.485  0.00  0.00    +0.120 A 
BRANCH  33   6
ATOM      6  O   UNL     1      -9.434  -3.052  -0.836  0.00  0.00    -0.495 OA
ATOM     35  C   UNL     1      -9.159  -4.428  -0.577  0.00  0.00    +0.277 C 
ENDBRANCH  33   6
ENDBRANCH  19  23
ENDBRANCH  13   7
BRANCH  14   3
ATOM      3  O   UNL     1       3.297   0.521  -0.155  0.00  0.00    -0.442 OA
BRANCH   3  18
ATOM      4  O   UNL     1       4.777   0.704  -1.889  0.00  0.00    -0.226 OA
ATOM     10  N   UNL     1       5.387  -0.270   0.151  0.00  0.00    -0.251 N 
ATOM     18  C   UNL     1       4.532   0.346  -0.743  0.00  0.00    +0.405 C 
ATOM     37  H   UNL     1       4.998  -0.492   1.065  0.00  0.00    +0.158 HD
BRANCH  10  22
ATOM     22  C   UNL     1       6.739  -0.632  -0.045  0.00  0.00    +0.040 A 
ATOM     24  C   UNL     1       7.451  -1.252   0.981  0.00  0.00    +0.069 A 
ATOM     25  C   UNL     1       7.361  -0.368  -1.266  0.00  0.00    +0.023 A 
ATOM     28  C   UNL     1       8.786  -1.609   0.786  0.00  0.00    +0.122 A 
ATOM     29  C   UNL     1       8.695  -0.725  -1.460  0.00  0.00    +0.005 A 
ATOM     32  C   UNL     1       9.407  -1.346  -0.434  0.00  0.00    +0.046 A 
BRANCH  28   5
ATOM      5  O   UNL     1       9.481  -2.215   1.787  0.00  0.00    -0.495 OA
ATOM     34  C   UNL     1      10.841  -2.553   1.521  0.00  0.00    +0.277 C 
ENDBRANCH  28   5
ENDBRANCH  10  22
ENDBRANCH   3  18
ENDBRANCH  14   3
TORSDOF 7
