REMARK  Name = 75536719
REMARK  9 active torsions:
REMARK  status: ('A' for Active; 'I' for Inactive)
REMARK    1  A    between atoms: S_1  and  N_8
REMARK    2  A    between atoms: S_1  and  C_16
REMARK    3  A    between atoms: O_4  and  C_10
REMARK    4  A    between atoms: N_7  and  C_9
REMARK    5  A    between atoms: N_7  and  C_14
REMARK    6  A    between atoms: N_8  and  C_13
REMARK    7  A    between atoms: C_11  and  C_13
REMARK    8  A    between atoms: C_14  and  C_15
REMARK    9  A    between atoms: C_25  and  C_27
REMARK                            x       y       z     vdW  Elec       q    Type
REMARK                         _______ _______ _______ _____ _____    ______ ____
ROOT
ATOM      3  O   UNL     1       0.015  -1.419   1.388  0.00  0.00    -0.371 OA
ATOM      9  C   UNL     1      -1.915  -1.226   0.018  0.00  0.00    +0.111 C 
ATOM     10  C   UNL     1      -0.687  -0.890  -0.808  0.00  0.00    +0.164 C 
ATOM     11  C   UNL     1       0.409  -1.557   0.013  0.00  0.00    +0.164 C 
ATOM     12  C   UNL     1      -1.380  -1.070   1.431  0.00  0.00    +0.181 C 
ENDROOT
BRANCH  10   4
ATOM      4  O   UNL     1      -0.753  -1.410  -2.121  0.00  0.00    -0.388 OA
ATOM     30  H   UNL     1      -0.889  -2.371  -2.063  0.00  0.00    +0.210 HD
ENDBRANCH  10   4
BRANCH   9   7
ATOM      7  N   UNL     1      -3.054  -0.364  -0.255  0.00  0.00    -0.305 NA
ATOM     28  H   UNL     1      -3.162  -0.264  -1.264  0.00  0.00    +0.123 HD
BRANCH   7  14
ATOM     14  C   UNL     1      -4.282  -0.926   0.297  0.00  0.00    +0.119 C 
BRANCH  14  15
ATOM      2  F   UNL     1      -4.784   1.451   1.756  0.00  0.00    -0.205 F 
ATOM     15  C   UNL     1      -5.470  -0.038   0.039  0.00  0.00    +0.002 A 
ATOM     17  C   UNL     1      -5.657   1.119   0.794  0.00  0.00    +0.128 A 
ATOM     18  C   UNL     1      -6.385  -0.376  -0.958  0.00  0.00    +0.008 A 
ATOM     21  C   UNL     1      -6.760   1.939   0.553  0.00  0.00    +0.038 A 
ATOM     22  C   UNL     1      -7.488   0.443  -1.199  0.00  0.00    +0.000 A 
ATOM     26  C   UNL     1      -7.675   1.601  -0.443  0.00  0.00    +0.003 A 
ENDBRANCH  14  15
ENDBRANCH   7  14
ENDBRANCH   9   7
BRANCH  11  13
ATOM     13  C   UNL     1       1.778  -0.934  -0.194  0.00  0.00    +0.140 C 
BRANCH  13   8
ATOM      8  N   UNL     1       2.774  -1.639   0.636  0.00  0.00    -0.187 NA
ATOM     29  H   UNL     1       2.586  -1.649   1.646  0.00  0.00    +0.148 HD
BRANCH   8   1
ATOM      1  S   UNL     1       4.387  -1.762   0.111  0.00  0.00    +0.058 S 
ATOM      5  O   UNL     1       4.417  -2.334  -1.221  0.00  0.00    -0.153 OA
ATOM      6  O   UNL     1       5.186  -2.343   1.173  0.00  0.00    -0.153 OA
BRANCH   1  16
ATOM     16  C   UNL     1       4.856  -0.062  -0.016  0.00  0.00    +0.105 A 
ATOM     19  C   UNL     1       5.413   0.592   1.083  0.00  0.00    +0.029 A 
ATOM     20  C   UNL     1       4.666   0.627  -1.214  0.00  0.00    +0.029 A 
ATOM     23  C   UNL     1       5.780   1.933   0.984  0.00  0.00    +0.005 A 
ATOM     24  C   UNL     1       5.033   1.969  -1.313  0.00  0.00    +0.005 A 
ATOM     25  C   UNL     1       5.591   2.622  -0.214  0.00  0.00    -0.050 A 
ATOM     27  C   UNL     1       5.983   4.057  -0.320  0.00  0.00    +0.044 C 
ENDBRANCH   1  16
ENDBRANCH   8   1
ENDBRANCH  13   8
ENDBRANCH  11  13
TORSDOF 8
