REMARK  Name = 28962283
REMARK  11 active torsions:
REMARK  status: ('A' for Active; 'I' for Inactive)
REMARK    1  A    between atoms: O_3  and  C_12
REMARK    2  A    between atoms: O_4  and  C_15
REMARK    3  A    between atoms: N_6  and  C_10
REMARK    4  A    between atoms: N_6  and  C_16
REMARK    5  A    between atoms: N_6  and  C_17
REMARK    6  A    between atoms: N_7  and  C_14
REMARK    7  A    between atoms: N_8  and  C_23
REMARK    8  A    between atoms: C_11  and  C_14
REMARK    9  A    between atoms: C_13  and  C_15
REMARK   10  A    between atoms: C_16  and  C_18
REMARK   11  A    between atoms: C_18  and  C_19
REMARK                            x       y       z     vdW  Elec       q    Type
REMARK                         _______ _______ _______ _____ _____    ______ ____
ROOT
ATOM      2  O   UNL     1       1.153   3.064  -0.614  0.00  0.00    -0.365 OA
ATOM     10  C   UNL     1       2.936   1.489  -0.537  0.00  0.00    +0.118 C 
ATOM     11  C   UNL     1       1.415   1.655  -0.432  0.00  0.00    +0.155 C 
ATOM     12  C   UNL     1       3.459   2.856  -0.122  0.00  0.00    +0.165 C 
ATOM     13  C   UNL     1       2.406   3.762  -0.750  0.00  0.00    +0.174 C 
ENDROOT
BRANCH  12   3
ATOM      3  O   UNL     1       3.463   3.005   1.292  0.00  0.00    -0.388 OA
ATOM     31  H   UNL     1       3.903   3.848   1.497  0.00  0.00    +0.210 HD
ENDBRANCH  12   3
BRANCH  10   6
ATOM      6  N   UNL     1       3.510   0.363   0.179  0.00  0.00    -0.297 NA
ATOM     17  C   UNL     1       4.963   0.308  -0.014  0.00  0.00    +0.105 C 
BRANCH   6  16
ATOM     16  C   UNL     1       2.898  -0.897  -0.254  0.00  0.00    +0.090 C 
BRANCH  16  18
ATOM     18  C   UNL     1       3.149  -2.007   0.767  0.00  0.00    +0.071 C 
BRANCH  18  19
ATOM      9  N   UNL     1       3.329  -4.126  -0.418  0.00  0.00    -0.260 NA
ATOM     19  C   UNL     1       2.543  -3.315   0.324  0.00  0.00    +0.042 A 
ATOM     21  C   UNL     1       1.241  -3.617   0.690  0.00  0.00    +0.023 A 
ATOM     22  C   UNL     1       0.712  -4.832   0.267  0.00  0.00    +0.003 A 
ATOM     24  C   UNL     1       2.780  -5.298  -0.812  0.00  0.00    +0.111 A 
ATOM     25  C   UNL     1       1.490  -5.693  -0.499  0.00  0.00    +0.020 A 
ENDBRANCH  18  19
ENDBRANCH  16  18
ENDBRANCH   6  16
ENDBRANCH  10   6
BRANCH  11  14
ATOM     14  C   UNL     1       0.772   1.243   0.887  0.00  0.00    +0.139 C 
BRANCH  14   7
ATOM      5  O   UNL     1      -1.216  -0.639   0.042  0.00  0.00    -0.253 OA
ATOM      7  N   UNL     1      -0.645   1.450   0.857  0.00  0.00    -0.297 N 
ATOM      8  N   UNL     1      -2.872   0.959   0.508  0.00  0.00    -0.269 N 
ATOM     20  C   UNL     1      -1.563   0.475   0.428  0.00  0.00    +0.304 C 
ATOM     32  H   UNL     1      -1.004   2.353   1.150  0.00  0.00    +0.150 HD
ATOM     34  H   UNL     1      -2.986   1.910   0.850  0.00  0.00    +0.156 HD
BRANCH   8  23
ATOM      1 CL   UNL     1      -7.993   1.060   0.158  0.00  0.00    -0.083 Cl
ATOM     23  C   UNL     1      -4.068   0.286   0.169  0.00  0.00    +0.036 A 
ATOM     26  C   UNL     1      -5.297   0.930   0.314  0.00  0.00    +0.043 A 
ATOM     27  C   UNL     1      -4.019  -1.023  -0.310  0.00  0.00    +0.023 A 
ATOM     28  C   UNL     1      -6.477   0.265  -0.021  0.00  0.00    +0.043 A 
ATOM     29  C   UNL     1      -5.199  -1.688  -0.644  0.00  0.00    +0.003 A 
ATOM     30  C   UNL     1      -6.428  -1.044  -0.500  0.00  0.00    +0.020 A 
ENDBRANCH   8  23
ENDBRANCH  14   7
ENDBRANCH  11  14
BRANCH  13  15
ATOM     15  C   UNL     1       2.280   5.142  -0.131  0.00  0.00    +0.190 C 
BRANCH  15   4
ATOM      4  O   UNL     1       1.276   5.865  -0.824  0.00  0.00    -0.392 OA
ATOM     33  H   UNL     1       1.219   6.744  -0.411  0.00  0.00    +0.210 HD
ENDBRANCH  15   4
ENDBRANCH  13  15
TORSDOF 10
