REMARK  Name = 7142693
REMARK  5 active torsions:
REMARK  status: ('A' for Active; 'I' for Inactive)
REMARK    1  A    between atoms: O_5  and  C_28
REMARK    2  A    between atoms: O_5  and  C_30
REMARK    3  A    between atoms: N_8  and  C_20
REMARK    4  A    between atoms: N_9  and  C_29
REMARK    5  A    between atoms: C_19  and  C_22
REMARK                            x       y       z     vdW  Elec       q    Type
REMARK                         _______ _______ _______ _____ _____    ______ ____
ROOT
ATOM      2  O   UNL     1      -0.418   3.127   1.364  0.00  0.00    -0.266 OA
ATOM      3  O   UNL     1      -3.783  -0.603   2.604  0.00  0.00    -0.270 OA
ATOM      6  N   UNL     1      -4.333   0.168   0.464  0.00  0.00    -0.297 N 
ATOM      7  N   UNL     1      -2.036   2.282  -0.095  0.00  0.00    -0.310 N 
ATOM     10  C   UNL     1      -4.546   2.639   0.266  0.00  0.00    +0.027 C 
ATOM     11  C   UNL     1      -3.761   1.321  -1.659  0.00  0.00    +0.054 C 
ATOM     12  C   UNL     1      -4.639   2.502  -1.250  0.00  0.00    +0.018 C 
ATOM     13  C   UNL     1      -5.038   1.352   0.953  0.00  0.00    +0.113 C 
ATOM     14  C   UNL     1      -3.099   2.978   0.643  0.00  0.00    +0.130 C 
ATOM     15  C   UNL     1      -4.289   0.031  -1.001  0.00  0.00    +0.117 C 
ATOM     16  C   UNL     1      -2.317   1.548  -1.252  0.00  0.00    +0.027 A 
ATOM     17  C   UNL     1      -1.318   1.017  -1.976  0.00  0.00    +0.024 A 
ATOM     18  C   UNL     1      -0.716   2.475   0.362  0.00  0.00    +0.273 A 
ATOM     19  C   UNL     1      -3.750  -0.712   1.379  0.00  0.00    +0.247 C 
ATOM     20  C   UNL     1       0.366   1.844  -0.457  0.00  0.00    +0.100 A 
ATOM     21  C   UNL     1       0.050   1.169  -1.567  0.00  0.00    +0.030 A 
ENDROOT
BRANCH  20   8
ATOM      4  O   UNL     1       2.493   0.007  -0.895  0.00  0.00    -0.252 OA
ATOM      8  N   UNL     1       1.655   1.992  -0.037  0.00  0.00    -0.265 N 
ATOM      9  N   UNL     1       3.874   1.498   0.278  0.00  0.00    -0.269 N 
ATOM     25  C   UNL     1       2.670   1.056  -0.279  0.00  0.00    +0.308 C 
ATOM     36  H   UNL     1       1.827   2.685   0.686  0.00  0.00    +0.157 HD
ATOM     37  H   UNL     1       3.852   2.396   0.756  0.00  0.00    +0.156 HD
BRANCH   9  29
ATOM      1 CL   UNL     1       9.123  -1.208   0.187  0.00  0.00    -0.084 Cl
ATOM     29  C   UNL     1       5.131   0.850   0.257  0.00  0.00    +0.035 A 
ATOM     31  C   UNL     1       6.216   1.454   0.870  0.00  0.00    +0.025 A 
ATOM     32  C   UNL     1       5.252  -0.376  -0.377  0.00  0.00    +0.025 A 
ATOM     33  C   UNL     1       7.456   0.815   0.849  0.00  0.00    +0.022 A 
ATOM     34  C   UNL     1       6.491  -1.015  -0.399  0.00  0.00    +0.022 A 
ATOM     35  C   UNL     1       7.594  -0.419   0.214  0.00  0.00    +0.041 A 
ENDBRANCH   9  29
ENDBRANCH  20   8
BRANCH  19  22
ATOM     22  C   UNL     1      -3.012  -1.863   0.851  0.00  0.00    +0.037 A 
ATOM     23  C   UNL     1      -3.677  -3.064   0.616  0.00  0.00    +0.016 A 
ATOM     24  C   UNL     1      -1.649  -1.751   0.586  0.00  0.00    +0.016 A 
ATOM     26  C   UNL     1      -2.975  -4.160   0.113  0.00  0.00    +0.046 A 
ATOM     27  C   UNL     1      -0.947  -2.847   0.083  0.00  0.00    +0.046 A 
ATOM     28  C   UNL     1      -1.610  -4.051  -0.153  0.00  0.00    +0.120 A 
BRANCH  28   5
ATOM      5  O   UNL     1      -0.926  -5.120  -0.645  0.00  0.00    -0.495 OA
ATOM     30  C   UNL     1       0.467  -4.939  -0.897  0.00  0.00    +0.277 C 
ENDBRANCH  28   5
ENDBRANCH  19  22
TORSDOF 4
