REMARK  Name = 40467553
REMARK  6 active torsions:
REMARK  status: ('A' for Active; 'I' for Inactive)
REMARK    1  A    between atoms: S_1  and  N_7
REMARK    2  A    between atoms: S_1  and  C_26
REMARK    3  A    between atoms: N_5  and  C_14
REMARK    4  A    between atoms: N_7  and  C_24
REMARK    5  A    between atoms: C_14  and  C_15
REMARK    6  A    between atoms: C_31  and  C_32
REMARK                            x       y       z     vdW  Elec       q    Type
REMARK                         _______ _______ _______ _____ _____    ______ ____
ROOT
ATOM      2  O   UNL     1       0.037   2.656   1.716  0.00  0.00    -0.266 OA
ATOM      5  N   UNL     1      -3.732  -0.189   0.016  0.00  0.00    -0.301 NA
ATOM      6  N   UNL     1      -1.563   2.148   0.081  0.00  0.00    -0.310 N 
ATOM      8  C   UNL     1      -4.087   2.244   0.509  0.00  0.00    +0.024 C 
ATOM      9  C   UNL     1      -3.254   1.569  -1.694  0.00  0.00    +0.050 C 
ATOM     10  C   UNL     1      -4.178   2.552  -0.980  0.00  0.00    +0.017 C 
ATOM     11  C   UNL     1      -4.524   0.787   0.775  0.00  0.00    +0.089 C 
ATOM     12  C   UNL     1      -3.728   0.123  -1.421  0.00  0.00    +0.094 C 
ATOM     13  C   UNL     1      -2.656   2.526   0.987  0.00  0.00    +0.130 C 
ATOM     16  C   UNL     1      -1.817   1.752  -1.239  0.00  0.00    +0.026 A 
ATOM     22  C   UNL     1      -0.801   1.516  -2.088  0.00  0.00    +0.024 A 
ATOM     23  C   UNL     1      -0.250   2.298   0.574  0.00  0.00    +0.274 A 
ATOM     24  C   UNL     1       0.829   2.002  -0.402  0.00  0.00    +0.112 A 
ATOM     25  C   UNL     1       0.566   1.643  -1.660  0.00  0.00    +0.031 A 
ENDROOT
BRANCH  24   7
ATOM      7  N   UNL     1       2.178   2.111  -0.022  0.00  0.00    -0.211 N 
ATOM     33  H   UNL     1       2.818   2.157  -0.827  0.00  0.00    +0.174 HD
BRANCH   7   1
ATOM      1  S   UNL     1       2.704   1.117   1.243  0.00  0.00    +0.072 S 
ATOM      3  O   UNL     1       3.343   1.924   2.265  0.00  0.00    -0.150 OA
ATOM      4  O   UNL     1       1.653   0.183   1.600  0.00  0.00    -0.150 OA
BRANCH   1  26
ATOM     26  C   UNL     1       3.975   0.195   0.428  0.00  0.00    +0.109 A 
ATOM     27  C   UNL     1       5.287   0.667   0.427  0.00  0.00    +0.029 A 
ATOM     28  C   UNL     1       3.665  -1.005  -0.213  0.00  0.00    +0.029 A 
ATOM     29  C   UNL     1       6.290  -0.059  -0.216  0.00  0.00    +0.005 A 
ATOM     30  C   UNL     1       4.667  -1.731  -0.856  0.00  0.00    +0.005 A 
ATOM     31  C   UNL     1       5.980  -1.258  -0.857  0.00  0.00    -0.050 A 
ATOM     32  C   UNL     1       7.052  -2.035  -1.544  0.00  0.00    +0.044 C 
ENDBRANCH   1  26
ENDBRANCH   7   1
ENDBRANCH  24   7
BRANCH   5  14
ATOM     14  C   UNL     1      -4.208  -1.549   0.255  0.00  0.00    +0.088 C 
BRANCH  14  15
ATOM     15  C   UNL     1      -3.114  -2.575  -0.032  0.00  0.00    +0.003 C 
ATOM     17  C   UNL     1      -1.906  -2.350   0.887  0.00  0.00    +0.005 C 
ATOM     18  C   UNL     1      -3.657  -4.003   0.118  0.00  0.00    +0.005 C 
ATOM     19  C   UNL     1      -0.819  -3.398   0.656  0.00  0.00    +0.000 C 
ATOM     20  C   UNL     1      -2.567  -5.047  -0.112  0.00  0.00    +0.000 C 
ATOM     21  C   UNL     1      -1.364  -4.816   0.798  0.00  0.00    +0.000 C 
ENDBRANCH  14  15
ENDBRANCH   5  14
TORSDOF 5
