REMARK  Name = 45783377
REMARK  8 active torsions:
REMARK  status: ('A' for Active; 'I' for Inactive)
REMARK    1  A    between atoms: O_4  and  C_29
REMARK    2  A    between atoms: O_4  and  C_30
REMARK    3  A    between atoms: N_5  and  C_14
REMARK    4  A    between atoms: N_8  and  C_26
REMARK    5  A    between atoms: C_10  and  C_15
REMARK    6  A    between atoms: C_14  and  C_16
REMARK    7  A    between atoms: C_17  and  C_20
REMARK    8  A    between atoms: C_26  and  C_29
REMARK                            x       y       z     vdW  Elec       q    Type
REMARK                         _______ _______ _______ _____ _____    ______ ____
ROOT
ATOM      3  O   UNL     1      -0.648  -0.239  -2.709  0.00  0.00    -0.336 OA
ATOM      6  N   UNL     1       0.070   1.036  -1.013  0.00  0.00    -0.190 NA
ATOM      7  N   UNL     1       0.735  -0.446  -2.625  0.00  0.00    -0.056 NA
ATOM     15  C   UNL     1      -0.957   0.646  -1.725  0.00  0.00    +0.245 A 
ATOM     17  C   UNL     1       1.085   0.339  -1.601  0.00  0.00    +0.205 A 
ENDROOT
BRANCH  17  20
ATOM      8  N   UNL     1       1.714   0.896   1.112  0.00  0.00    -0.326 N 
ATOM      9  N   UNL     1       4.031   0.834   0.635  0.00  0.00    -0.240 NA
ATOM     20  C   UNL     1       2.440   0.451  -1.144  0.00  0.00    +0.062 A 
ATOM     24  C   UNL     1       2.765   0.722   0.175  0.00  0.00    +0.130 A 
ATOM     25  C   UNL     1       3.482   0.284  -2.050  0.00  0.00    +0.016 A 
ATOM     27  C   UNL     1       4.798   0.391  -1.614  0.00  0.00    +0.020 A 
ATOM     28  C   UNL     1       5.018   0.665  -0.274  0.00  0.00    +0.113 A 
ATOM     31  H   UNL     1       0.826   0.471   0.871  0.00  0.00    +0.148 HD
BRANCH   8  26
ATOM     26  C   UNL     1       1.951   1.177   2.490  0.00  0.00    +0.131 C 
BRANCH  26  29
ATOM     29  C   UNL     1       0.630   1.273   3.235  0.00  0.00    +0.178 C 
BRANCH  29   4
ATOM      4  O   UNL     1      -0.142   2.338   2.696  0.00  0.00    -0.381 OA
ATOM     30  C   UNL     1      -1.387   2.470   3.367  0.00  0.00    +0.194 C 
ENDBRANCH  29   4
ENDBRANCH  26  29
ENDBRANCH   8  26
ENDBRANCH  17  20
BRANCH  15  10
ATOM      5  N   UNL     1      -2.969   0.756  -0.265  0.00  0.00    -0.287 NA
ATOM     10  C   UNL     1      -2.414   1.039  -1.604  0.00  0.00    +0.146 C 
ATOM     11  C   UNL     1      -2.642   2.548  -1.811  0.00  0.00    +0.030 C 
ATOM     12  C   UNL     1      -3.384   3.013  -0.566  0.00  0.00    +0.017 C 
ATOM     13  C   UNL     1      -4.023   1.744  -0.037  0.00  0.00    +0.085 C 
BRANCH   5  14
ATOM     14  C   UNL     1      -3.457  -0.610  -0.122  0.00  0.00    +0.120 C 
BRANCH  14  16
ATOM      1  F   UNL     1       0.337  -2.166   2.523  0.00  0.00    -0.202 F 
ATOM      2  F   UNL     1       0.741  -4.253   0.803  0.00  0.00    -0.202 F 
ATOM     16  C   UNL     1      -2.335  -1.583   0.125  0.00  0.00    -0.030 A 
ATOM     18  C   UNL     1      -1.502  -1.420   1.231  0.00  0.00    +0.046 A 
ATOM     19  C   UNL     1      -2.130  -2.648  -0.753  0.00  0.00    +0.008 A 
ATOM     21  C   UNL     1      -0.463  -2.322   1.461  0.00  0.00    +0.159 A 
ATOM     22  C   UNL     1      -1.090  -3.550  -0.523  0.00  0.00    +0.041 A 
ATOM     23  C   UNL     1      -0.257  -3.387   0.583  0.00  0.00    +0.158 A 
ENDBRANCH  14  16
ENDBRANCH   5  14
ENDBRANCH  15  10
TORSDOF 7
