REMARK  Name = 51136661
REMARK  7 active torsions:
REMARK  status: ('A' for Active; 'I' for Inactive)
REMARK    1  A    between atoms: O_2  and  C_18
REMARK    2  A    between atoms: O_5  and  C_30
REMARK    3  A    between atoms: O_5  and  C_31
REMARK    4  A    between atoms: C_9  and  C_14
REMARK    5  A    between atoms: C_10  and  C_15
REMARK    6  A    between atoms: C_14  and  C_16
REMARK    7  A    between atoms: C_15  and  C_18
REMARK                            x       y       z     vdW  Elec       q    Type
REMARK                         _______ _______ _______ _____ _____    ______ ____
ROOT
ATOM      1  O   UNL     1       0.038  -2.413   1.702  0.00  0.00    -0.252 OA
ATOM      3  O   UNL     1       3.454  -3.623  -1.172  0.00  0.00    -0.377 OA
ATOM      6  N   UNL     1      -1.125  -1.882  -0.215  0.00  0.00    -0.285 N 
ATOM      7  N   UNL     1       1.252  -2.138  -0.235  0.00  0.00    -0.281 N 
ATOM      9  C   UNL     1      -2.187   0.333  -0.610  0.00  0.00    +0.016 C 
ATOM     10  C   UNL     1      -3.534  -0.273  -0.137  0.00  0.00    +0.006 C 
ATOM     11  C   UNL     1      -3.315  -1.449   0.829  0.00  0.00    +0.023 C 
ATOM     12  C   UNL     1      -1.273  -0.776  -1.173  0.00  0.00    +0.113 C 
ATOM     13  C   UNL     1      -2.383  -2.488   0.215  0.00  0.00    +0.109 C 
ATOM     17  C   UNL     1       0.055  -2.159   0.491  0.00  0.00    +0.305 C 
ATOM     20  C   UNL     1       2.535  -2.100   0.465  0.00  0.00    +0.137 C 
ATOM     21  C   UNL     1       1.366  -2.473  -1.661  0.00  0.00    +0.137 C 
ATOM     25  C   UNL     1       3.294  -3.398   0.233  0.00  0.00    +0.179 C 
ATOM     26  C   UNL     1       2.186  -3.751  -1.823  0.00  0.00    +0.179 C 
ENDROOT
BRANCH   9  14
ATOM     14  C   UNL     1      -1.452   1.131   0.475  0.00  0.00    +0.061 C 
BRANCH  14  16
ATOM      8  N   UNL     1      -0.930   2.962  -0.989  0.00  0.00    -0.287 NA
ATOM     16  C   UNL     1      -0.468   2.080  -0.166  0.00  0.00    +0.044 C 
ATOM     19  C   UNL     1       0.973   1.951   0.171  0.00  0.00    -0.001 A 
ATOM     22  C   UNL     1       1.882   2.559  -0.704  0.00  0.00    -0.033 A 
ATOM     23  C   UNL     1       1.352   3.276  -1.910  0.00  0.00    +0.059 C 
ATOM     24  C   UNL     1       0.017   3.922  -1.565  0.00  0.00    +0.146 C 
ATOM     27  C   UNL     1       1.427   1.251   1.290  0.00  0.00    +0.013 A 
ATOM     28  C   UNL     1       3.254   2.441  -0.465  0.00  0.00    +0.050 A 
ATOM     29  C   UNL     1       2.798   1.152   1.529  0.00  0.00    +0.046 A 
ATOM     30  C   UNL     1       3.710   1.742   0.653  0.00  0.00    +0.120 A 
BRANCH  30   5
ATOM      5  O   UNL     1       5.046   1.633   0.888  0.00  0.00    -0.495 OA
ATOM     31  C   UNL     1       5.444   0.903   2.048  0.00  0.00    +0.277 C 
ENDBRANCH  30   5
ENDBRANCH  14  16
ENDBRANCH   9  14
BRANCH  10  15
ATOM     15  C   UNL     1      -4.475   0.762   0.478  0.00  0.00    +0.124 C 
BRANCH  15  18
ATOM      4  O   UNL     1      -6.322  -0.743  -0.038  0.00  0.00    -0.251 OA
ATOM     18  C   UNL     1      -5.909   0.310   0.424  0.00  0.00    +0.305 C 
BRANCH  18   2
ATOM      2  O   UNL     1      -6.709   1.259   0.975  0.00  0.00    -0.481 OA
ATOM     32  H   UNL     1      -7.654   0.996   0.956  0.00  0.00    +0.295 HD
ENDBRANCH  18   2
ENDBRANCH  15  18
ENDBRANCH  10  15
TORSDOF 6
