REMARK  Name = 45783975
REMARK  13 active torsions:
REMARK  status: ('A' for Active; 'I' for Inactive)
REMARK    1  A    between atoms: N_2  and  C_12
REMARK    2  A    between atoms: N_3  and  C_24
REMARK    3  A    between atoms: N_6  and  C_31
REMARK    4  A    between atoms: N_6  and  C_32
REMARK    5  A    between atoms: N_6  and  C_33
REMARK    6  A    between atoms: C_7  and  C_11
REMARK    7  A    between atoms: C_8  and  C_12
REMARK    8  A    between atoms: C_10  and  C_15
REMARK    9  A    between atoms: C_11  and  C_16
REMARK   10  A    between atoms: C_11  and  C_17
REMARK   11  A    between atoms: C_14  and  C_20
REMARK   12  A    between atoms: C_15  and  C_23
REMARK   13  A    between atoms: C_25  and  C_26
REMARK                            x       y       z     vdW  Elec       q    Type
REMARK                         _______ _______ _______ _____ _____    ______ ____
ROOT
ATOM      7  C   UNL     1       2.560  -0.140   0.757  0.00  0.00    +0.000 C 
ATOM      8  C   UNL     1       3.456  -1.381   0.538  0.00  0.00    +0.029 C 
ATOM      9  C   UNL     1       1.503  -0.038  -0.352  0.00  0.00    +0.012 C 
ATOM     10  C   UNL     1       0.617  -1.297  -0.469  0.00  0.00    +0.024 C 
ATOM     13  C   UNL     1       2.666  -2.607   0.158  0.00  0.00    -0.023 C 
ATOM     14  C   UNL     1       1.394  -2.591  -0.282  0.00  0.00    -0.073 C 
ATOM     20  C   UNL     1       0.669  -3.882  -0.551  0.00  0.00    +0.039 C 
ENDROOT
BRANCH   7  11
ATOM     11  C   UNL     1       1.908  -0.159   2.146  0.00  0.00    -0.013 C 
ATOM     16  C   UNL     1       0.721   0.799   2.189  0.00  0.00    +0.007 C 
ATOM     17  C   UNL     1       2.931   0.199   3.219  0.00  0.00    +0.007 C 
ENDBRANCH   7  11
BRANCH   8  12
ATOM     12  C   UNL     1       4.529  -1.124  -0.525  0.00  0.00    +0.092 C 
BRANCH  12   2
ATOM      2  N   UNL     1       5.332   0.046  -0.176  0.00  0.00    -0.299 NA
ATOM      3  N   UNL     1       7.826   1.497   0.009  0.00  0.00    -0.303 NA
ATOM     18  C   UNL     1       5.975   0.613  -1.368  0.00  0.00    +0.100 C 
ATOM     19  C   UNL     1       6.340  -0.296   0.835  0.00  0.00    +0.100 C 
ATOM     21  C   UNL     1       6.818   1.839  -1.002  0.00  0.00    +0.099 C 
ATOM     22  C   UNL     1       7.185   0.929   1.201  0.00  0.00    +0.099 C 
ATOM     24  C   UNL     1       8.628   2.668   0.359  0.00  0.00    +0.105 C 
ENDBRANCH  12   2
ENDBRANCH   8  12
BRANCH  10  15
ATOM     15  C   UNL     1      -0.137  -1.242  -1.804  0.00  0.00    +0.105 C 
BRANCH  15  23
ATOM      1  O   UNL     1      -2.377  -0.583  -1.094  0.00  0.00    -0.420 OA
ATOM      4  N   UNL     1      -1.302   0.970  -2.292  0.00  0.00    -0.112 NA
ATOM      5  N   UNL     1      -2.546   1.473  -1.960  0.00  0.00    -0.107 NA
ATOM     23  C   UNL     1      -1.247  -0.231  -1.766  0.00  0.00    +0.218 A 
ATOM     25  C   UNL     1      -3.139   0.533  -1.262  0.00  0.00    +0.248 A 
BRANCH  25  26
ATOM     26  C   UNL     1      -4.439   0.501  -0.659  0.00  0.00    +0.039 A 
ATOM     27  C   UNL     1      -5.290   1.600  -0.778  0.00  0.00    +0.015 A 
ATOM     28  C   UNL     1      -4.854  -0.629   0.046  0.00  0.00    +0.015 A 
ATOM     29  C   UNL     1      -6.556   1.569  -0.192  0.00  0.00    +0.024 A 
ATOM     30  C   UNL     1      -6.119  -0.661   0.632  0.00  0.00    +0.024 A 
ATOM     31  C   UNL     1      -6.970   0.438   0.513  0.00  0.00    +0.029 A 
BRANCH  31   6
ATOM      6  N   UNL     1      -8.249   0.407   1.107  0.00  0.00    -0.336 N 
ATOM     32  C   UNL     1      -9.140   1.544   0.990  0.00  0.00    +0.129 C 
ATOM     33  C   UNL     1      -8.692  -0.765   1.835  0.00  0.00    +0.129 C 
ENDBRANCH  31   6
ENDBRANCH  25  26
ENDBRANCH  15  23
ENDBRANCH  10  15
TORSDOF 7
