REMARK  Name = 7134443
REMARK  13 active torsions:
REMARK  status: ('A' for Active; 'I' for Inactive)
REMARK    1  A    between atoms: O_4  and  C_15
REMARK    2  A    between atoms: O_5  and  C_16
REMARK    3  A    between atoms: O_9  and  C_32
REMARK    4  A    between atoms: O_9  and  C_38
REMARK    5  A    between atoms: O_10  and  C_37
REMARK    6  A    between atoms: O_10  and  C_39
REMARK    7  A    between atoms: N_11  and  C_17
REMARK    8  A    between atoms: N_12  and  C_22
REMARK    9  A    between atoms: N_13  and  C_29
REMARK   10  A    between atoms: C_19  and  C_21
REMARK   11  A    between atoms: C_22  and  C_24
REMARK   12  A    between atoms: C_22  and  C_26
REMARK   13  A    between atoms: C_24  and  C_25
REMARK                            x       y       z     vdW  Elec       q    Type
REMARK                         _______ _______ _______ _____ _____    ______ ____
ROOT
ATOM     15  C   UNL     1       2.245   4.096   0.011  0.00  0.00    +0.167 C 
ATOM     16  C   UNL     1       3.748   4.018  -0.288  0.00  0.00    +0.149 C 
ATOM     17  C   UNL     1       1.532   2.773  -0.329  0.00  0.00    +0.129 C 
ATOM     18  C   UNL     1       4.424   2.845   0.443  0.00  0.00    +0.074 C 
ATOM     19  C   UNL     1       3.579   1.604   0.487  0.00  0.00    +0.015 C 
ATOM     20  C   UNL     1       2.285   1.555   0.136  0.00  0.00    +0.006 C 
ENDROOT
BRANCH  17  11
ATOM      7  O   UNL     1      -0.730   1.411  -1.439  0.00  0.00    -0.252 OA
ATOM     11  N   UNL     1       0.198   2.732   0.216  0.00  0.00    -0.290 N 
ATOM     13  N   UNL     1      -2.027   2.179   0.361  0.00  0.00    -0.269 N 
ATOM     23  C   UNL     1      -0.857   2.040  -0.391  0.00  0.00    +0.304 C 
ATOM     40  H   UNL     1       0.035   3.159   1.124  0.00  0.00    +0.151 HD
ATOM     44  H   UNL     1      -1.961   2.738   1.208  0.00  0.00    +0.156 HD
BRANCH  13  29
ATOM     29  C   UNL     1      -3.304   1.635   0.088  0.00  0.00    +0.035 A 
ATOM     33  C   UNL     1      -4.367   1.881   0.957  0.00  0.00    +0.027 A 
ATOM     34  C   UNL     1      -3.500   0.854  -1.050  0.00  0.00    +0.027 A 
ATOM     35  C   UNL     1      -5.626   1.345   0.688  0.00  0.00    +0.048 A 
ATOM     36  C   UNL     1      -4.759   0.318  -1.320  0.00  0.00    +0.048 A 
ATOM     37  C   UNL     1      -5.822   0.564  -0.451  0.00  0.00    +0.130 A 
BRANCH  37  10
ATOM     10  O   UNL     1      -7.052   0.043  -0.715  0.00  0.00    -0.406 OA
BRANCH  10  39
ATOM      1  F   UNL     1      -8.405  -1.737  -0.407  0.00  0.00    -0.133 F 
ATOM      2  F   UNL     1      -6.678  -1.518   0.914  0.00  0.00    -0.133 F 
ATOM      3  F   UNL     1      -8.414  -0.165   1.111  0.00  0.00    -0.133 F 
ATOM     39  C   UNL     1      -7.630  -0.838   0.241  0.00  0.00    +0.575 C 
ENDBRANCH  10  39
ENDBRANCH  37  10
ENDBRANCH  13  29
ENDBRANCH  17  11
BRANCH  19  21
ATOM      6  O   UNL     1       4.699   0.250   2.046  0.00  0.00    -0.271 OA
ATOM     12  N   UNL     1       4.183  -0.631  -0.050  0.00  0.00    -0.300 N 
ATOM     21  C   UNL     1       4.210   0.354   0.922  0.00  0.00    +0.241 C 
ATOM     43  H   UNL     1       3.830  -0.403  -0.975  0.00  0.00    +0.150 HD
BRANCH  12  22
ATOM     22  C   UNL     1       4.745  -1.948   0.145  0.00  0.00    +0.163 C 
BRANCH  22  26
ATOM      8  O   UNL     1       6.657  -1.154  -1.128  0.00  0.00    -0.274 OA
ATOM     14  N   UNL     1       7.019  -2.636   0.590  0.00  0.00    -0.328 N 
ATOM     26  C   UNL     1       6.218  -1.865  -0.227  0.00  0.00    +0.231 C 
ATOM     45  H   UNL     1       8.025  -2.659   0.460  0.00  0.00    +0.145 HD
ATOM     46  H   UNL     1       6.644  -3.215   1.334  0.00  0.00    +0.145 HD
ENDBRANCH  22  26
BRANCH  22  24
ATOM     24  C   UNL     1       4.039  -3.011  -0.703  0.00  0.00    +0.067 C 
BRANCH  24  25
ATOM     25  C   UNL     1       2.565  -3.118  -0.397  0.00  0.00    -0.045 A 
ATOM     27  C   UNL     1       1.649  -2.337  -1.101  0.00  0.00    +0.007 A 
ATOM     28  C   UNL     1       2.119  -3.998   0.589  0.00  0.00    +0.007 A 
ATOM     30  C   UNL     1       0.286  -2.435  -0.819  0.00  0.00    +0.046 A 
ATOM     31  C   UNL     1       0.757  -4.096   0.871  0.00  0.00    +0.046 A 
ATOM     32  C   UNL     1      -0.160  -3.315   0.167  0.00  0.00    +0.120 A 
BRANCH  32   9
ATOM      9  O   UNL     1      -1.489  -3.411   0.443  0.00  0.00    -0.495 OA
ATOM     38  C   UNL     1      -2.371  -2.583  -0.314  0.00  0.00    +0.277 C 
ENDBRANCH  32   9
ENDBRANCH  24  25
ENDBRANCH  22  24
ENDBRANCH  12  22
ENDBRANCH  19  21
BRANCH  15   4
ATOM      4  O   UNL     1       2.068   4.393   1.398  0.00  0.00    -0.387 OA
ATOM     41  H   UNL     1       2.503   5.246   1.571  0.00  0.00    +0.210 HD
ENDBRANCH  15   4
BRANCH  16   5
ATOM      5  O   UNL     1       3.963   3.908  -1.694  0.00  0.00    -0.389 OA
ATOM     42  H   UNL     1       4.924   3.905  -1.845  0.00  0.00    +0.210 HD
ENDBRANCH  16   5
TORSDOF 12
