REMARK  Name = 75536380
REMARK  11 active torsions:
REMARK  status: ('A' for Active; 'I' for Inactive)
REMARK    1  A    between atoms: O_2  and  C_9
REMARK    2  A    between atoms: O_4  and  C_27
REMARK    3  A    between atoms: O_4  and  C_31
REMARK    4  A    between atoms: O_5  and  C_28
REMARK    5  A    between atoms: N_6  and  C_13
REMARK    6  A    between atoms: N_6  and  C_16
REMARK    7  A    between atoms: C_8  and  C_13
REMARK    8  A    between atoms: C_10  and  C_14
REMARK    9  A    between atoms: C_14  and  C_15
REMARK   10  A    between atoms: C_16  and  C_18
REMARK   11  A    between atoms: C_19  and  C_20
REMARK                            x       y       z     vdW  Elec       q    Type
REMARK                         _______ _______ _______ _____ _____    ______ ____
ROOT
ATOM      1  O   UNL     1       3.402  -0.075   0.909  0.00  0.00    -0.369 OA
ATOM      8  C   UNL     1       3.868   1.279   0.837  0.00  0.00    +0.161 C 
ATOM      9  C   UNL     1       5.388   1.336   0.636  0.00  0.00    +0.145 C 
ATOM     10  C   UNL     1       3.752  -0.898  -0.206  0.00  0.00    +0.125 C 
ATOM     11  C   UNL     1       5.857   0.438  -0.505  0.00  0.00    +0.036 C 
ATOM     12  C   UNL     1       5.269  -0.964  -0.373  0.00  0.00    +0.034 C 
ENDROOT
BRANCH   9   2
ATOM      2  O   UNL     1       6.028   0.891   1.834  0.00  0.00    -0.389 OA
ATOM     33  H   UNL     1       6.988   0.979   1.705  0.00  0.00    +0.210 HD
ENDBRANCH   9   2
BRANCH   8  13
ATOM     13  C   UNL     1       3.096   2.071  -0.215  0.00  0.00    +0.115 C 
BRANCH  13   6
ATOM      6  N   UNL     1       1.664   2.006   0.032  0.00  0.00    -0.309 NA
ATOM     32  H   UNL     1       1.415   1.059   0.321  0.00  0.00    +0.122 HD
BRANCH   6  16
ATOM     16  C   UNL     1       0.910   2.344  -1.168  0.00  0.00    +0.116 C 
BRANCH  16  18
ATOM     18  C   UNL     1      -0.576   2.295  -0.929  0.00  0.00    -0.033 A 
ATOM     21  C   UNL     1      -1.377   1.443  -1.689  0.00  0.00    +0.008 A 
ATOM     22  C   UNL     1      -1.151   3.102   0.053  0.00  0.00    +0.008 A 
ATOM     23  C   UNL     1      -2.753   1.397  -1.467  0.00  0.00    +0.046 A 
ATOM     24  C   UNL     1      -2.527   3.057   0.274  0.00  0.00    +0.046 A 
ATOM     27  C   UNL     1      -3.329   2.204  -0.485  0.00  0.00    +0.120 A 
BRANCH  27   4
ATOM      4  O   UNL     1      -4.671   2.159  -0.269  0.00  0.00    -0.495 OA
ATOM     31  C   UNL     1      -5.193   3.011   0.750  0.00  0.00    +0.277 C 
ENDBRANCH  27   4
ENDBRANCH  16  18
ENDBRANCH   6  16
ENDBRANCH  13   6
ENDBRANCH   8  13
BRANCH  10  14
ATOM     14  C   UNL     1       3.173  -2.285   0.048  0.00  0.00    +0.090 C 
BRANCH  14  15
ATOM      3  O   UNL     1      -0.123  -2.601  -1.377  0.00  0.00    -0.354 OA
ATOM      7  N   UNL     1       1.264  -2.649  -1.462  0.00  0.00    -0.083 NA
ATOM     15  C   UNL     1       1.696  -2.333  -0.238  0.00  0.00    +0.087 A 
ATOM     17  C   UNL     1       0.638  -2.079   0.652  0.00  0.00    +0.076 A 
ATOM     19  C   UNL     1      -0.483  -2.261  -0.113  0.00  0.00    +0.168 A 
BRANCH  19  20
ATOM     20  C   UNL     1      -1.893  -2.173   0.130  0.00  0.00    +0.023 A 
ATOM     25  C   UNL     1      -2.382  -1.290   1.092  0.00  0.00    +0.057 A 
ATOM     26  C   UNL     1      -2.776  -2.973  -0.596  0.00  0.00    +0.012 A 
ATOM     28  C   UNL     1      -3.754  -1.207   1.329  0.00  0.00    +0.118 A 
ATOM     29  C   UNL     1      -4.148  -2.890  -0.358  0.00  0.00    +0.004 A 
ATOM     30  C   UNL     1      -4.637  -2.006   0.604  0.00  0.00    +0.045 A 
BRANCH  28   5
ATOM      5  O   UNL     1      -4.231  -0.345   2.269  0.00  0.00    -0.507 OA
ATOM     34  H   UNL     1      -5.201  -0.412   2.295  0.00  0.00    +0.292 HD
ENDBRANCH  28   5
ENDBRANCH  19  20
ENDBRANCH  14  15
ENDBRANCH  10  14
TORSDOF 10
