REMARK  Name = 40777502
REMARK  6 active torsions:
REMARK  status: ('A' for Active; 'I' for Inactive)
REMARK    1  A    between atoms: N_5  and  C_21
REMARK    2  A    between atoms: C_7  and  C_11
REMARK    3  A    between atoms: C_8  and  C_13
REMARK    4  A    between atoms: C_11  and  C_14
REMARK    5  A    between atoms: C_13  and  C_15
REMARK    6  A    between atoms: C_22  and  C_25
REMARK                            x       y       z     vdW  Elec       q    Type
REMARK                         _______ _______ _______ _____ _____    ______ ____
ROOT
ATOM      3  N   UNL     1      -1.814   2.852   2.193  0.00  0.00    -0.316 NA
ATOM      7  C   UNL     1      -0.358   2.209  -0.291  0.00  0.00    +0.004 C 
ATOM      8  C   UNL     1      -1.748   1.617   0.040  0.00  0.00    +0.012 C 
ATOM      9  C   UNL     1      -0.183   3.535   0.468  0.00  0.00    +0.019 C 
ATOM     10  C   UNL     1      -1.988   1.545   1.558  0.00  0.00    +0.085 C 
ATOM     12  C   UNL     1      -0.477   3.395   1.961  0.00  0.00    +0.081 C 
ATOM     34  H   UNL     1      -1.972   2.762   3.197  0.00  0.00    +0.122 HD
ENDROOT
BRANCH   7  11
ATOM     11  C   UNL     1       0.810   1.258  -0.004  0.00  0.00    +0.100 C 
BRANCH  11  14
ATOM      1  O   UNL     1       1.955   2.649  -1.551  0.00  0.00    -0.276 OA
ATOM      4  N   UNL     1       3.172   0.902  -0.621  0.00  0.00    -0.298 N 
ATOM      5  N   UNL     1       5.666  -0.497  -0.167  0.00  0.00    -0.327 N 
ATOM     14  C   UNL     1       2.024   1.675  -0.798  0.00  0.00    +0.216 C 
ATOM     16  C   UNL     1       4.388   1.239  -1.357  0.00  0.00    +0.126 C 
ATOM     17  C   UNL     1       3.256  -0.248   0.283  0.00  0.00    +0.126 C 
ATOM     18  C   UNL     1       5.648   0.916  -0.558  0.00  0.00    +0.124 C 
ATOM     19  C   UNL     1       4.388  -1.208  -0.084  0.00  0.00    +0.124 C 
BRANCH   5  21
ATOM     21  C   UNL     1       6.870  -1.151   0.082  0.00  0.00    +0.030 A 
ATOM     23  C   UNL     1       7.962  -0.437   0.576  0.00  0.00    +0.023 A 
ATOM     24  C   UNL     1       6.984  -2.519  -0.161  0.00  0.00    +0.023 A 
ATOM     26  C   UNL     1       9.168  -1.091   0.825  0.00  0.00    +0.002 A 
ATOM     27  C   UNL     1       8.190  -3.174   0.088  0.00  0.00    +0.002 A 
ATOM     28  C   UNL     1       9.282  -2.460   0.582  0.00  0.00    +0.000 A 
ENDBRANCH   5  21
ENDBRANCH  11  14
ENDBRANCH   7  11
BRANCH   8  13
ATOM     13  C   UNL     1      -1.987   0.252  -0.607  0.00  0.00    +0.064 C 
BRANCH  13  15
ATOM      2  O   UNL     1      -5.426  -0.102  -1.612  0.00  0.00    -0.354 OA
ATOM      6  N   UNL     1      -4.120   0.319  -1.827  0.00  0.00    -0.083 NA
ATOM     15  C   UNL     1      -3.454  -0.047  -0.728  0.00  0.00    +0.085 A 
ATOM     20  C   UNL     1      -4.280  -0.696   0.206  0.00  0.00    +0.076 A 
ATOM     22  C   UNL     1      -5.509  -0.705  -0.399  0.00  0.00    +0.167 A 
BRANCH  22  25
ATOM     25  C   UNL     1      -6.807  -1.195  -0.036  0.00  0.00    +0.020 A 
ATOM     29  C   UNL     1      -6.995  -1.830   1.192  0.00  0.00    +0.011 A 
ATOM     30  C   UNL     1      -7.882  -1.036  -0.910  0.00  0.00    +0.011 A 
ATOM     31  C   UNL     1      -8.258  -2.306   1.545  0.00  0.00    +0.001 A 
ATOM     32  C   UNL     1      -9.145  -1.513  -0.558  0.00  0.00    +0.001 A 
ATOM     33  C   UNL     1      -9.332  -2.148   0.670  0.00  0.00    +0.000 A 
ENDBRANCH  22  25
ENDBRANCH  13  15
ENDBRANCH   8  13
TORSDOF 6
