REMARK  Name = 28963083
REMARK  8 active torsions:
REMARK  status: ('A' for Active; 'I' for Inactive)
REMARK    1  A    between atoms: O_1  and  C_11
REMARK    2  A    between atoms: N_5  and  C_15
REMARK    3  A    between atoms: C_8  and  C_18
REMARK    4  A    between atoms: C_10  and  C_20
REMARK    5  A    between atoms: C_13  and  C_19
REMARK    6  A    between atoms: C_19  and  C_21
REMARK    7  A    between atoms: C_19  and  C_22
REMARK    8  A    between atoms: C_23  and  C_26
REMARK                            x       y       z     vdW  Elec       q    Type
REMARK                         _______ _______ _______ _____ _____    ______ ____
ROOT
ATOM      8  C   UNL     1       0.064  -1.862   0.508  0.00  0.00    -0.027 C 
ATOM      9  C   UNL     1       0.035  -0.355   0.086  0.00  0.00    +0.028 C 
ATOM     10  C   UNL     1      -1.384   0.046  -0.456  0.00  0.00    +0.012 C 
ATOM     11  C   UNL     1       1.230  -0.009  -0.849  0.00  0.00    +0.122 C 
ATOM     12  C   UNL     1       1.436  -2.194   1.141  0.00  0.00    +0.007 C 
ATOM     13  C   UNL     1       2.592  -0.438  -0.256  0.00  0.00    +0.029 C 
ATOM     14  C   UNL     1      -1.020  -2.106   1.583  0.00  0.00    +0.009 C 
ATOM     15  C   UNL     1      -2.475  -0.273   0.604  0.00  0.00    +0.076 C 
ATOM     16  C   UNL     1       2.607  -1.892   0.213  0.00  0.00    +0.007 C 
ATOM     17  C   UNL     1      -2.416  -1.710   1.123  0.00  0.00    +0.023 C 
ATOM     18  C   UNL     1      -0.178  -2.819  -0.687  0.00  0.00    +0.011 C 
ATOM     20  C   UNL     1      -1.492   1.525  -0.864  0.00  0.00    +0.010 C 
ENDROOT
BRANCH  15   5
ATOM      3  O   UNL     1      -4.753   0.605   2.115  0.00  0.00    -0.269 OA
ATOM      5  N   UNL     1      -3.808  -0.025   0.094  0.00  0.00    -0.307 N 
ATOM     23  C   UNL     1      -4.844   0.399   0.908  0.00  0.00    +0.263 C 
ATOM     33  H   UNL     1      -3.995  -0.224  -0.885  0.00  0.00    +0.149 HD
BRANCH  23  26
ATOM      7  N   UNL     1      -6.181   0.315  -1.088  0.00  0.00    -0.250 NA
ATOM     26  C   UNL     1      -6.157   0.584   0.237  0.00  0.00    +0.125 A 
ATOM     29  C   UNL     1      -7.259   1.006   0.964  0.00  0.00    +0.033 A 
ATOM     30  C   UNL     1      -8.463   1.161   0.287  0.00  0.00    +0.004 A 
ATOM     31  C   UNL     1      -7.370   0.478  -1.712  0.00  0.00    +0.111 A 
ATOM     32  C   UNL     1      -8.528   0.894  -1.076  0.00  0.00    +0.020 A 
ENDBRANCH  23  26
ENDBRANCH  15   5
BRANCH  11   1
ATOM      1  O   UNL     1       1.293   1.406  -1.036  0.00  0.00    -0.391 OA
ATOM     34  H   UNL     1       1.419   1.821  -0.166  0.00  0.00    +0.210 HD
ENDBRANCH  11   1
BRANCH  13  19
ATOM     19  C   UNL     1       3.741  -0.207  -1.245  0.00  0.00    +0.078 C 
ATOM     21  C   UNL     1       3.546  -1.022  -2.511  0.00  0.00    +0.017 C 
BRANCH  19  22
ATOM      2  O   UNL     1       5.466  -1.740  -0.703  0.00  0.00    -0.275 OA
ATOM      4  O   UNL     1       7.374   2.500   0.984  0.00  0.00    -0.377 OA
ATOM      6  N   UNL     1       5.679   0.408   0.153  0.00  0.00    -0.297 N 
ATOM     22  C   UNL     1       5.037  -0.591  -0.577  0.00  0.00    +0.219 C 
ATOM     24  C   UNL     1       6.944   0.122   0.830  0.00  0.00    +0.136 C 
ATOM     25  C   UNL     1       5.137   1.742   0.429  0.00  0.00    +0.136 C 
ATOM     27  C   UNL     1       7.940   1.247   0.590  0.00  0.00    +0.179 C 
ATOM     28  C   UNL     1       6.209   2.803   0.211  0.00  0.00    +0.179 C 
ENDBRANCH  19  22
ENDBRANCH  13  19
TORSDOF 5
