REMARK  Name = 75536102
REMARK  8 active torsions:
REMARK  status: ('A' for Active; 'I' for Inactive)
REMARK    1  A    between atoms: O_2  and  C_8
REMARK    2  A    between atoms: O_3  and  C_10
REMARK    3  A    between atoms: O_4  and  C_18
REMARK    4  A    between atoms: O_4  and  C_24
REMARK    5  A    between atoms: N_5  and  C_6
REMARK    6  A    between atoms: N_5  and  C_12
REMARK    7  A    between atoms: C_7  and  C_11
REMARK    8  A    between atoms: C_12  and  C_15
REMARK                            x       y       z     vdW  Elec       q    Type
REMARK                         _______ _______ _______ _____ _____    ______ ____
ROOT
ATOM      6  C   UNL     1       0.274  -1.489  -0.032  0.00  0.00    +0.092 C 
ATOM      7  C   UNL     1       1.403  -1.236  -1.056  0.00  0.00    +0.041 C 
ATOM      8  C   UNL     1       0.062  -3.001  -0.115  0.00  0.00    +0.160 C 
ATOM      9  C   UNL     1       2.188  -2.573  -1.146  0.00  0.00    +0.043 C 
ATOM     10  C   UNL     1       1.489  -3.535  -0.184  0.00  0.00    +0.145 C 
ENDROOT
BRANCH   7  11
ATOM     11  C   UNL     1       2.260  -0.036  -0.714  0.00  0.00    -0.042 A 
ATOM     13  C   UNL     1       2.364   1.026  -1.611  0.00  0.00    +0.007 A 
ATOM     14  C   UNL     1       2.946   0.007   0.500  0.00  0.00    +0.007 A 
ATOM     16  C   UNL     1       3.154   2.132  -1.295  0.00  0.00    +0.046 A 
ATOM     17  C   UNL     1       3.736   1.112   0.816  0.00  0.00    +0.046 A 
ATOM     18  C   UNL     1       3.840   2.175  -0.082  0.00  0.00    +0.120 A 
BRANCH  18   4
ATOM      4  O   UNL     1       4.609   3.254   0.227  0.00  0.00    -0.495 OA
ATOM     24  C   UNL     1       5.283   3.232   1.485  0.00  0.00    +0.277 C 
ENDBRANCH  18   4
ENDBRANCH   7  11
BRANCH   8   2
ATOM      2  O   UNL     1      -0.636  -3.493   1.014  0.00  0.00    -0.388 OA
ATOM     26  H   UNL     1      -0.645  -4.463   0.950  0.00  0.00    +0.210 HD
ENDBRANCH   8   2
BRANCH  10   3
ATOM      3  O   UNL     1       2.106  -3.458   1.098  0.00  0.00    -0.389 OA
ATOM     27  H   UNL     1       3.025  -3.760   0.997  0.00  0.00    +0.210 HD
ENDBRANCH  10   3
BRANCH   6   5
ATOM      5  N   UNL     1      -0.942  -0.754  -0.363  0.00  0.00    -0.306 NA
ATOM     25  H   UNL     1      -0.689   0.182  -0.683  0.00  0.00    +0.123 HD
BRANCH   5  12
ATOM     12  C   UNL     1      -1.806  -0.628   0.803  0.00  0.00    +0.116 C 
BRANCH  12  15
ATOM      1 CL   UNL     1      -6.864   2.369  -0.474  0.00  0.00    -0.084 Cl
ATOM     15  C   UNL     1      -3.072   0.121   0.484  0.00  0.00    -0.033 A 
ATOM     19  C   UNL     1      -3.116   1.508   0.626  0.00  0.00    +0.006 A 
ATOM     20  C   UNL     1      -4.201  -0.571   0.046  0.00  0.00    +0.006 A 
ATOM     21  C   UNL     1      -4.288   2.203   0.331  0.00  0.00    +0.020 A 
ATOM     22  C   UNL     1      -5.374   0.124  -0.249  0.00  0.00    +0.020 A 
ATOM     23  C   UNL     1      -5.418   1.511  -0.107  0.00  0.00    +0.041 A 
ENDBRANCH  12  15
ENDBRANCH   5  12
ENDBRANCH   6   5
TORSDOF 7
