REMARK  Name = 7113084
REMARK  7 active torsions:
REMARK  status: ('A' for Active; 'I' for Inactive)
REMARK    1  A    between atoms: N_6  and  C_12
REMARK    2  A    between atoms: N_8  and  C_25
REMARK    3  A    between atoms: N_9  and  C_29
REMARK    4  A    between atoms: C_18  and  C_23
REMARK    5  A    between atoms: C_25  and  C_26
REMARK    6  A    between atoms: C_25  and  C_27
REMARK    7  A    between atoms: C_26  and  C_28
REMARK                            x       y       z     vdW  Elec       q    Type
REMARK                         _______ _______ _______ _____ _____    ______ ____
ROOT
ATOM      1  O   UNL     1      -1.515   4.457  -0.251  0.00  0.00    -0.253 OA
ATOM      3  O   UNL     1       3.484  -0.510   1.680  0.00  0.00    -0.252 OA
ATOM      5  N   UNL     1      -0.287   2.590   0.392  0.00  0.00    -0.271 N 
ATOM      6  N   UNL     1      -2.644   2.511   0.220  0.00  0.00    -0.296 N 
ATOM      7  N   UNL     1       2.275   1.263   0.814  0.00  0.00    -0.282 N 
ATOM      9  N   UNL     1       4.464   0.837   0.053  0.00  0.00    -0.269 N 
ATOM     18  C   UNL     1      -0.213   1.243   0.977  0.00  0.00    +0.181 C 
ATOM     19  C   UNL     1       1.122   0.969   1.673  0.00  0.00    +0.141 C 
ATOM     20  C   UNL     1       0.976   3.324   0.280  0.00  0.00    +0.129 C 
ATOM     21  C   UNL     1       2.148   2.420  -0.081  0.00  0.00    +0.128 C 
ATOM     22  C   UNL     1      -1.486   3.272   0.097  0.00  0.00    +0.303 C 
ATOM     24  C   UNL     1       3.431   0.452   0.910  0.00  0.00    +0.307 C 
ATOM     39  H   UNL     1      -2.578   1.516   0.392  0.00  0.00    +0.151 HD
ATOM     41  H   UNL     1       4.309   1.617  -0.575  0.00  0.00    +0.156 HD
ENDROOT
BRANCH   6  12
ATOM     12  C   UNL     1      -3.956   3.058  -0.050  0.00  0.00    +0.074 C 
ATOM     13  C   UNL     1      -4.316   2.920  -1.533  0.00  0.00    +0.022 C 
ATOM     14  C   UNL     1      -5.018   2.407   0.842  0.00  0.00    +0.022 C 
ATOM     15  C   UNL     1      -4.612   1.474  -1.931  0.00  0.00    +0.002 C 
ATOM     16  C   UNL     1      -5.314   0.962   0.440  0.00  0.00    +0.002 C 
ATOM     17  C   UNL     1      -5.680   0.852  -1.036  0.00  0.00    +0.000 C 
ENDBRANCH   6  12
BRANCH   9  29
ATOM     29  C   UNL     1       5.740   0.236  -0.091  0.00  0.00    +0.035 A 
ATOM     32  C   UNL     1       6.657   0.757  -1.004  0.00  0.00    +0.023 A 
ATOM     33  C   UNL     1       6.078  -0.876   0.680  0.00  0.00    +0.023 A 
ATOM     35  C   UNL     1       7.912   0.166  -1.146  0.00  0.00    +0.002 A 
ATOM     36  C   UNL     1       7.334  -1.467   0.539  0.00  0.00    +0.002 A 
ATOM     37  C   UNL     1       8.251  -0.946  -0.374  0.00  0.00    +0.000 A 
ENDBRANCH   9  29
BRANCH  18  23
ATOM      2  O   UNL     1      -0.573   0.612  -1.300  0.00  0.00    -0.274 OA
ATOM      8  N   UNL     1      -0.426  -1.053   0.320  0.00  0.00    -0.302 N 
ATOM     23  C   UNL     1      -0.417   0.254  -0.136  0.00  0.00    +0.236 C 
ATOM     40  H   UNL     1      -0.302  -1.239   1.310  0.00  0.00    +0.150 HD
BRANCH   8  25
ATOM     25  C   UNL     1      -0.627  -2.191  -0.547  0.00  0.00    +0.163 C 
BRANCH  25  27
ATOM      4  O   UNL     1       1.783  -2.488  -0.466  0.00  0.00    -0.274 OA
ATOM     10  N   UNL     1       0.666  -3.091  -2.380  0.00  0.00    -0.328 N 
ATOM     27  C   UNL     1       0.736  -2.579  -1.102  0.00  0.00    +0.231 C 
ATOM     42  H   UNL     1      -0.210  -3.182  -2.885  0.00  0.00    +0.145 HD
ATOM     43  H   UNL     1       1.502  -3.401  -2.863  0.00  0.00    +0.145 HD
ENDBRANCH  25  27
BRANCH  25  26
ATOM     26  C   UNL     1      -1.260  -3.377   0.190  0.00  0.00    +0.068 C 
BRANCH  26  28
ATOM     11  N   UNL     1      -4.604  -2.440   1.706  0.00  0.00    -0.263 NA
ATOM     28  C   UNL     1      -2.751  -3.227   0.366  0.00  0.00    -0.027 A 
ATOM     30  C   UNL     1      -3.638  -3.708  -0.590  0.00  0.00    +0.006 A 
ATOM     31  C   UNL     1      -3.280  -2.606   1.486  0.00  0.00    +0.114 A 
ATOM     34  C   UNL     1      -5.007  -3.556  -0.401  0.00  0.00    +0.020 A 
ATOM     38  C   UNL     1      -5.435  -2.921   0.754  0.00  0.00    +0.111 A 
ENDBRANCH  26  28
ENDBRANCH  25  26
ENDBRANCH   8  25
ENDBRANCH  18  23
TORSDOF 7
