REMARK  Name = 11913188
REMARK  11 active torsions:
REMARK  status: ('A' for Active; 'I' for Inactive)
REMARK    1  A    between atoms: O_3  and  C_35
REMARK    2  A    between atoms: O_3  and  C_36
REMARK    3  A    between atoms: N_6  and  C_18
REMARK    4  A    between atoms: N_7  and  C_19
REMARK    5  A    between atoms: C_8  and  C_14
REMARK    6  A    between atoms: C_9  and  C_13
REMARK    7  A    between atoms: C_13  and  C_15
REMARK    8  A    between atoms: C_14  and  C_16
REMARK    9  A    between atoms: C_18  and  C_20
REMARK   10  A    between atoms: C_26  and  C_35
REMARK   11  A    between atoms: C_36  and  C_37
REMARK                            x       y       z     vdW  Elec       q    Type
REMARK                         _______ _______ _______ _____ _____    ______ ____
ROOT
ATOM      2  O   UNL     1       2.974   4.023  -0.100  0.00  0.00    -0.252 OA
ATOM      5  N   UNL     1       0.949   3.318   0.763  0.00  0.00    -0.285 N 
ATOM      7  N   UNL     1       2.790   1.846   0.681  0.00  0.00    -0.269 N 
ATOM      8  C   UNL     1      -1.890   3.390   0.205  0.00  0.00    +0.004 C 
ATOM      9  C   UNL     1      -1.171   2.054   0.532  0.00  0.00    +0.010 C 
ATOM     10  C   UNL     1      -0.920   4.433  -0.379  0.00  0.00    +0.023 C 
ATOM     11  C   UNL     1       0.063   2.335   1.405  0.00  0.00    +0.113 C 
ATOM     12  C   UNL     1       0.313   4.611   0.506  0.00  0.00    +0.109 C 
ATOM     17  C   UNL     1       2.303   3.126   0.417  0.00  0.00    +0.306 C 
ATOM     39  H   UNL     1       2.382   1.323   1.446  0.00  0.00    +0.156 HD
ENDROOT
BRANCH   7  19
ATOM     19  C   UNL     1       3.809   1.153  -0.019  0.00  0.00    +0.036 A 
ATOM     22  C   UNL     1       4.179  -0.132   0.378  0.00  0.00    +0.038 A 
ATOM     23  C   UNL     1       4.442   1.757  -1.106  0.00  0.00    +0.023 A 
ATOM     26  C   UNL     1       5.182  -0.813  -0.311  0.00  0.00    +0.061 A 
ATOM     27  C   UNL     1       5.445   1.075  -1.795  0.00  0.00    +0.003 A 
ATOM     31  C   UNL     1       5.815  -0.210  -1.397  0.00  0.00    +0.015 A 
BRANCH  26  35
ATOM      4  O   UNL     1       6.703  -2.628  -0.034  0.00  0.00    -0.245 OA
ATOM     35  C   UNL     1       5.568  -2.153   0.103  0.00  0.00    +0.339 C 
BRANCH  35   3
ATOM      3  O   UNL     1       4.519  -2.827   0.666  0.00  0.00    -0.461 OA
BRANCH   3  36
ATOM     36  C   UNL     1       4.775  -4.162   1.116  0.00  0.00    +0.229 C 
ATOM     37  C   UNL     1       3.503  -4.737   1.703  0.00  0.00    +0.048 C 
ENDBRANCH   3  36
ENDBRANCH  35   3
ENDBRANCH  26  35
ENDBRANCH   7  19
BRANCH   9  13
ATOM     13  C   UNL     1      -0.779   1.237  -0.704  0.00  0.00    +0.002 C 
ATOM     15  C   UNL     1      -0.170  -0.092  -0.310  0.00  0.00    +0.004 C 
ENDBRANCH   9  13
BRANCH   8  14
ATOM     14  C   UNL     1      -3.103   3.211  -0.707  0.00  0.00    +0.099 C 
BRANCH  14  16
ATOM      1  O   UNL     1      -4.673   2.433   0.961  0.00  0.00    -0.276 OA
ATOM      6  N   UNL     1      -4.342   1.179  -0.968  0.00  0.00    -0.311 N 
ATOM     16  C   UNL     1      -4.123   2.258  -0.123  0.00  0.00    +0.214 C 
ATOM     38  H   UNL     1      -3.843   1.118  -1.850  0.00  0.00    +0.149 HD
BRANCH   6  18
ATOM     18  C   UNL     1      -5.265   0.111  -0.661  0.00  0.00    +0.140 C 
BRANCH  18  20
ATOM     20  C   UNL     1      -4.614  -0.985   0.133  0.00  0.00    -0.023 A 
ATOM     21  C   UNL     1      -3.987  -2.080  -0.485  0.00  0.00    -0.013 A 
ATOM     24  C   UNL     1      -4.651  -0.877   1.523  0.00  0.00    +0.006 A 
ATOM     25  C   UNL     1      -3.391  -3.080   0.320  0.00  0.00    -0.018 A 
ATOM     28  C   UNL     1      -3.940  -2.205  -1.883  0.00  0.00    +0.009 A 
ATOM     29  C   UNL     1      -4.064  -1.860   2.314  0.00  0.00    +0.001 A 
ATOM     30  C   UNL     1      -3.438  -2.955   1.718  0.00  0.00    +0.008 A 
ATOM     32  C   UNL     1      -2.765  -4.175  -0.297  0.00  0.00    +0.008 A 
ATOM     33  C   UNL     1      -3.314  -3.300  -2.479  0.00  0.00    +0.001 A 
ATOM     34  C   UNL     1      -2.727  -4.283  -1.688  0.00  0.00    +0.001 A 
ENDBRANCH  18  20
ENDBRANCH   6  18
ENDBRANCH  14  16
ENDBRANCH   8  14
TORSDOF 9
