REMARK  Name = 75368577
REMARK  3 active torsions:
REMARK  status: ('A' for Active; 'I' for Inactive)
REMARK    1  A    between atoms: N_3  and  C_13
REMARK    2  A    between atoms: N_4  and  C_14
REMARK    3  A    between atoms: C_13  and  C_15
REMARK                            x       y       z     vdW  Elec       q    Type
REMARK                         _______ _______ _______ _____ _____    ______ ____
ROOT
ATOM      1  O   UNL     1      -2.397  -2.431  -0.142  0.00  0.00    -0.252 OA
ATOM      2  N   UNL     1      -0.312  -1.397  -0.270  0.00  0.00    -0.278 N 
ATOM      3  N   UNL     1       2.427  -0.943   0.187  0.00  0.00    -0.292 NA
ATOM      4  N   UNL     1      -2.129  -0.053  -0.137  0.00  0.00    -0.254 N 
ATOM      7  C   UNL     1       0.215  -0.066  -0.440  0.00  0.00    +0.109 C 
ATOM      8  C   UNL     1       1.452   0.138   0.434  0.00  0.00    +0.109 C 
ATOM      9  C   UNL     1      -0.968   0.831  -0.100  0.00  0.00    +0.139 C 
ATOM     10  C   UNL     1       0.590  -2.529  -0.343  0.00  0.00    +0.125 C 
ATOM     11  C   UNL     1       1.840  -2.261   0.499  0.00  0.00    +0.104 C 
ATOM     12  C   UNL     1      -1.713  -1.417  -0.184  0.00  0.00    +0.309 C 
ENDROOT
BRANCH   4  14
ATOM     14  C   UNL     1      -3.464   0.436  -0.051  0.00  0.00    +0.038 A 
ATOM     16  C   UNL     1      -4.533  -0.460  -0.003  0.00  0.00    +0.023 A 
ATOM     17  C   UNL     1      -3.704   1.809  -0.014  0.00  0.00    +0.023 A 
ATOM     18  C   UNL     1      -5.840   0.018   0.081  0.00  0.00    +0.002 A 
ATOM     19  C   UNL     1      -5.011   2.288   0.070  0.00  0.00    +0.002 A 
ATOM     21  C   UNL     1      -6.080   1.392   0.118  0.00  0.00    +0.000 A 
ENDBRANCH   4  14
BRANCH   3  13
ATOM     13  C   UNL     1       3.640  -0.725   0.976  0.00  0.00    +0.158 C 
BRANCH  13  15
ATOM      5  N   UNL     1       5.290   0.083  -0.728  0.00  0.00    -0.347 N 
ATOM      6  N   UNL     1       4.657   1.577   0.789  0.00  0.00    -0.239 NA
ATOM     15  C   UNL     1       4.518   0.338   0.371  0.00  0.00    +0.121 A 
ATOM     20  C   UNL     1       5.964   1.233  -1.030  0.00  0.00    +0.104 A 
ATOM     22  C   UNL     1       5.557   2.140  -0.081  0.00  0.00    +0.130 A 
ATOM     23  H   UNL     1       5.352  -0.794  -1.227  0.00  0.00    +0.167 HD
ENDBRANCH  13  15
ENDBRANCH   3  13
TORSDOF 3
