REMARK  Name = 51137803
REMARK  6 active torsions:
REMARK  status: ('A' for Active; 'I' for Inactive)
REMARK    1  A    between atoms: O_3  and  C_18
REMARK    2  A    between atoms: O_3  and  C_28
REMARK    3  A    between atoms: N_5  and  C_15
REMARK    4  A    between atoms: C_8  and  C_12
REMARK    5  A    between atoms: C_14  and  C_16
REMARK    6  A    between atoms: C_15  and  C_17
REMARK                            x       y       z     vdW  Elec       q    Type
REMARK                         _______ _______ _______ _____ _____    ______ ____
ROOT
ATOM      2  O   UNL     1      -2.212   2.383   1.364  0.00  0.00    -0.253 OA
ATOM      4  N   UNL     1      -0.536   2.702  -0.188  0.00  0.00    -0.285 N 
ATOM      5  N   UNL     1      -2.593   1.788  -0.831  0.00  0.00    -0.295 N 
ATOM      8  C   UNL     1       1.772   3.226   0.040  0.00  0.00    +0.096 C 
ATOM      9  C   UNL     1       1.348   3.411  -1.425  0.00  0.00    +0.033 C 
ATOM     10  C   UNL     1       0.421   3.249   0.766  0.00  0.00    +0.122 C 
ATOM     11  C   UNL     1       0.035   2.645  -1.531  0.00  0.00    +0.110 C 
ATOM     13  C   UNL     1      -1.812   2.298   0.200  0.00  0.00    +0.302 C 
ATOM     29  H   UNL     1      -2.205   1.692  -1.762  0.00  0.00    +0.151 HD
ENDROOT
BRANCH   8  12
ATOM      1  O   UNL     1       2.049   0.790  -0.107  0.00  0.00    -0.420 OA
ATOM      6  N   UNL     1       3.854   1.866   0.660  0.00  0.00    -0.112 NA
ATOM      7  N   UNL     1       4.143   0.514   0.628  0.00  0.00    -0.107 NA
ATOM     12  C   UNL     1       2.622   1.980   0.223  0.00  0.00    +0.222 A 
ATOM     14  C   UNL     1       3.061  -0.074   0.175  0.00  0.00    +0.252 A 
BRANCH  14  16
ATOM     16  C   UNL     1       2.787  -1.461  -0.066  0.00  0.00    +0.080 A 
ATOM     18  C   UNL     1       1.492  -1.966   0.053  0.00  0.00    +0.132 A 
ATOM     19  C   UNL     1       3.836  -2.309  -0.422  0.00  0.00    +0.017 A 
ATOM     22  C   UNL     1       1.246  -3.318  -0.183  0.00  0.00    +0.046 A 
ATOM     23  C   UNL     1       3.590  -3.662  -0.658  0.00  0.00    +0.001 A 
ATOM     24  C   UNL     1       2.295  -4.166  -0.539  0.00  0.00    +0.004 A 
BRANCH  18   3
ATOM      3  O   UNL     1       0.448  -1.160   0.400  0.00  0.00    -0.494 OA
ATOM     28  C   UNL     1       0.165  -1.032   1.792  0.00  0.00    +0.277 C 
ENDBRANCH  18   3
ENDBRANCH  14  16
ENDBRANCH   8  12
BRANCH   5  15
ATOM     15  C   UNL     1      -3.942   1.315  -0.619  0.00  0.00    +0.141 C 
BRANCH  15  17
ATOM     17  C   UNL     1      -3.978  -0.146  -0.275  0.00  0.00    -0.030 A 
ATOM     20  C   UNL     1      -4.083  -1.099  -1.288  0.00  0.00    +0.005 A 
ATOM     21  C   UNL     1      -3.907  -0.550   1.058  0.00  0.00    +0.005 A 
ATOM     25  C   UNL     1      -4.117  -2.456  -0.968  0.00  0.00    +0.000 A 
ATOM     26  C   UNL     1      -3.940  -1.907   1.378  0.00  0.00    +0.000 A 
ATOM     27  C   UNL     1      -4.045  -2.861   0.365  0.00  0.00    +0.000 A 
ENDBRANCH  15  17
ENDBRANCH   5  15
TORSDOF 5
