REMARK  Name = 38029128
REMARK  14 active torsions:
REMARK  status: ('A' for Active; 'I' for Inactive)
REMARK    1  A    between atoms: S_1  and  N_5
REMARK    2  A    between atoms: S_1  and  C_21
REMARK    3  A    between atoms: N_5  and  C_15
REMARK    4  A    between atoms: N_6  and  C_22
REMARK    5  A    between atoms: N_6  and  C_23
REMARK    6  A    between atoms: C_8  and  C_12
REMARK    7  A    between atoms: C_9  and  C_15
REMARK    8  A    between atoms: C_11  and  C_16
REMARK    9  A    between atoms: C_12  and  C_17
REMARK   10  A    between atoms: C_12  and  C_18
REMARK   11  A    between atoms: C_13  and  C_19
REMARK   12  A    between atoms: C_16  and  C_20
REMARK   13  A    between atoms: C_22  and  C_26
REMARK   14  A    between atoms: C_29  and  C_32
REMARK                            x       y       z     vdW  Elec       q    Type
REMARK                         _______ _______ _______ _____ _____    ______ ____
ROOT
ATOM      8  C   UNL     1       1.708   1.022  -1.282  0.00  0.00    +0.000 C 
ATOM      9  C   UNL     1       3.100   1.591  -0.909  0.00  0.00    +0.030 C 
ATOM     10  C   UNL     1       0.697   2.163  -1.474  0.00  0.00    +0.012 C 
ATOM     11  C   UNL     1       0.548   3.030  -0.209  0.00  0.00    +0.023 C 
ATOM     13  C   UNL     1       1.894   3.409   0.375  0.00  0.00    -0.073 C 
ATOM     14  C   UNL     1       3.025   2.764   0.040  0.00  0.00    -0.023 C 
ATOM     19  C   UNL     1       1.917   4.579   1.319  0.00  0.00    +0.039 C 
ENDROOT
BRANCH   8  12
ATOM     12  C   UNL     1       1.766   0.161  -2.547  0.00  0.00    -0.013 C 
ATOM     17  C   UNL     1       2.229   0.994  -3.737  0.00  0.00    +0.007 C 
ATOM     18  C   UNL     1       0.404  -0.468  -2.824  0.00  0.00    +0.007 C 
ENDBRANCH   8  12
BRANCH   9  15
ATOM     15  C   UNL     1       3.999   0.504  -0.308  0.00  0.00    +0.113 C 
BRANCH  15   5
ATOM      5  N   UNL     1       3.430   0.066   0.977  0.00  0.00    -0.189 NA
ATOM     35  H   UNL     1       3.273   0.793   1.686  0.00  0.00    +0.148 HD
BRANCH   5   1
ATOM      1  S   UNL     1       3.667  -1.531   1.519  0.00  0.00    +0.058 S 
ATOM      3  O   UNL     1       3.539  -1.570   2.963  0.00  0.00    -0.153 OA
ATOM      4  O   UNL     1       4.846  -2.081   0.876  0.00  0.00    -0.153 OA
BRANCH   1  21
ATOM     21  C   UNL     1       2.268  -2.358   0.825  0.00  0.00    +0.105 A 
ATOM     24  C   UNL     1       2.353  -2.928  -0.445  0.00  0.00    +0.029 A 
ATOM     25  C   UNL     1       1.077  -2.441   1.548  0.00  0.00    +0.029 A 
ATOM     27  C   UNL     1       1.249  -3.581  -0.992  0.00  0.00    +0.005 A 
ATOM     28  C   UNL     1      -0.027  -3.094   1.001  0.00  0.00    +0.005 A 
ATOM     29  C   UNL     1       0.059  -3.664  -0.269  0.00  0.00    -0.050 A 
ATOM     32  C   UNL     1      -1.122  -4.363  -0.854  0.00  0.00    +0.044 C 
ENDBRANCH   1  21
ENDBRANCH   5   1
ENDBRANCH  15   5
ENDBRANCH   9  15
BRANCH  11  16
ATOM     16  C   UNL     1      -0.327   2.332   0.838  0.00  0.00    +0.103 C 
BRANCH  16  20
ATOM      2  O   UNL     1      -2.178   2.896  -0.577  0.00  0.00    -0.276 OA
ATOM      6  N   UNL     1      -2.665   1.741   1.374  0.00  0.00    -0.300 N 
ATOM     20  C   UNL     1      -1.798   2.358   0.466  0.00  0.00    +0.216 C 
ATOM     23  C   UNL     1      -2.193   1.111   2.601  0.00  0.00    +0.132 C 
BRANCH   6  22
ATOM     22  C   UNL     1      -4.110   1.681   1.162  0.00  0.00    +0.144 C 
BRANCH  22  26
ATOM      7  N   UNL     1      -4.653  -0.821  -1.621  0.00  0.00    -0.263 NA
ATOM     26  C   UNL     1      -4.521   0.427   0.445  0.00  0.00    -0.012 A 
ATOM     30  C   UNL     1      -5.130  -0.621   1.126  0.00  0.00    +0.008 A 
ATOM     31  C   UNL     1      -4.306   0.279  -0.916  0.00  0.00    +0.115 A 
ATOM     33  C   UNL     1      -5.501  -1.769   0.435  0.00  0.00    +0.020 A 
ATOM     34  C   UNL     1      -5.243  -1.819  -0.926  0.00  0.00    +0.111 A 
ENDBRANCH  22  26
ENDBRANCH   6  22
ENDBRANCH  16  20
ENDBRANCH  11  16
TORSDOF 9
