REMARK  Name = 51137254
REMARK  4 active torsions:
REMARK  status: ('A' for Active; 'I' for Inactive)
REMARK    1  A    between atoms: N_3  and  C_12
REMARK    2  A    between atoms: C_8  and  C_13
REMARK    3  A    between atoms: C_12  and  C_14
REMARK    4  A    between atoms: C_15  and  C_16
REMARK                            x       y       z     vdW  Elec       q    Type
REMARK                         _______ _______ _______ _____ _____    ______ ____
ROOT
ATOM      3  N   UNL     1      -2.803  -0.434  -0.157  0.00  0.00    -0.294 NA
ATOM      8  C   UNL     1      -0.959  -1.833   0.222  0.00  0.00    +0.092 C 
ATOM      9  C   UNL     1      -1.433  -1.232   1.557  0.00  0.00    +0.029 C 
ATOM     10  C   UNL     1      -1.629  -0.967  -0.853  0.00  0.00    +0.097 C 
ATOM     11  C   UNL     1      -2.314  -0.052   1.168  0.00  0.00    +0.085 C 
ENDROOT
BRANCH   8  13
ATOM      2  O   UNL     1       1.233  -0.745   0.119  0.00  0.00    -0.420 OA
ATOM      4  N   UNL     1       1.304  -2.967  -0.134  0.00  0.00    -0.112 NA
ATOM      7  N   UNL     1       2.598  -2.486  -0.212  0.00  0.00    -0.107 NA
ATOM     13  C   UNL     1       0.541  -1.916   0.060  0.00  0.00    +0.222 A 
ATOM     15  C   UNL     1       2.508  -1.186  -0.059  0.00  0.00    +0.248 A 
BRANCH  15  16
ATOM      1 CL   UNL     1       6.733   2.996  -0.026  0.00  0.00    -0.084 Cl
ATOM     16  C   UNL     1       3.527  -0.177  -0.051  0.00  0.00    +0.039 A 
ATOM     19  C   UNL     1       4.864  -0.535  -0.226  0.00  0.00    +0.014 A 
ATOM     20  C   UNL     1       3.182   1.162   0.132  0.00  0.00    +0.014 A 
ATOM     21  C   UNL     1       5.855   0.447  -0.219  0.00  0.00    +0.021 A 
ATOM     22  C   UNL     1       4.173   2.143   0.139  0.00  0.00    +0.021 A 
ATOM     23  C   UNL     1       5.510   1.786  -0.036  0.00  0.00    +0.041 A 
ENDBRANCH  15  16
ENDBRANCH   8  13
BRANCH   3  12
ATOM     12  C   UNL     1      -3.409   0.682  -0.867  0.00  0.00    +0.158 C 
BRANCH  12  14
ATOM      5  N   UNL     1      -5.854   0.137  -0.806  0.00  0.00    -0.347 N 
ATOM      6  N   UNL     1      -5.229   1.904   0.385  0.00  0.00    -0.239 NA
ATOM     14  C   UNL     1      -4.821   0.938  -0.408  0.00  0.00    +0.121 A 
ATOM     17  C   UNL     1      -6.994   0.622  -0.230  0.00  0.00    +0.104 A 
ATOM     18  C   UNL     1      -6.583   1.712   0.500  0.00  0.00    +0.130 A 
ATOM     24  H   UNL     1      -5.789  -0.669  -1.414  0.00  0.00    +0.167 HD
ENDBRANCH  12  14
ENDBRANCH   3  12
TORSDOF 4
