REMARK  Name = 45783471
REMARK  11 active torsions:
REMARK  status: ('A' for Active; 'I' for Inactive)
REMARK    1  A    between atoms: O_2  and  C_26
REMARK    2  A    between atoms: O_4  and  C_30
REMARK    3  A    between atoms: O_4  and  C_31
REMARK    4  A    between atoms: N_5  and  C_14
REMARK    5  A    between atoms: N_9  and  C_28
REMARK    6  A    between atoms: N_9  and  C_29
REMARK    7  A    between atoms: C_10  and  C_15
REMARK    8  A    between atoms: C_14  and  C_16
REMARK    9  A    between atoms: C_19  and  C_22
REMARK   10  A    between atoms: C_23  and  C_26
REMARK   11  A    between atoms: C_29  and  C_30
REMARK                            x       y       z     vdW  Elec       q    Type
REMARK                         _______ _______ _______ _____ _____    ______ ____
ROOT
ATOM      1  O   UNL     1      -2.529  -1.540   2.011  0.00  0.00    -0.336 OA
ATOM      6  N   UNL     1      -1.601  -1.228  -0.004  0.00  0.00    -0.190 NA
ATOM      7  N   UNL     1      -1.144  -1.556   2.214  0.00  0.00    -0.056 NA
ATOM     15  C   UNL     1      -2.712  -1.342   0.679  0.00  0.00    +0.245 A 
ATOM     19  C   UNL     1      -0.666  -1.366   0.980  0.00  0.00    +0.204 A 
ENDROOT
BRANCH  19  22
ATOM      8  N   UNL     1       3.015  -1.409   1.508  0.00  0.00    -0.240 NA
ATOM     22  C   UNL     1       0.739  -1.310   0.697  0.00  0.00    +0.041 A 
ATOM     24  C   UNL     1       1.202  -1.112  -0.599  0.00  0.00    +0.016 A 
ATOM     25  C   UNL     1       1.678  -1.451   1.706  0.00  0.00    +0.124 A 
ATOM     27  C   UNL     1       2.570  -1.062  -0.843  0.00  0.00    +0.044 A 
ATOM     28  C   UNL     1       3.427  -1.214   0.235  0.00  0.00    +0.119 A 
BRANCH  28   9
ATOM      9  N   UNL     1       4.818  -1.162  -0.030  0.00  0.00    -0.327 N 
ATOM     32  H   UNL     1       5.434  -1.272   0.767  0.00  0.00    +0.148 HD
BRANCH   9  29
ATOM     29  C   UNL     1       5.346  -0.963  -1.340  0.00  0.00    +0.131 C 
BRANCH  29  30
ATOM     30  C   UNL     1       6.864  -0.990  -1.299  0.00  0.00    +0.178 C 
BRANCH  30   4
ATOM      4  O   UNL     1       7.335   0.066  -0.471  0.00  0.00    -0.381 OA
ATOM     31  C   UNL     1       8.754   0.084  -0.406  0.00  0.00    +0.194 C 
ENDBRANCH  30   4
ENDBRANCH  29  30
ENDBRANCH   9  29
ENDBRANCH  28   9
ENDBRANCH  19  22
BRANCH  15  10
ATOM      5  N   UNL     1      -4.301  -0.468  -1.025  0.00  0.00    -0.287 NA
ATOM     10  C   UNL     1      -4.146  -1.283   0.196  0.00  0.00    +0.146 C 
ATOM     11  C   UNL     1      -4.702  -2.668  -0.185  0.00  0.00    +0.030 C 
ATOM     12  C   UNL     1      -5.201  -2.516  -1.615  0.00  0.00    +0.017 C 
ATOM     13  C   UNL     1      -5.441  -1.026  -1.753  0.00  0.00    +0.085 C 
BRANCH   5  14
ATOM     14  C   UNL     1      -4.470   0.953  -0.750  0.00  0.00    +0.120 C 
BRANCH  14  16
ATOM     16  C   UNL     1      -3.156   1.627  -0.454  0.00  0.00    -0.033 A 
ATOM     17  C   UNL     1      -2.966   2.277   0.766  0.00  0.00    +0.006 A 
ATOM     18  C   UNL     1      -2.130   1.600  -1.398  0.00  0.00    +0.006 A 
ATOM     20  C   UNL     1      -1.749   2.901   1.040  0.00  0.00    +0.015 A 
ATOM     21  C   UNL     1      -0.913   2.225  -1.123  0.00  0.00    +0.015 A 
ATOM     23  C   UNL     1      -0.723   2.875   0.096  0.00  0.00    +0.059 A 
BRANCH  23  26
ATOM      3  O   UNL     1       0.823   4.127   1.425  0.00  0.00    -0.245 OA
ATOM     26  C   UNL     1       0.546   3.525   0.382  0.00  0.00    +0.337 C 
BRANCH  26   2
ATOM      2  O   UNL     1       1.435   3.405  -0.642  0.00  0.00    -0.477 OA
ATOM     33  H   UNL     1       2.288   3.845  -0.438  0.00  0.00    +0.295 HD
ENDBRANCH  26   2
ENDBRANCH  23  26
ENDBRANCH  14  16
ENDBRANCH   5  14
ENDBRANCH  15  10
TORSDOF 10
