REMARK  Name = 45360914
REMARK  8 active torsions:
REMARK  status: ('A' for Active; 'I' for Inactive)
REMARK    1  A    between atoms: N_4  and  C_19
REMARK    2  A    between atoms: N_5  and  C_17
REMARK    3  A    between atoms: N_9  and  C_25
REMARK    4  A    between atoms: C_14  and  C_18
REMARK    5  A    between atoms: C_17  and  C_21
REMARK    6  A    between atoms: C_18  and  C_20
REMARK    7  A    between atoms: C_20  and  C_22
REMARK    8  A    between atoms: C_25  and  C_26
REMARK                            x       y       z     vdW  Elec       q    Type
REMARK                         _______ _______ _______ _____ _____    ______ ____
ROOT
ATOM      2  O   UNL     1       2.669  -1.808  -0.876  0.00  0.00    -0.274 OA
ATOM      4  N   UNL     1       1.406   1.809  -0.319  0.00  0.00    -0.296 NA
ATOM      5  N   UNL     1       4.508  -0.087   0.098  0.00  0.00    -0.283 NA
ATOM      6  N   UNL     1       0.930  -0.958   0.344  0.00  0.00    -0.312 N 
ATOM     10  C   UNL     1       2.727   1.550   0.296  0.00  0.00    +0.084 C 
ATOM     11  C   UNL     1       3.129   0.076   0.595  0.00  0.00    +0.161 C 
ATOM     12  C   UNL     1       3.917   2.042  -0.549  0.00  0.00    +0.036 C 
ATOM     13  C   UNL     1       5.086   1.248  -0.005  0.00  0.00    +0.087 C 
ATOM     14  C   UNL     1       0.244   1.415   0.526  0.00  0.00    +0.074 C 
ATOM     15  C   UNL     1       2.249  -0.981  -0.069  0.00  0.00    +0.232 C 
ATOM     16  C   UNL     1       0.388   0.052   1.231  0.00  0.00    +0.123 C 
ATOM     19  C   UNL     1       1.286   3.219  -0.726  0.00  0.00    +0.105 C 
ATOM     32  H   UNL     1       0.296  -1.650  -0.042  0.00  0.00    +0.149 HD
ENDROOT
BRANCH   5  17
ATOM     17  C   UNL     1       5.318  -0.973   0.924  0.00  0.00    +0.159 C 
BRANCH  17  21
ATOM      7  N   UNL     1       6.946  -1.931  -0.718  0.00  0.00    -0.347 N 
ATOM      8  N   UNL     1       7.808  -0.595   0.832  0.00  0.00    -0.239 NA
ATOM     21  C   UNL     1       6.705  -1.143   0.373  0.00  0.00    +0.121 A 
ATOM     23  C   UNL     1       8.288  -1.882  -0.970  0.00  0.00    +0.104 A 
ATOM     24  C   UNL     1       8.798  -1.051  -0.001  0.00  0.00    +0.130 A 
ATOM     33  H   UNL     1       6.258  -2.454  -1.243  0.00  0.00    +0.167 HD
ENDBRANCH  17  21
ENDBRANCH   5  17
BRANCH  14  18
ATOM     18  C   UNL     1      -1.046   1.368  -0.319  0.00  0.00    +0.029 C 
BRANCH  18  20
ATOM     20  C   UNL     1      -2.269   1.564   0.558  0.00  0.00    +0.097 C 
BRANCH  20  22
ATOM      3  O   UNL     1      -3.576   1.346  -1.468  0.00  0.00    -0.276 OA
ATOM      9  N   UNL     1      -4.670   1.699   0.549  0.00  0.00    -0.311 N 
ATOM     22  C   UNL     1      -3.552   1.519  -0.252  0.00  0.00    +0.213 C 
ATOM     34  H   UNL     1      -4.554   1.818   1.552  0.00  0.00    +0.149 HD
BRANCH   9  25
ATOM     25  C   UNL     1      -6.011   1.698   0.014  0.00  0.00    +0.139 C 
BRANCH  25  26
ATOM      1  F   UNL     1      -8.263  -3.462  -0.026  0.00  0.00    -0.205 F 
ATOM     26  C   UNL     1      -6.611   0.323   0.003  0.00  0.00    -0.030 A 
ATOM     27  C   UNL     1      -6.447  -0.501  -1.111  0.00  0.00    +0.008 A 
ATOM     28  C   UNL     1      -7.333  -0.132   1.107  0.00  0.00    +0.008 A 
ATOM     29  C   UNL     1      -7.005  -1.780  -1.121  0.00  0.00    +0.038 A 
ATOM     30  C   UNL     1      -7.891  -1.411   1.097  0.00  0.00    +0.038 A 
ATOM     31  C   UNL     1      -7.727  -2.234  -0.017  0.00  0.00    +0.123 A 
ENDBRANCH  25  26
ENDBRANCH   9  25
ENDBRANCH  20  22
ENDBRANCH  18  20
ENDBRANCH  14  18
TORSDOF 7
