REMARK  Name = 45783392
REMARK  7 active torsions:
REMARK  status: ('A' for Active; 'I' for Inactive)
REMARK    1  A    between atoms: O_3  and  C_26
REMARK    2  A    between atoms: O_3  and  C_27
REMARK    3  A    between atoms: N_4  and  C_9
REMARK    4  A    between atoms: N_7  and  C_24
REMARK    5  A    between atoms: C_10  and  C_18
REMARK    6  A    between atoms: C_19  and  C_20
REMARK    7  A    between atoms: C_24  and  C_26
REMARK                            x       y       z     vdW  Elec       q    Type
REMARK                         _______ _______ _______ _____ _____    ______ ____
ROOT
ATOM      2  O   UNL     1      -0.080  -1.429  -2.512  0.00  0.00    -0.336 OA
ATOM      5  N   UNL     1       0.372  -0.215  -0.684  0.00  0.00    -0.190 NA
ATOM      6  N   UNL     1       1.232  -1.752  -2.144  0.00  0.00    -0.056 NA
ATOM     18  C   UNL     1      -0.512  -0.518  -1.601  0.00  0.00    +0.245 A 
ATOM     19  C   UNL     1       1.426  -0.997  -1.059  0.00  0.00    +0.205 A 
ENDROOT
BRANCH  19  20
ATOM      7  N   UNL     1       2.347   1.296   0.341  0.00  0.00    -0.326 N 
ATOM      8  N   UNL     1       4.283   0.139   1.057  0.00  0.00    -0.240 NA
ATOM     20  C   UNL     1       2.660  -0.999  -0.328  0.00  0.00    +0.062 A 
ATOM     21  C   UNL     1       3.125   0.111   0.360  0.00  0.00    +0.130 A 
ATOM     22  C   UNL     1       3.434  -2.154  -0.299  0.00  0.00    +0.016 A 
ATOM     23  C   UNL     1       4.632  -2.164   0.407  0.00  0.00    +0.020 A 
ATOM     25  C   UNL     1       5.008  -1.002   1.063  0.00  0.00    +0.113 A 
ATOM     28  H   UNL     1       1.717   1.402  -0.447  0.00  0.00    +0.148 HD
BRANCH   7  24
ATOM     24  C   UNL     1       2.743   2.487   1.019  0.00  0.00    +0.131 C 
BRANCH  24  26
ATOM     26  C   UNL     1       1.688   3.564   0.837  0.00  0.00    +0.178 C 
BRANCH  26   3
ATOM      3  O   UNL     1       0.443   3.097   1.340  0.00  0.00    -0.381 OA
ATOM     27  C   UNL     1      -0.580   4.071   1.185  0.00  0.00    +0.194 C 
ENDBRANCH  26   3
ENDBRANCH  24  26
ENDBRANCH   7  24
ENDBRANCH  19  20
BRANCH  18  10
ATOM      4  N   UNL     1      -2.537   0.429  -0.507  0.00  0.00    -0.288 NA
ATOM     10  C   UNL     1      -1.925  -0.002  -1.779  0.00  0.00    +0.146 C 
ATOM     11  C   UNL     1      -3.491   1.486  -0.844  0.00  0.00    +0.085 C 
ATOM     12  C   UNL     1      -1.994   1.240  -2.687  0.00  0.00    +0.030 C 
ATOM     13  C   UNL     1      -2.714   2.296  -1.862  0.00  0.00    +0.017 C 
BRANCH   4   9
ATOM      1  O   UNL     1      -3.317  -2.261   2.621  0.00  0.00    -0.380 OA
ATOM      9  C   UNL     1      -3.166  -0.665   0.230  0.00  0.00    +0.062 C 
ATOM     14  C   UNL     1      -2.134  -1.746   0.561  0.00  0.00    +0.047 C 
ATOM     15  C   UNL     1      -3.825  -0.157   1.516  0.00  0.00    +0.047 C 
ATOM     16  C   UNL     1      -2.761  -2.828   1.434  0.00  0.00    +0.161 C 
ATOM     17  C   UNL     1      -4.358  -1.326   2.336  0.00  0.00    +0.161 C 
ENDBRANCH   4   9
ENDBRANCH  18  10
TORSDOF 6
