REMARK  Name = 40780142
REMARK  8 active torsions:
REMARK  status: ('A' for Active; 'I' for Inactive)
REMARK    1  A    between atoms: O_2  and  C_31
REMARK    2  A    between atoms: O_2  and  C_32
REMARK    3  A    between atoms: N_4  and  C_24
REMARK    4  A    between atoms: N_5  and  C_16
REMARK    5  A    between atoms: N_7  and  C_26
REMARK    6  A    between atoms: C_9  and  C_15
REMARK    7  A    between atoms: C_10  and  C_16
REMARK    8  A    between atoms: C_18  and  C_19
REMARK                            x       y       z     vdW  Elec       q    Type
REMARK                         _______ _______ _______ _____ _____    ______ ____
ROOT
ATOM      3  N   UNL     1       3.296   2.990  -0.599  0.00  0.00    -0.297 NA
ATOM      8  C   UNL     1       3.141   1.477   1.516  0.00  0.00    +0.002 C 
ATOM      9  C   UNL     1       3.847   0.721   0.356  0.00  0.00    +0.055 C 
ATOM     10  C   UNL     1       1.904   2.988  -0.076  0.00  0.00    +0.074 C 
ATOM     11  C   UNL     1       1.745   1.940   1.047  0.00  0.00    +0.024 C 
ATOM     12  C   UNL     1       3.721   1.604  -0.918  0.00  0.00    +0.094 C 
ATOM     13  C   UNL     1       3.972   2.748   1.790  0.00  0.00    +0.019 C 
ATOM     14  C   UNL     1       4.181   3.511   0.470  0.00  0.00    +0.085 C 
ENDROOT
BRANCH   9  15
ATOM      4  N   UNL     1       4.318  -1.655  -0.404  0.00  0.00    -0.271 N 
ATOM      6  N   UNL     1       3.775  -2.874  -0.559  0.00  0.00    -0.176 NA
ATOM     15  C   UNL     1       3.453  -0.726   0.097  0.00  0.00    +0.044 A 
ATOM     17  C   UNL     1       2.261  -1.384   0.281  0.00  0.00    +0.048 A 
ATOM     19  C   UNL     1       2.519  -2.703  -0.139  0.00  0.00    +0.066 A 
ATOM     24  C   UNL     1       5.701  -1.447  -0.765  0.00  0.00    +0.172 C 
BRANCH  19  18
ATOM     18  C   UNL     1       1.556  -3.869  -0.154  0.00  0.00    +0.040 C 
ATOM     20  C   UNL     1       1.026  -4.215   1.249  0.00  0.00    +0.010 C 
ATOM     21  C   UNL     1       0.305  -3.655  -1.031  0.00  0.00    +0.010 C 
ATOM     22  C   UNL     1      -0.412  -4.653   1.022  0.00  0.00    +0.001 C 
ATOM     23  C   UNL     1      -0.884  -3.721  -0.080  0.00  0.00    +0.001 C 
ENDBRANCH  19  18
ENDBRANCH   9  15
BRANCH  10  16
ATOM     16  C   UNL     1       0.866   2.798  -1.184  0.00  0.00    +0.124 C 
BRANCH  16   5
ATOM      1  O   UNL     1      -1.183   0.797  -1.247  0.00  0.00    -0.253 OA
ATOM      5  N   UNL     1      -0.462   2.917  -0.665  0.00  0.00    -0.298 N 
ATOM      7  N   UNL     1      -2.621   2.290  -0.146  0.00  0.00    -0.269 N 
ATOM     25  C   UNL     1      -1.418   1.888  -0.733  0.00  0.00    +0.304 C 
ATOM     33  H   UNL     1      -0.743   3.808  -0.268  0.00  0.00    +0.150 HD
ATOM     34  H   UNL     1      -2.650   3.232   0.236  0.00  0.00    +0.156 HD
BRANCH   7  26
ATOM     26  C   UNL     1      -3.816   1.544  -0.017  0.00  0.00    +0.035 A 
ATOM     27  C   UNL     1      -4.929   2.112   0.602  0.00  0.00    +0.027 A 
ATOM     28  C   UNL     1      -3.881   0.240  -0.507  0.00  0.00    +0.027 A 
ATOM     29  C   UNL     1      -6.107   1.377   0.730  0.00  0.00    +0.047 A 
ATOM     30  C   UNL     1      -5.059  -0.496  -0.379  0.00  0.00    +0.047 A 
ATOM     31  C   UNL     1      -6.172   0.073   0.240  0.00  0.00    +0.120 A 
BRANCH  31   2
ATOM      2  O   UNL     1      -7.322  -0.645   0.364  0.00  0.00    -0.495 OA
ATOM     32  C   UNL     1      -7.319  -1.972  -0.160  0.00  0.00    +0.277 C 
ENDBRANCH  31   2
ENDBRANCH   7  26
ENDBRANCH  16   5
ENDBRANCH  10  16
TORSDOF 6
