REMARK  Name = 11884208
REMARK  2 active torsions:
REMARK  status: ('A' for Active; 'I' for Inactive)
REMARK    1  A    between atoms: C_16  and  C_20
REMARK    2  A    between atoms: C_19  and  C_22
REMARK                            x       y       z     vdW  Elec       q    Type
REMARK                         _______ _______ _______ _____ _____    ______ ____
ROOT
ATOM      2  O   UNL     1       2.005   2.275   0.547  0.00  0.00    -0.273 OA
ATOM      3  O   UNL     1      -0.918  -2.118   0.835  0.00  0.00    -0.270 OA
ATOM      4  O   UNL     1       4.964   1.143  -1.987  0.00  0.00    -0.269 OA
ATOM      5  N   UNL     1       0.678  -0.685  -0.029  0.00  0.00    -0.283 N 
ATOM      6  N   UNL     1       3.425  -0.043  -0.731  0.00  0.00    -0.293 N 
ATOM      7  N   UNL     1      -0.244   2.009   0.771  0.00  0.00    -0.283 N 
ATOM      8  C   UNL     1       0.984   0.530  -0.771  0.00  0.00    +0.180 C 
ATOM      9  C   UNL     1       2.304   0.434  -1.546  0.00  0.00    +0.140 C 
ATOM     10  C   UNL     1       1.756  -1.661   0.134  0.00  0.00    +0.128 C 
ATOM     11  C   UNL     1       3.101  -0.984   0.350  0.00  0.00    +0.127 C 
ATOM     12  C   UNL     1       0.983   1.653   0.253  0.00  0.00    +0.239 C 
ATOM     13  C   UNL     1      -0.611  -1.016   0.378  0.00  0.00    +0.249 C 
ATOM     14  C   UNL     1      -1.679   0.015   0.291  0.00  0.00    +0.059 A 
ATOM     15  C   UNL     1      -1.490   1.377   0.577  0.00  0.00    +0.046 A 
ATOM     16  C   UNL     1       4.735   0.350  -1.072  0.00  0.00    +0.253 C 
ATOM     17  C   UNL     1      -2.984  -0.471   0.083  0.00  0.00    +0.023 A 
ATOM     18  C   UNL     1      -2.618   2.206   0.716  0.00  0.00    +0.024 A 
ATOM     19  C   UNL     1      -4.087   0.376   0.176  0.00  0.00    -0.017 A 
ATOM     21  C   UNL     1      -3.905   1.713   0.506  0.00  0.00    +0.010 A 
ATOM     31  H   UNL     1      -0.266   2.892   1.276  0.00  0.00    +0.155 HD
ENDROOT
BRANCH  19  22
ATOM     22  C   UNL     1      -5.420  -0.141  -0.047  0.00  0.00    -0.018 A 
ATOM     25  C   UNL     1      -6.151  -0.667   1.018  0.00  0.00    +0.008 A 
ATOM     26  C   UNL     1      -5.974  -0.112  -1.327  0.00  0.00    +0.008 A 
ATOM     28  C   UNL     1      -7.436  -1.165   0.804  0.00  0.00    +0.001 A 
ATOM     29  C   UNL     1      -7.260  -0.610  -1.541  0.00  0.00    +0.001 A 
ATOM     30  C   UNL     1      -7.990  -1.137  -0.476  0.00  0.00    +0.000 A 
ENDBRANCH  19  22
BRANCH  16  20
ATOM      1  S   UNL     1       6.367   0.574   1.107  0.00  0.00    -0.092 S 
ATOM     20  C   UNL     1       5.832  -0.230  -0.303  0.00  0.00    +0.074 A 
ATOM     23  C   UNL     1       6.538  -1.381  -0.550  0.00  0.00    +0.021 A 
ATOM     24  C   UNL     1       7.539  -1.612   0.437  0.00  0.00    +0.008 A 
ATOM     27  C   UNL     1       7.555  -0.624   1.397  0.00  0.00    +0.046 A 
ENDBRANCH  16  20
TORSDOF 2
