REMARK  Name = 51137061
REMARK  6 active torsions:
REMARK  status: ('A' for Active; 'I' for Inactive)
REMARK    1  A    between atoms: N_2  and  C_9
REMARK    2  A    between atoms: N_4  and  C_18
REMARK    3  A    between atoms: N_4  and  C_23
REMARK    4  A    between atoms: N_4  and  C_24
REMARK    5  A    between atoms: C_5  and  C_10
REMARK    6  A    between atoms: C_9  and  C_11
REMARK                            x       y       z     vdW  Elec       q    Type
REMARK                         _______ _______ _______ _____ _____    ______ ____
ROOT
ATOM      2  N   UNL     1      -0.613  -0.210  -0.246  0.00  0.00    -0.297 NA
ATOM      5  C   UNL     1       1.570  -0.723   0.443  0.00  0.00    +0.090 C 
ATOM      6  C   UNL     1       0.835   0.020   1.572  0.00  0.00    +0.029 C 
ATOM      7  C   UNL     1       0.714  -0.474  -0.807  0.00  0.00    +0.097 C 
ATOM      8  C   UNL     1      -0.370   0.666   0.900  0.00  0.00    +0.085 C 
ENDROOT
BRANCH   5  10
ATOM      1  O   UNL     1       3.933  -1.320   0.405  0.00  0.00    -0.439 OA
ATOM      3  N   UNL     1       3.505   0.863  -0.032  0.00  0.00    -0.213 NA
ATOM     10  C   UNL     1       3.015  -0.324   0.256  0.00  0.00    +0.201 A 
ATOM     12  C   UNL     1       5.126  -0.693   0.187  0.00  0.00    +0.155 A 
ATOM     13  C   UNL     1       4.860   0.643  -0.080  0.00  0.00    +0.110 A 
ATOM     19  C   UNL     1       6.395  -1.256   0.218  0.00  0.00    +0.048 A 
ATOM     20  C   UNL     1       5.932   1.508  -0.340  0.00  0.00    +0.031 A 
ATOM     21  C   UNL     1       7.454  -0.379  -0.044  0.00  0.00    +0.004 A 
ATOM     22  C   UNL     1       7.229   0.976  -0.317  0.00  0.00    +0.002 A 
ENDBRANCH   5  10
BRANCH   2   9
ATOM      9  C   UNL     1      -1.517   0.387  -1.217  0.00  0.00    +0.119 C 
BRANCH   9  11
ATOM     11  C   UNL     1      -2.957   0.254  -0.797  0.00  0.00    -0.033 A 
ATOM     14  C   UNL     1      -3.613  -0.970  -0.930  0.00  0.00    +0.007 A 
ATOM     15  C   UNL     1      -3.635   1.355  -0.274  0.00  0.00    +0.007 A 
ATOM     16  C   UNL     1      -4.947  -1.092  -0.541  0.00  0.00    +0.023 A 
ATOM     17  C   UNL     1      -4.969   1.233   0.115  0.00  0.00    +0.023 A 
ATOM     18  C   UNL     1      -5.625   0.009  -0.018  0.00  0.00    +0.029 A 
BRANCH  18   4
ATOM      4  N   UNL     1      -6.973  -0.115   0.376  0.00  0.00    -0.336 N 
ATOM     23  C   UNL     1      -7.664  -1.382   0.242  0.00  0.00    +0.129 C 
ATOM     24  C   UNL     1      -7.684   1.022   0.927  0.00  0.00    +0.129 C 
ENDBRANCH  18   4
ENDBRANCH   9  11
ENDBRANCH   2   9
TORSDOF 4
