REMARK  Name = 11884149
REMARK  7 active torsions:
REMARK  status: ('A' for Active; 'I' for Inactive)
REMARK    1  A    between atoms: O_3  and  C_13
REMARK    2  A    between atoms: O_3  and  C_17
REMARK    3  A    between atoms: N_8  and  C_12
REMARK    4  A    between atoms: N_9  and  C_20
REMARK    5  A    between atoms: C_16  and  C_18
REMARK    6  A    between atoms: C_27  and  C_28
REMARK    7  A    between atoms: C_28  and  C_29
REMARK                            x       y       z     vdW  Elec       q    Type
REMARK                         _______ _______ _______ _____ _____    ______ ____
ROOT
ATOM      1  O   UNL     1      -1.163   1.144   1.169  0.00  0.00    -0.368 OA
ATOM      2  O   UNL     1      -2.661   3.198  -0.547  0.00  0.00    -0.368 OA
ATOM     10  C   UNL     1      -2.734   1.758  -0.499  0.00  0.00    +0.173 C 
ATOM     11  C   UNL     1      -1.325   1.255  -0.255  0.00  0.00    +0.192 C 
ATOM     12  C   UNL     1      -3.494   1.317   0.731  0.00  0.00    +0.130 C 
ATOM     13  C   UNL     1      -0.478   2.364  -0.830  0.00  0.00    +0.235 C 
ATOM     14  C   UNL     1      -2.426   1.382   1.809  0.00  0.00    +0.185 C 
ATOM     15  C   UNL     1      -1.283   3.595  -0.479  0.00  0.00    +0.207 C 
ENDROOT
BRANCH  12   8
ATOM      4  O   UNL     1      -6.080   0.630  -0.158  0.00  0.00    -0.267 OA
ATOM      8  N   UNL     1      -4.004  -0.023   0.578  0.00  0.00    -0.301 N 
ATOM     16  C   UNL     1      -5.301  -0.279   0.131  0.00  0.00    +0.280 C 
ATOM     30  H   UNL     1      -3.380  -0.805   0.755  0.00  0.00    +0.150 HD
BRANCH  16  18
ATOM      6  O   UNL     1      -4.712  -2.581   0.315  0.00  0.00    -0.458 OA
ATOM     18  C   UNL     1      -5.663  -1.697  -0.005  0.00  0.00    +0.189 A 
ATOM     19  C   UNL     1      -6.817  -2.261  -0.405  0.00  0.00    +0.054 A 
ATOM     21  C   UNL     1      -6.578  -3.654  -0.334  0.00  0.00    +0.042 A 
ATOM     22  C   UNL     1      -5.284  -3.797   0.110  0.00  0.00    +0.196 A 
ENDBRANCH  16  18
ENDBRANCH  12   8
BRANCH  13   3
ATOM      3  O   UNL     1       0.825   2.412  -0.295  0.00  0.00    -0.442 OA
BRANCH   3  17
ATOM      5  O   UNL     1       1.260   0.339  -1.157  0.00  0.00    -0.226 OA
ATOM      9  N   UNL     1       2.868   1.525   0.062  0.00  0.00    -0.251 N 
ATOM     17  C   UNL     1       1.634   1.318  -0.523  0.00  0.00    +0.405 C 
ATOM     31  H   UNL     1       2.990   2.409   0.550  0.00  0.00    +0.158 HD
BRANCH   9  20
ATOM     20  C   UNL     1       3.985   0.659   0.069  0.00  0.00    +0.036 A 
ATOM     23  C   UNL     1       3.898  -0.566  -0.574  0.00  0.00    +0.024 A 
ATOM     24  C   UNL     1       5.144   1.051   0.718  0.00  0.00    +0.024 A 
ATOM     25  C   UNL     1       5.001  -1.421  -0.568  0.00  0.00    +0.013 A 
ATOM     26  C   UNL     1       6.247   0.197   0.724  0.00  0.00    +0.013 A 
ATOM     27  C   UNL     1       6.175  -1.039   0.082  0.00  0.00    +0.017 A 
BRANCH  27  28
ATOM      7  O   UNL     1       8.388  -1.616   0.659  0.00  0.00    -0.292 OA
ATOM     28  C   UNL     1       7.325  -1.930   0.088  0.00  0.00    +0.160 C 
ATOM     29  C   UNL     1       7.254  -3.282  -0.614  0.00  0.00    +0.091 C 
ENDBRANCH  27  28
ENDBRANCH   9  20
ENDBRANCH   3  17
ENDBRANCH  13   3
TORSDOF 6
