REMARK  Name = 38029402
REMARK  12 active torsions:
REMARK  status: ('A' for Active; 'I' for Inactive)
REMARK    1  A    between atoms: N_4  and  C_14
REMARK    2  A    between atoms: N_5  and  C_21
REMARK    3  A    between atoms: C_7  and  C_11
REMARK    4  A    between atoms: C_8  and  C_14
REMARK    5  A    between atoms: C_10  and  C_15
REMARK    6  A    between atoms: C_11  and  C_16
REMARK    7  A    between atoms: C_11  and  C_17
REMARK    8  A    between atoms: C_12  and  C_18
REMARK    9  A    between atoms: C_15  and  C_19
REMARK   10  A    between atoms: C_20  and  C_22
REMARK   11  A    between atoms: C_21  and  C_23
REMARK   12  A    between atoms: C_33  and  C_34
REMARK                            x       y       z     vdW  Elec       q    Type
REMARK                         _______ _______ _______ _____ _____    ______ ____
ROOT
ATOM      7  C   UNL     1       0.295   2.131  -1.034  0.00  0.00    +0.000 C 
ATOM      8  C   UNL     1       1.648   2.749  -1.469  0.00  0.00    +0.032 C 
ATOM      9  C   UNL     1      -0.308   2.928   0.133  0.00  0.00    +0.012 C 
ATOM     10  C   UNL     1       0.627   2.967   1.357  0.00  0.00    +0.023 C 
ATOM     12  C   UNL     1       2.050   3.310   0.967  0.00  0.00    -0.073 C 
ATOM     13  C   UNL     1       2.485   3.220  -0.302  0.00  0.00    -0.022 C 
ATOM     18  C   UNL     1       2.952   3.805   2.064  0.00  0.00    +0.039 C 
ENDROOT
BRANCH   7  11
ATOM     11  C   UNL     1      -0.703   2.074  -2.194  0.00  0.00    -0.013 C 
ATOM     16  C   UNL     1      -1.736   0.978  -1.953  0.00  0.00    +0.007 C 
ATOM     17  C   UNL     1      -1.382   3.427  -2.378  0.00  0.00    +0.007 C 
ENDBRANCH   7  11
BRANCH   8  14
ATOM     14  C   UNL     1       2.460   1.763  -2.315  0.00  0.00    +0.112 C 
BRANCH  14   4
ATOM      3  O   UNL     1       1.782  -0.981  -2.821  0.00  0.00    -0.270 OA
ATOM      4  N   UNL     1       2.852   0.629  -1.537  0.00  0.00    -0.311 N 
ATOM     20  C   UNL     1       2.477  -0.675  -1.855  0.00  0.00    +0.244 C 
ATOM     35  H   UNL     1       3.422   0.808  -0.718  0.00  0.00    +0.149 HD
BRANCH  20  22
ATOM      1  F   UNL     1       4.242  -4.701   1.638  0.00  0.00    -0.205 F 
ATOM     22  C   UNL     1       2.944  -1.741  -0.931  0.00  0.00    +0.037 A 
ATOM     24  C   UNL     1       2.215  -2.924  -0.805  0.00  0.00    +0.016 A 
ATOM     25  C   UNL     1       4.111  -1.558  -0.189  0.00  0.00    +0.016 A 
ATOM     28  C   UNL     1       2.654  -3.924   0.063  0.00  0.00    +0.039 A 
ATOM     29  C   UNL     1       4.550  -2.558   0.678  0.00  0.00    +0.039 A 
ATOM     30  C   UNL     1       3.821  -3.741   0.804  0.00  0.00    +0.123 A 
ENDBRANCH  20  22
ENDBRANCH  14   4
ENDBRANCH   8  14
BRANCH  10  15
ATOM     15  C   UNL     1       0.574   1.647   2.135  0.00  0.00    +0.103 C 
BRANCH  15  19
ATOM      2  O   UNL     1      -1.724   2.089   2.750  0.00  0.00    -0.276 OA
ATOM      5  N   UNL     1      -0.988  -0.108   2.573  0.00  0.00    -0.311 N 
ATOM     19  C   UNL     1      -0.839   1.270   2.519  0.00  0.00    +0.214 C 
ATOM     36  H   UNL     1      -0.195  -0.707   2.362  0.00  0.00    +0.149 HD
BRANCH   5  21
ATOM     21  C   UNL     1      -2.234  -0.754   2.917  0.00  0.00    +0.139 C 
BRANCH  21  23
ATOM     23  C   UNL     1      -3.083  -1.019   1.707  0.00  0.00    -0.030 A 
ATOM     26  C   UNL     1      -4.358  -0.461   1.615  0.00  0.00    +0.006 A 
ATOM     27  C   UNL     1      -2.596  -1.822   0.676  0.00  0.00    +0.006 A 
ATOM     31  C   UNL     1      -5.147  -0.707   0.491  0.00  0.00    +0.019 A 
ATOM     32  C   UNL     1      -3.385  -2.069  -0.447  0.00  0.00    +0.019 A 
ATOM     33  C   UNL     1      -4.660  -1.511  -0.540  0.00  0.00    +0.052 A 
BRANCH  33  34
ATOM      6  N   UNL     1      -6.125  -1.968  -2.626  0.00  0.00    -0.191 NA
ATOM     34  C   UNL     1      -5.469  -1.763  -1.691  0.00  0.00    +0.099 C 
ENDBRANCH  33  34
ENDBRANCH  21  23
ENDBRANCH   5  21
ENDBRANCH  15  19
ENDBRANCH  10  15
TORSDOF 9
