REMARK  Name = 38028154
REMARK  11 active torsions:
REMARK  status: ('A' for Active; 'I' for Inactive)
REMARK    1  A    between atoms: N_5  and  C_15
REMARK    2  A    between atoms: N_7  and  C_31
REMARK    3  A    between atoms: C_8  and  C_12
REMARK    4  A    between atoms: C_9  and  C_15
REMARK    5  A    between atoms: C_11  and  C_16
REMARK    6  A    between atoms: C_12  and  C_17
REMARK    7  A    between atoms: C_12  and  C_18
REMARK    8  A    between atoms: C_13  and  C_19
REMARK    9  A    between atoms: C_16  and  C_20
REMARK   10  A    between atoms: C_23  and  C_26
REMARK   11  A    between atoms: C_32  and  C_33
REMARK                            x       y       z     vdW  Elec       q    Type
REMARK                         _______ _______ _______ _____ _____    ______ ____
ROOT
ATOM      8  C   UNL     1       2.972  -1.202  -0.383  0.00  0.00    +0.000 C 
ATOM      9  C   UNL     1       2.954  -2.316   0.694  0.00  0.00    +0.032 C 
ATOM     10  C   UNL     1       3.627   0.071   0.173  0.00  0.00    +0.012 C 
ATOM     11  C   UNL     1       2.894   0.608   1.418  0.00  0.00    +0.023 C 
ATOM     13  C   UNL     1       2.600  -0.493   2.416  0.00  0.00    -0.073 C 
ATOM     14  C   UNL     1       2.645  -1.794   2.078  0.00  0.00    -0.022 C 
ATOM     19  C   UNL     1       2.297  -0.066   3.825  0.00  0.00    +0.039 C 
ENDROOT
BRANCH   8  12
ATOM     12  C   UNL     1       3.704  -1.650  -1.652  0.00  0.00    -0.013 C 
ATOM     17  C   UNL     1       3.219  -0.850  -2.856  0.00  0.00    +0.007 C 
ATOM     18  C   UNL     1       5.212  -1.503  -1.476  0.00  0.00    +0.007 C 
ENDBRANCH   8  12
BRANCH   9  15
ATOM     15  C   UNL     1       1.957  -3.421   0.330  0.00  0.00    +0.112 C 
BRANCH  15   5
ATOM      3  O   UNL     1       0.114  -3.371  -1.871  0.00  0.00    -0.270 OA
ATOM      5  N   UNL     1       0.617  -2.923   0.350  0.00  0.00    -0.311 N 
ATOM     23  C   UNL     1      -0.214  -2.937  -0.769  0.00  0.00    +0.244 C 
ATOM     34  H   UNL     1       0.245  -2.633   1.248  0.00  0.00    +0.149 HD
BRANCH  23  26
ATOM     26  C   UNL     1      -1.571  -2.358  -0.592  0.00  0.00    +0.037 A 
ATOM     27  C   UNL     1      -2.626  -2.799  -1.389  0.00  0.00    +0.015 A 
ATOM     28  C   UNL     1      -1.789  -1.374   0.372  0.00  0.00    +0.015 A 
ATOM     29  C   UNL     1      -3.900  -2.257  -1.223  0.00  0.00    +0.024 A 
ATOM     30  C   UNL     1      -3.063  -0.831   0.539  0.00  0.00    +0.024 A 
ATOM     31  C   UNL     1      -4.119  -1.272  -0.259  0.00  0.00    +0.033 A 
BRANCH  31   7
ATOM      4  O   UNL     1      -5.110   0.842   1.642  0.00  0.00    -0.276 OA
ATOM      7  N   UNL     1      -5.393  -0.731  -0.092  0.00  0.00    -0.286 N 
ATOM     32  C   UNL     1      -5.802   0.257   0.815  0.00  0.00    +0.214 C 
ATOM     33  C   UNL     1      -7.271   0.568   0.679  0.00  0.00    +0.109 C 
ATOM     35  H   UNL     1      -6.109  -1.105  -0.711  0.00  0.00    +0.155 HD
ENDBRANCH  31   7
ENDBRANCH  23  26
ENDBRANCH  15   5
ENDBRANCH   9  15
BRANCH  11  16
ATOM     16  C   UNL     1       1.611   1.350   1.026  0.00  0.00    +0.103 C 
BRANCH  16  20
ATOM      1  O   UNL     1       3.139   3.035   0.358  0.00  0.00    -0.276 OA
ATOM      2  O   UNL     1      -1.101   4.790  -1.485  0.00  0.00    -0.377 OA
ATOM      6  N   UNL     1       0.886   3.488   0.031  0.00  0.00    -0.297 N 
ATOM     20  C   UNL     1       1.956   2.698   0.445  0.00  0.00    +0.216 C 
ATOM     21  C   UNL     1       1.132   4.809  -0.549  0.00  0.00    +0.136 C 
ATOM     22  C   UNL     1      -0.532   3.175   0.234  0.00  0.00    +0.136 C 
ATOM     24  C   UNL     1       0.278   5.009  -1.792  0.00  0.00    +0.179 C 
ATOM     25  C   UNL     1      -1.321   3.448  -1.040  0.00  0.00    +0.179 C 
ENDBRANCH  16  20
ENDBRANCH  11  16
TORSDOF 7
