REMARK  Name = 40533467
REMARK  4 active torsions:
REMARK  status: ('A' for Active; 'I' for Inactive)
REMARK    1  A    between atoms: N_5  and  C_20
REMARK    2  A    between atoms: C_17  and  C_19
REMARK    3  A    between atoms: C_20  and  C_21
REMARK    4  A    between atoms: C_20  and  C_22
REMARK                            x       y       z     vdW  Elec       q    Type
REMARK                         _______ _______ _______ _____ _____    ______ ____
ROOT
ATOM      1  O   UNL     1      -1.514   0.070  -1.981  0.00  0.00    -0.267 OA
ATOM      2  O   UNL     1       2.864  -1.072   1.996  0.00  0.00    -0.253 OA
ATOM      3  N   UNL     1       2.944   0.558   0.344  0.00  0.00    -0.285 N 
ATOM      4  N   UNL     1      -0.019   1.295  -0.677  0.00  0.00    -0.311 N 
ATOM      5  N   UNL     1       3.347  -1.719  -0.151  0.00  0.00    -0.297 N 
ATOM      7  C   UNL     1       2.261   2.063  -1.548  0.00  0.00    +0.027 C 
ATOM      8  C   UNL     1       1.586   2.614   0.747  0.00  0.00    +0.054 C 
ATOM      9  C   UNL     1       2.105   3.209  -0.559  0.00  0.00    +0.018 C 
ATOM     10  C   UNL     1       3.253   1.007  -1.022  0.00  0.00    +0.114 C 
ATOM     11  C   UNL     1       0.879   1.461  -1.827  0.00  0.00    +0.130 C 
ATOM     12  C   UNL     1       2.627   1.626   1.301  0.00  0.00    +0.119 C 
ATOM     13  C   UNL     1       0.259   1.908   0.547  0.00  0.00    +0.027 A 
ATOM     14  C   UNL     1      -0.633   1.847   1.548  0.00  0.00    +0.022 A 
ATOM     15  C   UNL     1      -1.217   0.591  -0.905  0.00  0.00    +0.259 A 
ATOM     16  C   UNL     1       3.038  -0.766   0.812  0.00  0.00    +0.302 C 
ATOM     17  C   UNL     1      -2.180   0.507   0.248  0.00  0.00    +0.048 A 
ATOM     18  C   UNL     1      -1.867   1.130   1.394  0.00  0.00    +0.015 A 
ATOM     27  H   UNL     1       3.361  -1.489  -1.134  0.00  0.00    +0.150 HD
ENDROOT
BRANCH  17  19
ATOM      6  N   UNL     1      -5.857  -0.255   0.223  0.00  0.00    -0.263 NA
ATOM     19  C   UNL     1      -3.441  -0.247   0.136  0.00  0.00    +0.005 A 
ATOM     23  C   UNL     1      -3.440  -1.608  -0.149  0.00  0.00    +0.011 A 
ATOM     24  C   UNL     1      -4.665   0.377   0.312  0.00  0.00    +0.119 A 
ATOM     25  C   UNL     1      -4.646  -2.293  -0.248  0.00  0.00    +0.020 A 
ATOM     26  C   UNL     1      -5.816  -1.577  -0.055  0.00  0.00    +0.111 A 
ENDBRANCH  17  19
BRANCH   5  20
ATOM     20  C   UNL     1       3.484  -3.122   0.172  0.00  0.00    +0.068 C 
ATOM     21  C   UNL     1       2.136  -3.826   0.080  0.00  0.00    +0.027 C 
ATOM     22  C   UNL     1       4.513  -3.777  -0.741  0.00  0.00    +0.027 C 
ENDBRANCH   5  20
TORSDOF 2
