REMARK  Name = 7051348
REMARK  4 active torsions:
REMARK  status: ('A' for Active; 'I' for Inactive)
REMARK    1  A    between atoms: S_1  and  N_9
REMARK    2  A    between atoms: S_1  and  C_28
REMARK    3  A    between atoms: N_9  and  C_20
REMARK    4  A    between atoms: C_19  and  C_22
REMARK                            x       y       z     vdW  Elec       q    Type
REMARK                         _______ _______ _______ _____ _____    ______ ____
ROOT
ATOM      3  O   UNL     1      -2.317   2.860  -0.946  0.00  0.00    -0.266 OA
ATOM      4  O   UNL     1       2.258   1.103  -2.627  0.00  0.00    -0.270 OA
ATOM      7  N   UNL     1       2.589   2.024  -0.502  0.00  0.00    -0.297 N 
ATOM      8  N   UNL     1      -0.357   2.849   0.337  0.00  0.00    -0.310 N 
ATOM     10  C   UNL     1       1.671   4.318  -0.200  0.00  0.00    +0.027 C 
ATOM     11  C   UNL     1       1.753   2.770   1.714  0.00  0.00    +0.054 C 
ATOM     12  C   UNL     1       1.955   4.226   1.296  0.00  0.00    +0.018 C 
ATOM     13  C   UNL     1       2.628   3.404  -0.986  0.00  0.00    +0.113 C 
ATOM     14  C   UNL     1       0.200   3.961  -0.446  0.00  0.00    +0.130 C 
ATOM     15  C   UNL     1       2.748   1.872   0.954  0.00  0.00    +0.117 C 
ATOM     16  C   UNL     1       0.334   2.313   1.433  0.00  0.00    +0.027 A 
ATOM     17  C   UNL     1      -0.240   1.373   2.207  0.00  0.00    +0.024 A 
ATOM     18  C   UNL     1      -1.656   2.419  -0.007  0.00  0.00    +0.274 A 
ATOM     19  C   UNL     1       2.391   0.982  -1.410  0.00  0.00    +0.247 C 
ATOM     20  C   UNL     1      -2.225   1.364   0.869  0.00  0.00    +0.112 A 
ATOM     21  C   UNL     1      -1.559   0.880   1.918  0.00  0.00    +0.031 A 
ENDROOT
BRANCH  19  22
ATOM     22  C   UNL     1       2.314  -0.384  -0.882  0.00  0.00    +0.037 A 
ATOM     23  C   UNL     1       3.473  -1.146  -0.758  0.00  0.00    +0.021 A 
ATOM     24  C   UNL     1       1.084  -0.911  -0.507  0.00  0.00    +0.013 A 
ATOM     25  C   UNL     1       3.416  -2.456  -0.254  0.00  0.00    -0.017 A 
ATOM     26  C   UNL     1       1.008  -2.210  -0.004  0.00  0.00    +0.009 A 
ATOM     27  C   UNL     1       2.165  -2.995   0.129  0.00  0.00    -0.018 A 
ATOM     29  C   UNL     1       4.573  -3.241  -0.121  0.00  0.00    +0.008 A 
ATOM     30  C   UNL     1       2.107  -4.305   0.634  0.00  0.00    +0.008 A 
ATOM     32  C   UNL     1       4.497  -4.540   0.382  0.00  0.00    +0.001 A 
ATOM     33  C   UNL     1       3.267  -5.071   0.759  0.00  0.00    +0.001 A 
ENDBRANCH  19  22
BRANCH  20   9
ATOM      9  N   UNL     1      -3.507   0.847   0.613  0.00  0.00    -0.211 N 
ATOM     36  H   UNL     1      -3.938   0.376   1.421  0.00  0.00    +0.174 HD
BRANCH   9   1
ATOM      1  S   UNL     1      -3.748   0.088  -0.880  0.00  0.00    +0.079 S 
ATOM      5  O   UNL     1      -4.902   0.667  -1.542  0.00  0.00    -0.149 OA
ATOM      6  O   UNL     1      -2.483  -0.023  -1.581  0.00  0.00    -0.149 OA
BRANCH   1  28
ATOM      2  S   UNL     1      -5.739  -1.636   0.390  0.00  0.00    -0.077 S 
ATOM     28  C   UNL     1      -4.204  -1.537  -0.352  0.00  0.00    +0.146 A 
ATOM     31  C   UNL     1      -3.570  -2.751  -0.417  0.00  0.00    +0.036 A 
ATOM     34  C   UNL     1      -4.359  -3.790   0.155  0.00  0.00    +0.010 A 
ATOM     35  C   UNL     1      -5.564  -3.322   0.632  0.00  0.00    +0.047 A 
ENDBRANCH   1  28
ENDBRANCH   9   1
ENDBRANCH  20   9
TORSDOF 4
