REMARK  Name = 25313746
REMARK  11 active torsions:
REMARK  status: ('A' for Active; 'I' for Inactive)
REMARK    1  A    between atoms: O_3  and  C_26
REMARK    2  A    between atoms: O_3  and  C_32
REMARK    3  A    between atoms: O_4  and  C_28
REMARK    4  A    between atoms: O_4  and  C_33
REMARK    5  A    between atoms: N_6  and  C_20
REMARK    6  A    between atoms: C_9  and  C_15
REMARK    7  A    between atoms: C_10  and  C_14
REMARK    8  A    between atoms: C_14  and  C_16
REMARK    9  A    between atoms: C_15  and  C_17
REMARK   10  A    between atoms: C_19  and  C_22
REMARK   11  A    between atoms: C_20  and  C_21
REMARK                            x       y       z     vdW  Elec       q    Type
REMARK                         _______ _______ _______ _____ _____    ______ ____
ROOT
ATOM      5  N   UNL     1      -3.092   4.152  -0.067  0.00  0.00    -0.316 NA
ATOM      9  C   UNL     1      -4.090   1.411   0.188  0.00  0.00    +0.004 C 
ATOM     10  C   UNL     1      -2.587   1.744   0.344  0.00  0.00    +0.012 C 
ATOM     11  C   UNL     1      -4.801   2.465  -0.674  0.00  0.00    +0.019 C 
ATOM     12  C   UNL     1      -2.434   3.198   0.829  0.00  0.00    +0.085 C 
ATOM     13  C   UNL     1      -4.526   3.880  -0.167  0.00  0.00    +0.081 C 
ATOM     34  H   UNL     1      -2.672   4.110  -0.993  0.00  0.00    +0.122 HD
ENDROOT
BRANCH  10  14
ATOM     14  C   UNL     1      -1.763   1.505  -0.928  0.00  0.00    +0.064 C 
BRANCH  14  16
ATOM      2  O   UNL     1       1.553   0.367  -0.108  0.00  0.00    -0.353 OA
ATOM      7  N   UNL     1       0.203   0.147  -0.351  0.00  0.00    -0.083 NA
ATOM     16  C   UNL     1      -0.302   1.356  -0.613  0.00  0.00    +0.085 A 
ATOM     18  C   UNL     1       0.672   2.367  -0.550  0.00  0.00    +0.077 A 
ATOM     19  C   UNL     1       1.821   1.693  -0.229  0.00  0.00    +0.186 A 
BRANCH  19  22
ATOM      8  N   UNL     1       4.014   1.050   0.298  0.00  0.00    -0.252 NA
ATOM     22  C   UNL     1       3.185   2.074  -0.004  0.00  0.00    +0.109 A 
ATOM     25  C   UNL     1       3.587   3.397  -0.098  0.00  0.00    +0.031 A 
ATOM     29  C   UNL     1       4.927   3.687   0.133  0.00  0.00    +0.004 A 
ATOM     30  C   UNL     1       5.309   1.371   0.516  0.00  0.00    +0.111 A 
ATOM     31  C   UNL     1       5.811   2.660   0.447  0.00  0.00    +0.020 A 
ENDBRANCH  19  22
ENDBRANCH  14  16
ENDBRANCH  10  14
BRANCH   9  15
ATOM     15  C   UNL     1      -4.347   0.004  -0.351  0.00  0.00    +0.099 C 
BRANCH  15  17
ATOM      1  O   UNL     1      -3.555  -0.940   1.731  0.00  0.00    -0.276 OA
ATOM      6  N   UNL     1      -3.386  -2.185  -0.224  0.00  0.00    -0.311 N 
ATOM     17  C   UNL     1      -3.727  -1.066   0.521  0.00  0.00    +0.214 C 
ATOM     35  H   UNL     1      -3.560  -2.193  -1.225  0.00  0.00    +0.149 HD
BRANCH   6  20
ATOM     20  C   UNL     1      -2.774  -3.361   0.352  0.00  0.00    +0.139 C 
BRANCH  20  21
ATOM     21  C   UNL     1      -1.275  -3.276   0.341  0.00  0.00    -0.027 A 
ATOM     23  C   UNL     1      -0.575  -3.469  -0.850  0.00  0.00    +0.054 A 
ATOM     24  C   UNL     1      -0.583  -3.004   1.521  0.00  0.00    +0.009 A 
ATOM     26  C   UNL     1       0.818  -3.390  -0.861  0.00  0.00    +0.162 A 
ATOM     27  C   UNL     1       0.810  -2.925   1.510  0.00  0.00    +0.050 A 
ATOM     28  C   UNL     1       1.510  -3.118   0.319  0.00  0.00    +0.162 A 
BRANCH  26   3
ATOM      3  O   UNL     1       1.490  -3.578  -2.031  0.00  0.00    -0.491 OA
ATOM     32  C   UNL     1       1.735  -2.422  -2.830  0.00  0.00    +0.277 C 
ENDBRANCH  26   3
BRANCH  28   4
ATOM      4  O   UNL     1       2.870  -3.038   0.321  0.00  0.00    -0.491 OA
ATOM     33  C   UNL     1       3.501  -2.756   1.568  0.00  0.00    +0.277 C 
ENDBRANCH  28   4
ENDBRANCH  20  21
ENDBRANCH   6  20
ENDBRANCH  15  17
ENDBRANCH   9  15
TORSDOF 9
