REMARK  Name = 28991027
REMARK  7 active torsions:
REMARK  status: ('A' for Active; 'I' for Inactive)
REMARK    1  A    between atoms: O_3  and  C_21
REMARK    2  A    between atoms: O_3  and  C_22
REMARK    3  A    between atoms: N_5  and  C_14
REMARK    4  A    between atoms: N_6  and  C_15
REMARK    5  A    between atoms: C_8  and  C_14
REMARK    6  A    between atoms: C_9  and  C_15
REMARK    7  A    between atoms: C_20  and  C_21
REMARK                            x       y       z     vdW  Elec       q    Type
REMARK                         _______ _______ _______ _____ _____    ______ ____
ROOT
ATOM      4  N   UNL     1      -0.495  -2.455   0.423  0.00  0.00    -0.298 NA
ATOM      7  C   UNL     1       1.039  -0.925  -1.018  0.00  0.00    -0.003 C 
ATOM      8  C   UNL     1       1.734  -1.312   0.308  0.00  0.00    +0.020 C 
ATOM      9  C   UNL     1      -1.233  -1.227   0.021  0.00  0.00    +0.074 C 
ATOM     10  C   UNL     1      -0.301  -0.233  -0.708  0.00  0.00    +0.024 C 
ATOM     11  C   UNL     1       0.728  -2.096   1.181  0.00  0.00    +0.089 C 
ATOM     12  C   UNL     1       0.714  -2.240  -1.753  0.00  0.00    +0.019 C 
ATOM     13  C   UNL     1      -0.081  -3.163  -0.813  0.00  0.00    +0.085 C 
ENDROOT
BRANCH   8  14
ATOM     14  C   UNL     1       2.315  -0.115   1.055  0.00  0.00    +0.089 C 
BRANCH  14   5
ATOM      1  O   UNL     1       5.630   2.123  -0.217  0.00  0.00    -0.377 OA
ATOM      5  N   UNL     1       3.245   0.628   0.207  0.00  0.00    -0.298 NA
ATOM     16  C   UNL     1       4.564  -0.019   0.188  0.00  0.00    +0.112 C 
ATOM     17  C   UNL     1       3.373   2.018   0.666  0.00  0.00    +0.112 C 
ATOM     18  C   UNL     1       5.521   0.780  -0.692  0.00  0.00    +0.175 C 
ATOM     19  C   UNL     1       4.356   2.769  -0.227  0.00  0.00    +0.175 C 
ENDBRANCH  14   5
ENDBRANCH   8  14
BRANCH   9  15
ATOM     15  C   UNL     1      -1.956  -0.569   1.199  0.00  0.00    +0.123 C 
BRANCH  15   6
ATOM      2  O   UNL     1      -4.726  -0.702   0.378  0.00  0.00    -0.273 OA
ATOM      6  N   UNL     1      -2.789   0.531   0.743  0.00  0.00    -0.312 N 
ATOM     20  C   UNL     1      -4.109   0.360   0.372  0.00  0.00    +0.239 C 
ATOM     23  H   UNL     1      -2.372   1.456   0.697  0.00  0.00    +0.149 HD
BRANCH  20  21
ATOM     21  C   UNL     1      -4.736   1.669  -0.058  0.00  0.00    +0.255 C 
BRANCH  21   3
ATOM      3  O   UNL     1      -6.087   1.479  -0.422  0.00  0.00    -0.374 OA
ATOM     22  C   UNL     1      -6.702   2.697  -0.831  0.00  0.00    +0.194 C 
ENDBRANCH  21   3
ENDBRANCH  20  21
ENDBRANCH  15   6
ENDBRANCH   9  15
TORSDOF 6
