REMARK  Name = 45784236
REMARK  3 active torsions:
REMARK  status: ('A' for Active; 'I' for Inactive)
REMARK    1  A    between atoms: N_2  and  C_11
REMARK    2  A    between atoms: C_6  and  C_10
REMARK    3  A    between atoms: C_11  and  C_13
REMARK                            x       y       z     vdW  Elec       q    Type
REMARK                         _______ _______ _______ _____ _____    ______ ____
ROOT
ATOM      2  N   UNL     1      -2.051  -0.280  -0.112  0.00  0.00    -0.296 NA
ATOM      6  C   UNL     1       0.152  -0.824   0.479  0.00  0.00    +0.070 C 
ATOM      7  C   UNL     1      -0.553  -0.161   1.675  0.00  0.00    +0.028 C 
ATOM      8  C   UNL     1      -0.740  -0.499  -0.726  0.00  0.00    +0.096 C 
ATOM      9  C   UNL     1      -1.779   0.521   1.082  0.00  0.00    +0.085 C 
ENDROOT
BRANCH   6  10
ATOM      1  F   UNL     1       7.366  -0.434  -0.278  0.00  0.00    -0.205 F 
ATOM      3  N   UNL     1       2.607  -1.317   0.314  0.00  0.00    -0.341 N 
ATOM      4  N   UNL     1       2.030   0.813   0.057  0.00  0.00    -0.232 NA
ATOM     10  C   UNL     1       1.590  -0.405   0.278  0.00  0.00    +0.113 A 
ATOM     12  C   UNL     1       3.782  -0.643   0.101  0.00  0.00    +0.069 A 
ATOM     14  C   UNL     1       3.396   0.685  -0.057  0.00  0.00    +0.089 A 
ATOM     15  C   UNL     1       5.110  -1.068   0.034  0.00  0.00    +0.066 A 
ATOM     16  C   UNL     1       4.378   1.661  -0.296  0.00  0.00    +0.032 A 
ATOM     18  C   UNL     1       6.074  -0.084  -0.204  0.00  0.00    +0.125 A 
ATOM     19  C   UNL     1       5.717   1.257  -0.367  0.00  0.00    +0.040 A 
ATOM     23  H   UNL     1       2.514  -2.312   0.469  0.00  0.00    +0.167 HD
ENDBRANCH   6  10
BRANCH   2  11
ATOM     11  C   UNL     1      -2.986   0.373  -1.016  0.00  0.00    +0.139 C 
BRANCH  11  13
ATOM      5  N   UNL     1      -4.994   1.276   0.018  0.00  0.00    -0.259 NA
ATOM     13  C   UNL     1      -4.412   0.204  -0.565  0.00  0.00    +0.055 A 
ATOM     17  C   UNL     1      -5.049  -1.010  -0.765  0.00  0.00    +0.024 A 
ATOM     20  C   UNL     1      -6.366  -1.133  -0.339  0.00  0.00    +0.003 A 
ATOM     21  C   UNL     1      -6.275   1.120   0.420  0.00  0.00    +0.111 A 
ATOM     22  C   UNL     1      -6.998  -0.052   0.267  0.00  0.00    +0.020 A 
ENDBRANCH  11  13
ENDBRANCH   2  11
TORSDOF 3
