REMARK  Name = 11886090
REMARK  8 active torsions:
REMARK  status: ('A' for Active; 'I' for Inactive)
REMARK    1  A    between atoms: O_3  and  C_16
REMARK    2  A    between atoms: O_3  and  C_21
REMARK    3  A    between atoms: N_6  and  C_15
REMARK    4  A    between atoms: N_10  and  C_32
REMARK    5  A    between atoms: N_11  and  C_25
REMARK    6  A    between atoms: C_19  and  C_20
REMARK    7  A    between atoms: C_24  and  C_25
REMARK    8  A    between atoms: C_35  and  C_38
REMARK                            x       y       z     vdW  Elec       q    Type
REMARK                         _______ _______ _______ _____ _____    ______ ____
ROOT
ATOM      1  O   UNL     1      -2.494   3.645  -0.421  0.00  0.00    -0.368 OA
ATOM      2  O   UNL     1      -2.708   0.968   1.806  0.00  0.00    -0.368 OA
ATOM     13  C   UNL     1      -3.373   1.846   0.892  0.00  0.00    +0.177 C 
ATOM     14  C   UNL     1      -2.644   3.177   0.917  0.00  0.00    +0.192 C 
ATOM     15  C   UNL     1      -3.223   1.392  -0.552  0.00  0.00    +0.168 C 
ATOM     16  C   UNL     1      -1.325   2.859   1.591  0.00  0.00    +0.235 C 
ATOM     17  C   UNL     1      -3.147   2.717  -1.302  0.00  0.00    +0.190 C 
ATOM     18  C   UNL     1      -1.725   1.736   2.525  0.00  0.00    +0.207 C 
ENDROOT
BRANCH  15   6
ATOM      6  N   UNL     1      -4.254   0.477  -1.022  0.00  0.00    -0.217 N 
ATOM      7  N   UNL     1      -5.394   0.942  -1.550  0.00  0.00    -0.043 NA
ATOM      8  N   UNL     1      -5.404  -1.287  -1.540  0.00  0.00    -0.108 NA
ATOM      9  N   UNL     1      -6.093  -0.141  -1.866  0.00  0.00    -0.023 NA
ATOM     19  C   UNL     1      -4.268  -0.881  -1.019  0.00  0.00    +0.182 A 
BRANCH  19  20
ATOM     20  C   UNL     1      -3.199  -1.708  -0.521  0.00  0.00    +0.021 A 
ATOM     22  C   UNL     1      -3.187  -2.100   0.818  0.00  0.00    +0.012 A 
ATOM     23  C   UNL     1      -2.176  -2.116  -1.376  0.00  0.00    +0.012 A 
ATOM     24  C   UNL     1      -1.129  -3.309   0.445  0.00  0.00    -0.033 A 
ATOM     26  C   UNL     1      -2.152  -2.901   1.301  0.00  0.00    +0.005 A 
ATOM     27  C   UNL     1      -1.141  -2.916  -0.893  0.00  0.00    +0.005 A 
BRANCH  24  25
ATOM     25  C   UNL     1      -0.022  -4.165   0.961  0.00  0.00    +0.119 C 
BRANCH  25  11
ATOM      5  O   UNL     1       4.051  -3.154   0.931  0.00  0.00    -0.377 OA
ATOM     11  N   UNL     1       1.291  -3.708   0.511  0.00  0.00    -0.294 NA
ATOM     28  C   UNL     1       2.284  -4.786   0.618  0.00  0.00    +0.113 C 
ATOM     29  C   UNL     1       1.732  -2.540   1.287  0.00  0.00    +0.113 C 
ATOM     30  C   UNL     1       3.648  -4.283   0.155  0.00  0.00    +0.175 C 
ATOM     31  C   UNL     1       3.108  -2.089   0.807  0.00  0.00    +0.175 C 
ENDBRANCH  25  11
ENDBRANCH  24  25
ENDBRANCH  19  20
ENDBRANCH  15   6
BRANCH  16   3
ATOM      3  O   UNL     1      -0.379   2.366   0.648  0.00  0.00    -0.442 OA
BRANCH   3  21
ATOM      4  O   UNL     1       1.333   3.058   1.997  0.00  0.00    -0.226 OA
ATOM     10  N   UNL     1       1.733   1.994  -0.050  0.00  0.00    -0.251 N 
ATOM     21  C   UNL     1       0.955   2.523   0.962  0.00  0.00    +0.405 C 
ATOM     39  H   UNL     1       1.232   1.587  -0.836  0.00  0.00    +0.158 HD
BRANCH  10  32
ATOM     32  C   UNL     1       3.144   1.947  -0.129  0.00  0.00    +0.038 A 
ATOM     33  C   UNL     1       3.762   1.369  -1.238  0.00  0.00    +0.042 A 
ATOM     34  C   UNL     1       3.917   2.479   0.903  0.00  0.00    +0.023 A 
ATOM     35  C   UNL     1       5.154   1.323  -1.315  0.00  0.00    +0.054 A 
ATOM     36  C   UNL     1       5.309   2.433   0.825  0.00  0.00    +0.003 A 
ATOM     37  C   UNL     1       5.927   1.854  -0.283  0.00  0.00    +0.019 A 
BRANCH  35  38
ATOM     12  N   UNL     1       6.302   0.249  -3.373  0.00  0.00    -0.191 NA
ATOM     38  C   UNL     1       5.787   0.730  -2.450  0.00  0.00    +0.099 C 
ENDBRANCH  35  38
ENDBRANCH  10  32
ENDBRANCH   3  21
ENDBRANCH  16   3
TORSDOF 8
