REMARK  Name = 71693823
REMARK  4 active torsions:
REMARK  status: ('A' for Active; 'I' for Inactive)
REMARK    1  A    between atoms: O_1  and  C_6
REMARK    2  A    between atoms: O_2  and  C_8
REMARK    3  A    between atoms: N_3  and  C_4
REMARK    4  A    between atoms: C_5  and  C_11
REMARK                            x       y       z     vdW  Elec       q    Type
REMARK                         _______ _______ _______ _____ _____    ______ ____
ROOT
ATOM      4  C   UNL     1      -0.584   0.440  -0.387  0.00  0.00    +0.095 C 
ATOM      5  C   UNL     1       0.528   0.403   0.707  0.00  0.00    +0.041 C 
ATOM      6  C   UNL     1      -0.940   1.927  -0.548  0.00  0.00    +0.161 C 
ATOM      7  C   UNL     1       0.746   1.867   1.135  0.00  0.00    +0.043 C 
ATOM      8  C   UNL     1      -0.578   2.540   0.802  0.00  0.00    +0.145 C 
ENDROOT
BRANCH   4   3
ATOM      3  N   UNL     1      -1.754  -0.305   0.078  0.00  0.00    -0.296 NA
ATOM      9  C   UNL     1      -1.396  -1.703   0.355  0.00  0.00    +0.085 C 
ATOM     10  C   UNL     1      -2.842  -0.219  -0.905  0.00  0.00    +0.085 C 
ATOM     12  C   UNL     1      -2.598  -2.484   0.890  0.00  0.00    +0.015 C 
ATOM     13  C   UNL     1      -4.091  -0.952  -0.412  0.00  0.00    +0.015 C 
ATOM     14  C   UNL     1      -3.781  -2.404  -0.067  0.00  0.00    +0.002 C 
ENDBRANCH   4   3
BRANCH   5  11
ATOM     11  C   UNL     1       1.802  -0.286   0.269  0.00  0.00    -0.043 A 
ATOM     15  C   UNL     1       2.195  -0.243  -1.069  0.00  0.00    +0.004 A 
ATOM     16  C   UNL     1       2.584  -0.965   1.204  0.00  0.00    +0.004 A 
ATOM     17  C   UNL     1       3.369  -0.878  -1.472  0.00  0.00    +0.000 A 
ATOM     18  C   UNL     1       3.759  -1.600   0.801  0.00  0.00    +0.000 A 
ATOM     19  C   UNL     1       4.152  -1.557  -0.537  0.00  0.00    +0.000 A 
ENDBRANCH   5  11
BRANCH   6   1
ATOM      1  O   UNL     1      -0.127   2.474  -1.585  0.00  0.00    -0.388 OA
ATOM     20  H   UNL     1      -0.394   2.048  -2.418  0.00  0.00    +0.210 HD
ENDBRANCH   6   1
BRANCH   8   2
ATOM      2  O   UNL     1      -0.443   3.945   0.742  0.00  0.00    -0.389 OA
ATOM     21  H   UNL     1      -0.125   4.245   1.610  0.00  0.00    +0.210 HD
ENDBRANCH   8   2
TORSDOF 4
