REMARK  Name = 25314937
REMARK  4 active torsions:
REMARK  status: ('A' for Active; 'I' for Inactive)
REMARK    1  A    between atoms: O_3  and  C_11
REMARK    2  A    between atoms: N_6  and  C_9
REMARK    3  A    between atoms: N_7  and  C_10
REMARK    4  A    between atoms: N_8  and  C_17
REMARK                            x       y       z     vdW  Elec       q    Type
REMARK                         _______ _______ _______ _____ _____    ______ ____
ROOT
ATOM      1  O   UNL     1       2.358   0.778  -1.641  0.00  0.00    -0.342 OA
ATOM      2  O   UNL     1       4.101   1.525  -0.306  0.00  0.00    -0.347 OA
ATOM      9  C   UNL     1       2.627  -0.190   0.551  0.00  0.00    +0.144 C 
ATOM     10  C   UNL     1       1.065   1.821   0.107  0.00  0.00    +0.136 C 
ATOM     11  C   UNL     1       1.697   0.884   1.161  0.00  0.00    +0.159 C 
ATOM     12  C   UNL     1       1.972   2.054  -1.119  0.00  0.00    +0.170 C 
ATOM     13  C   UNL     1       3.349   0.363  -0.692  0.00  0.00    +0.270 C 
ATOM     14  C   UNL     1       3.331   2.638  -0.785  0.00  0.00    +0.196 C 
ENDROOT
BRANCH   9   6
ATOM      4  O   UNL     1       1.499  -4.193  -0.011  0.00  0.00    -0.377 OA
ATOM      6  N   UNL     1       1.854  -1.376   0.187  0.00  0.00    -0.288 NA
ATOM     15  C   UNL     1       1.576  -2.200   1.371  0.00  0.00    +0.113 C 
ATOM     16  C   UNL     1       2.564  -2.171  -0.824  0.00  0.00    +0.113 C 
ATOM     18  C   UNL     1       0.780  -3.438   0.965  0.00  0.00    +0.175 C 
ATOM     19  C   UNL     1       1.745  -3.408  -1.179  0.00  0.00    +0.175 C 
ENDBRANCH   9   6
BRANCH  10   7
ATOM      5  O   UNL     1      -1.491   2.324   1.321  0.00  0.00    -0.253 OA
ATOM      7  N   UNL     1      -0.214   1.298  -0.321  0.00  0.00    -0.291 N 
ATOM      8  N   UNL     1      -2.485   0.969  -0.280  0.00  0.00    -0.297 N 
ATOM     20  C   UNL     1      -1.405   1.598   0.332  0.00  0.00    +0.300 C 
ATOM     26  H   UNL     1      -0.233   0.626  -1.082  0.00  0.00    +0.151 HD
ATOM     28  H   UNL     1      -2.292   0.333  -1.047  0.00  0.00    +0.151 HD
BRANCH   8  17
ATOM     17  C   UNL     1      -3.847   1.103   0.186  0.00  0.00    +0.074 C 
ATOM     21  C   UNL     1      -4.839   1.032  -0.980  0.00  0.00    +0.022 C 
ATOM     22  C   UNL     1      -4.170   0.052   1.254  0.00  0.00    +0.022 C 
ATOM     23  C   UNL     1      -4.960  -0.377  -1.560  0.00  0.00    +0.002 C 
ATOM     24  C   UNL     1      -4.292  -1.356   0.670  0.00  0.00    +0.002 C 
ATOM     25  C   UNL     1      -5.292  -1.403  -0.481  0.00  0.00    +0.000 C 
ENDBRANCH   8  17
ENDBRANCH  10   7
BRANCH  11   3
ATOM      3  O   UNL     1       2.477   1.673   2.069  0.00  0.00    -0.388 OA
ATOM     27  H   UNL     1       1.878   2.307   2.498  0.00  0.00    +0.210 HD
ENDBRANCH  11   3
TORSDOF 4
