REMARK  Name = 45784223
REMARK  5 active torsions:
REMARK  status: ('A' for Active; 'I' for Inactive)
REMARK    1  A    between atoms: N_1  and  C_8
REMARK    2  A    between atoms: C_4  and  C_9
REMARK    3  A    between atoms: C_8  and  C_10
REMARK    4  A    between atoms: C_8  and  C_11
REMARK    5  A    between atoms: C_16  and  C_18
REMARK                            x       y       z     vdW  Elec       q    Type
REMARK                         _______ _______ _______ _____ _____    ______ ____
ROOT
ATOM      2  N   UNL     1       1.131  -1.213  -0.600  0.00  0.00    -0.342 N 
ATOM      3  N   UNL     1       0.551   0.530   0.650  0.00  0.00    -0.232 NA
ATOM      9  C   UNL     1       0.116  -0.532   0.011  0.00  0.00    +0.113 A 
ATOM     12  C   UNL     1       2.300  -0.545  -0.339  0.00  0.00    +0.066 A 
ATOM     13  C   UNL     1       1.912   0.539   0.443  0.00  0.00    +0.089 A 
ATOM     14  C   UNL     1       3.623  -0.789  -0.708  0.00  0.00    +0.031 A 
ATOM     15  C   UNL     1       2.888   1.444   0.892  0.00  0.00    +0.030 A 
ATOM     16  C   UNL     1       4.582   0.121  -0.252  0.00  0.00    -0.048 A 
ATOM     17  C   UNL     1       4.223   1.219   0.534  0.00  0.00    +0.005 A 
ATOM     18  C   UNL     1       6.016  -0.085  -0.614  0.00  0.00    +0.044 C 
ATOM     19  H   UNL     1       1.041  -2.059  -1.148  0.00  0.00    +0.167 HD
ENDROOT
BRANCH   9   4
ATOM      1  N   UNL     1      -3.536  -0.252  -0.099  0.00  0.00    -0.299 NA
ATOM      4  C   UNL     1      -1.316  -1.007  -0.082  0.00  0.00    +0.070 C 
ATOM      5  C   UNL     1      -2.247   0.022  -0.737  0.00  0.00    +0.096 C 
ATOM      6  C   UNL     1      -1.979  -1.329   1.269  0.00  0.00    +0.028 C 
ATOM      7  C   UNL     1      -3.223  -0.450   1.316  0.00  0.00    +0.085 C 
BRANCH   1   8
ATOM      8  C   UNL     1      -4.499   0.819  -0.310  0.00  0.00    +0.050 C 
ATOM     10  C   UNL     1      -5.799   0.515   0.429  0.00  0.00    +0.024 C 
ATOM     11  C   UNL     1      -4.746   0.993  -1.805  0.00  0.00    +0.024 C 
ENDBRANCH   1   8
ENDBRANCH   9   4
TORSDOF 2
