REMARK  Name = 45783513
REMARK  4 active torsions:
REMARK  status: ('A' for Active; 'I' for Inactive)
REMARK    1  A    between atoms: N_3  and  C_13
REMARK    2  A    between atoms: C_9  and  C_14
REMARK    3  A    between atoms: C_13  and  C_15
REMARK    4  A    between atoms: C_19  and  C_22
REMARK                            x       y       z     vdW  Elec       q    Type
REMARK                         _______ _______ _______ _____ _____    ______ ____
ROOT
ATOM      1  O   UNL     1      -2.302  -2.475   1.335  0.00  0.00    -0.336 OA
ATOM      4  N   UNL     1      -1.518  -1.093  -0.245  0.00  0.00    -0.190 NA
ATOM      6  N   UNL     1      -0.911  -2.442   1.500  0.00  0.00    -0.056 NA
ATOM     14  C   UNL     1      -2.575  -1.654   0.287  0.00  0.00    +0.245 A 
ATOM     19  C   UNL     1      -0.522  -1.607   0.533  0.00  0.00    +0.204 A 
ENDROOT
BRANCH  19  22
ATOM      2  O   UNL     1       7.573   0.299  -0.360  0.00  0.00    -0.377 OA
ATOM      7  N   UNL     1       4.839  -0.339  -0.235  0.00  0.00    -0.311 N 
ATOM      8  N   UNL     1       3.171  -1.514   0.964  0.00  0.00    -0.240 NA
ATOM     22  C   UNL     1       0.855  -1.265   0.317  0.00  0.00    +0.041 A 
ATOM     23  C   UNL     1       5.853  -1.343   0.117  0.00  0.00    +0.134 C 
ATOM     24  C   UNL     1       5.279   1.056  -0.133  0.00  0.00    +0.134 C 
ATOM     25  C   UNL     1       3.493  -0.662  -0.035  0.00  0.00    +0.121 A 
ATOM     26  C   UNL     1       7.153  -1.040  -0.618  0.00  0.00    +0.178 C 
ATOM     27  C   UNL     1       6.611   1.231  -0.854  0.00  0.00    +0.178 C 
ATOM     30  C   UNL     1       1.225  -0.393  -0.701  0.00  0.00    +0.016 A 
ATOM     31  C   UNL     1       2.567  -0.081  -0.887  0.00  0.00    +0.044 A 
ATOM     32  C   UNL     1       1.857  -1.794   1.115  0.00  0.00    +0.124 A 
ENDBRANCH  19  22
BRANCH  14   9
ATOM      3  N   UNL     1      -4.329  -0.217  -0.739  0.00  0.00    -0.287 NA
ATOM      9  C   UNL     1      -4.033  -1.515  -0.099  0.00  0.00    +0.146 C 
ATOM     10  C   UNL     1      -4.479  -2.569  -1.129  0.00  0.00    +0.030 C 
ATOM     11  C   UNL     1      -5.450  -0.452  -1.649  0.00  0.00    +0.085 C 
ATOM     12  C   UNL     1      -5.067  -1.773  -2.285  0.00  0.00    +0.017 C 
BRANCH   3  13
ATOM     13  C   UNL     1      -4.613   0.844   0.218  0.00  0.00    +0.122 C 
BRANCH  13  15
ATOM      5  N   UNL     1      -1.813   2.038   2.286  0.00  0.00    -0.360 N 
ATOM     15  C   UNL     1      -3.353   1.413   0.814  0.00  0.00    -0.008 A 
ATOM     16  C   UNL     1      -2.277   2.017   0.104  0.00  0.00    +0.004 A 
ATOM     17  C   UNL     1      -3.038   1.440   2.153  0.00  0.00    +0.088 A 
ATOM     18  C   UNL     1      -1.325   2.400   1.051  0.00  0.00    +0.047 A 
ATOM     20  C   UNL     1      -2.022   2.276  -1.257  0.00  0.00    +0.010 A 
ATOM     21  C   UNL     1      -0.125   3.031   0.703  0.00  0.00    +0.026 A 
ATOM     28  C   UNL     1      -0.827   2.906  -1.620  0.00  0.00    +0.001 A 
ATOM     29  C   UNL     1       0.106   3.277  -0.653  0.00  0.00    +0.002 A 
ATOM     33  H   UNL     1      -1.335   2.189   3.164  0.00  0.00    +0.165 HD
ENDBRANCH  13  15
ENDBRANCH   3  13
ENDBRANCH  14   9
TORSDOF 4
