REMARK  Name = 71693478
REMARK  10 active torsions:
REMARK  status: ('A' for Active; 'I' for Inactive)
REMARK    1  A    between atoms: S_1  and  N_11
REMARK    2  A    between atoms: S_1  and  C_27
REMARK    3  A    between atoms: O_4  and  C_14
REMARK    4  A    between atoms: N_9  and  C_17
REMARK    5  A    between atoms: N_10  and  C_25
REMARK    6  A    between atoms: N_10  and  C_26
REMARK    7  A    between atoms: N_11  and  C_24
REMARK    8  A    between atoms: C_12  and  C_14
REMARK    9  A    between atoms: C_13  and  C_15
REMARK   10  A    between atoms: C_17  and  C_21
REMARK                            x       y       z     vdW  Elec       q    Type
REMARK                         _______ _______ _______ _____ _____    ______ ____
ROOT
ATOM     15  C   UNL     1      -0.126   1.695  -0.517  0.00  0.00    -0.017 A 
ATOM     19  C   UNL     1      -0.729   2.004   0.703  0.00  0.00    +0.008 A 
ATOM     20  C   UNL     1      -0.914   1.455  -1.643  0.00  0.00    +0.008 A 
ATOM     22  C   UNL     1      -2.119   2.072   0.797  0.00  0.00    +0.025 A 
ATOM     23  C   UNL     1      -2.304   1.523  -1.549  0.00  0.00    +0.025 A 
ATOM     24  C   UNL     1      -2.906   1.832  -0.329  0.00  0.00    +0.048 A 
ENDROOT
BRANCH  15  13
ATOM      3  O   UNL     1       1.885   2.927  -0.331  0.00  0.00    -0.361 OA
ATOM      5  O   UNL     1       5.345   2.212   0.134  0.00  0.00    -0.273 OA
ATOM      9  N   UNL     1       3.511   0.796   0.389  0.00  0.00    -0.283 N 
ATOM     12  C   UNL     1       2.037   0.634   0.366  0.00  0.00    +0.135 C 
ATOM     13  C   UNL     1       1.383   1.622  -0.619  0.00  0.00    +0.171 C 
ATOM     16  C   UNL     1       4.139   1.985   0.013  0.00  0.00    +0.242 C 
ATOM     18  C   UNL     1       3.252   3.019  -0.652  0.00  0.00    +0.256 C 
BRANCH  12  14
ATOM     14  C   UNL     1       1.609  -0.807   0.051  0.00  0.00    +0.181 C 
BRANCH  14   4
ATOM      4  O   UNL     1       2.010  -1.107  -1.270  0.00  0.00    -0.393 OA
ATOM     33  H   UNL     1       1.718  -2.014  -1.461  0.00  0.00    +0.209 HD
ENDBRANCH  14   4
ENDBRANCH  12  14
BRANCH   9  17
ATOM     17  C   UNL     1       4.306  -0.235   1.052  0.00  0.00    +0.204 C 
BRANCH  17  21
ATOM      6  O   UNL     1       4.725  -0.982  -1.187  0.00  0.00    -0.274 OA
ATOM     10  N   UNL     1       5.676  -2.225   0.526  0.00  0.00    -0.306 N 
ATOM     21  C   UNL     1       4.912  -1.167   0.018  0.00  0.00    +0.232 C 
ATOM     25  C   UNL     1       6.323  -3.208  -0.340  0.00  0.00    +0.131 C 
ATOM     26  C   UNL     1       5.883  -2.423   1.955  0.00  0.00    +0.131 C 
ENDBRANCH  17  21
ENDBRANCH   9  17
ENDBRANCH  15  13
BRANCH  24  11
ATOM     11  N   UNL     1      -4.329   1.903  -0.233  0.00  0.00    -0.216 N 
ATOM     34  H   UNL     1      -4.814   2.091  -1.121  0.00  0.00    +0.174 HD
BRANCH  11   1
ATOM      1  S   UNL     1      -5.141   0.844   0.857  0.00  0.00    +0.072 S 
ATOM      7  O   UNL     1      -6.559   0.848   0.551  0.00  0.00    -0.150 OA
ATOM      8  O   UNL     1      -4.696   1.091   2.215  0.00  0.00    -0.150 OA
BRANCH   1  27
ATOM      2  F   UNL     1      -3.052  -4.421  -0.792  0.00  0.00    -0.205 F 
ATOM     27  C   UNL     1      -4.514  -0.736   0.362  0.00  0.00    +0.109 A 
ATOM     28  C   UNL     1      -3.358  -1.245   0.956  0.00  0.00    +0.031 A 
ATOM     29  C   UNL     1      -5.176  -1.473  -0.620  0.00  0.00    +0.031 A 
ATOM     30  C   UNL     1      -2.865  -2.490   0.566  0.00  0.00    +0.040 A 
ATOM     31  C   UNL     1      -4.682  -2.717  -1.010  0.00  0.00    +0.040 A 
ATOM     32  C   UNL     1      -3.526  -3.226  -0.417  0.00  0.00    +0.124 A 
ENDBRANCH   1  27
ENDBRANCH  11   1
ENDBRANCH  24  11
TORSDOF 8
