REMARK  Name = 25338545
REMARK  9 active torsions:
REMARK  status: ('A' for Active; 'I' for Inactive)
REMARK    1  A    between atoms: O_3  and  C_25
REMARK    2  A    between atoms: O_3  and  C_29
REMARK    3  A    between atoms: O_4  and  C_28
REMARK    4  A    between atoms: O_4  and  C_30
REMARK    5  A    between atoms: N_5  and  C_14
REMARK    6  A    between atoms: N_6  and  C_9
REMARK    7  A    between atoms: C_10  and  C_13
REMARK    8  A    between atoms: C_15  and  C_17
REMARK    9  A    between atoms: C_16  and  C_18
REMARK                            x       y       z     vdW  Elec       q    Type
REMARK                         _______ _______ _______ _____ _____    ______ ____
ROOT
ATOM      5  N   UNL     1       0.190   3.499   1.239  0.00  0.00    -0.293 NA
ATOM      9  C   UNL     1       1.958   3.193  -0.249  0.00  0.00    +0.089 C 
ATOM     10  C   UNL     1      -0.457   3.526  -0.087  0.00  0.00    +0.147 C 
ATOM     11  C   UNL     1       0.672   3.174  -1.075  0.00  0.00    +0.052 C 
ATOM     12  C   UNL     1       1.573   3.937   1.020  0.00  0.00    +0.107 C 
ATOM     14  C   UNL     1      -0.492   4.325   2.228  0.00  0.00    +0.105 C 
ENDROOT
BRANCH  10  13
ATOM      1  O   UNL     1      -2.827   3.155  -0.547  0.00  0.00    -0.336 OA
ATOM      7  N   UNL     1      -1.699   1.297  -0.008  0.00  0.00    -0.190 NA
ATOM      8  N   UNL     1      -3.758   2.109  -0.586  0.00  0.00    -0.056 NA
ATOM     13  C   UNL     1      -1.641   2.591  -0.199  0.00  0.00    +0.245 A 
ATOM     16  C   UNL     1      -3.017   1.047  -0.256  0.00  0.00    +0.202 A 
BRANCH  16  18
ATOM     18  C   UNL     1      -3.562  -0.277  -0.168  0.00  0.00    +0.023 A 
ATOM     21  C   UNL     1      -2.739  -1.349   0.179  0.00  0.00    +0.015 A 
ATOM     22  C   UNL     1      -4.914  -0.493  -0.433  0.00  0.00    +0.015 A 
ATOM     26  C   UNL     1      -3.269  -2.636   0.262  0.00  0.00    +0.046 A 
ATOM     27  C   UNL     1      -5.444  -1.781  -0.351  0.00  0.00    +0.046 A 
ATOM     28  C   UNL     1      -4.622  -2.852  -0.003  0.00  0.00    +0.120 A 
BRANCH  28   4
ATOM      4  O   UNL     1      -5.139  -4.109   0.078  0.00  0.00    -0.495 OA
ATOM     30  C   UNL     1      -4.242  -5.158   0.439  0.00  0.00    +0.277 C 
ENDBRANCH  28   4
ENDBRANCH  16  18
ENDBRANCH  10  13
BRANCH   9   6
ATOM      2  O   UNL     1       3.821   1.646  -1.792  0.00  0.00    -0.270 OA
ATOM      6  N   UNL     1       2.421   1.857   0.044  0.00  0.00    -0.307 N 
ATOM     15  C   UNL     1       3.327   1.189  -0.765  0.00  0.00    +0.244 C 
ATOM     31  H   UNL     1       1.972   1.376   0.817  0.00  0.00    +0.149 HD
BRANCH  15  17
ATOM     17  C   UNL     1       3.683  -0.189  -0.340  0.00  0.00    +0.037 A 
ATOM     19  C   UNL     1       4.091  -1.128  -1.287  0.00  0.00    +0.016 A 
ATOM     20  C   UNL     1       3.608  -0.545   1.007  0.00  0.00    +0.016 A 
ATOM     23  C   UNL     1       4.425  -2.422  -0.888  0.00  0.00    +0.046 A 
ATOM     24  C   UNL     1       3.942  -1.839   1.406  0.00  0.00    +0.046 A 
ATOM     25  C   UNL     1       4.350  -2.778   0.458  0.00  0.00    +0.120 A 
BRANCH  25   3
ATOM      3  O   UNL     1       4.676  -4.040   0.848  0.00  0.00    -0.495 OA
ATOM     29  C   UNL     1       5.085  -4.949  -0.173  0.00  0.00    +0.277 C 
ENDBRANCH  25   3
ENDBRANCH  15  17
ENDBRANCH   9   6
TORSDOF 6
