REMARK  Name = 26742486
REMARK  11 active torsions:
REMARK  status: ('A' for Active; 'I' for Inactive)
REMARK    1  A    between atoms: O_2  and  C_33
REMARK    2  A    between atoms: O_2  and  C_36
REMARK    3  A    between atoms: N_4  and  C_15
REMARK    4  A    between atoms: N_7  and  C_30
REMARK    5  A    between atoms: N_7  and  C_34
REMARK    6  A    between atoms: N_7  and  C_35
REMARK    7  A    between atoms: C_9  and  C_16
REMARK    8  A    between atoms: C_10  and  C_15
REMARK    9  A    between atoms: C_18  and  C_21
REMARK   10  A    between atoms: C_19  and  C_22
REMARK   11  A    between atoms: C_20  and  C_23
REMARK                            x       y       z     vdW  Elec       q    Type
REMARK                         _______ _______ _______ _____ _____    ______ ____
ROOT
ATOM      3  N   UNL     1      -0.848  -3.026   1.102  0.00  0.00    -0.297 NA
ATOM      8  C   UNL     1      -0.565  -2.638  -1.458  0.00  0.00    +0.002 C 
ATOM      9  C   UNL     1       0.781  -2.397  -0.719  0.00  0.00    +0.055 C 
ATOM     10  C   UNL     1      -1.916  -2.119   0.604  0.00  0.00    +0.074 C 
ATOM     11  C   UNL     1      -1.646  -1.713  -0.861  0.00  0.00    +0.024 C 
ATOM     12  C   UNL     1      -0.988  -4.090  -1.149  0.00  0.00    +0.019 C 
ATOM     13  C   UNL     1       0.487  -2.448   0.808  0.00  0.00    +0.094 C 
ATOM     14  C   UNL     1      -0.967  -4.311   0.373  0.00  0.00    +0.085 C 
ENDROOT
BRANCH   9  16
ATOM      5  N   UNL     1       1.096  -0.382  -2.069  0.00  0.00    -0.237 NA
ATOM      6  N   UNL     1       3.044   1.020  -1.849  0.00  0.00    -0.232 NA
ATOM     16  C   UNL     1       1.607  -1.179  -1.108  0.00  0.00    +0.050 A 
ATOM     17  C   UNL     1       2.813  -0.946  -0.479  0.00  0.00    +0.052 A 
ATOM     18  C   UNL     1       3.495   0.179  -0.895  0.00  0.00    +0.075 A 
ATOM     19  C   UNL     1       1.855   0.684  -2.386  0.00  0.00    +0.127 A 
ATOM     22  C   UNL     1       1.324   1.588  -3.446  0.00  0.00    +0.088 C 
BRANCH  18  21
ATOM     21  C   UNL     1       4.769   0.534  -0.317  0.00  0.00    +0.001 A 
ATOM     24  C   UNL     1       4.869   0.786   1.051  0.00  0.00    +0.012 A 
ATOM     25  C   UNL     1       5.901   0.625  -1.128  0.00  0.00    +0.012 A 
ATOM     28  C   UNL     1       6.101   1.129   1.609  0.00  0.00    +0.024 A 
ATOM     29  C   UNL     1       7.133   0.967  -0.570  0.00  0.00    +0.024 A 
ATOM     30  C   UNL     1       7.233   1.219   0.798  0.00  0.00    +0.029 A 
BRANCH  30   7
ATOM      7  N   UNL     1       8.478   1.566   1.362  0.00  0.00    -0.336 N 
ATOM     34  C   UNL     1       8.593   1.830   2.783  0.00  0.00    +0.129 C 
ATOM     35  C   UNL     1       9.661   1.655   0.530  0.00  0.00    +0.129 C 
ENDBRANCH  30   7
ENDBRANCH  18  21
ENDBRANCH   9  16
BRANCH  10  15
ATOM     15  C   UNL     1      -2.113  -0.900   1.507  0.00  0.00    +0.123 C 
BRANCH  15   4
ATOM      1  O   UNL     1      -4.851  -1.181   2.326  0.00  0.00    -0.270 OA
ATOM      4  N   UNL     1      -3.222  -0.112   1.065  0.00  0.00    -0.310 N 
ATOM     20  C   UNL     1      -4.525  -0.317   1.516  0.00  0.00    +0.244 C 
ATOM     37  H   UNL     1      -3.032   0.580   0.349  0.00  0.00    +0.149 HD
BRANCH  20  23
ATOM     23  C   UNL     1      -5.569   0.569   0.941  0.00  0.00    +0.037 A 
ATOM     26  C   UNL     1      -6.890   0.129   0.859  0.00  0.00    +0.016 A 
ATOM     27  C   UNL     1      -5.229   1.841   0.481  0.00  0.00    +0.016 A 
ATOM     31  C   UNL     1      -7.870   0.960   0.317  0.00  0.00    +0.046 A 
ATOM     32  C   UNL     1      -6.209   2.672  -0.061  0.00  0.00    +0.046 A 
ATOM     33  C   UNL     1      -7.530   2.232  -0.143  0.00  0.00    +0.120 A 
BRANCH  33   2
ATOM      2  O   UNL     1      -8.486   3.043  -0.672  0.00  0.00    -0.495 OA
ATOM     36  C   UNL     1      -9.816   2.530  -0.724  0.00  0.00    +0.277 C 
ENDBRANCH  33   2
ENDBRANCH  20  23
ENDBRANCH  15   4
ENDBRANCH  10  15
TORSDOF 7
