REMARK  Name = 75536781
REMARK  8 active torsions:
REMARK  status: ('A' for Active; 'I' for Inactive)
REMARK    1  A    between atoms: O_2  and  C_9
REMARK    2  A    between atoms: N_4  and  C_8
REMARK    3  A    between atoms: N_4  and  C_13
REMARK    4  A    between atoms: N_5  and  C_12
REMARK    5  A    between atoms: N_6  and  C_21
REMARK    6  A    between atoms: C_10  and  C_12
REMARK    7  A    between atoms: C_13  and  C_14
REMARK    8  A    between atoms: C_18  and  C_24
REMARK                            x       y       z     vdW  Elec       q    Type
REMARK                         _______ _______ _______ _____ _____    ______ ____
ROOT
ATOM      1  O   UNL     1      -3.609  -1.123   1.000  0.00  0.00    -0.371 OA
ATOM      8  C   UNL     1      -2.886   1.126   1.152  0.00  0.00    +0.111 C 
ATOM      9  C   UNL     1      -3.886   1.033   0.013  0.00  0.00    +0.164 C 
ATOM     10  C   UNL     1      -4.136  -0.463  -0.166  0.00  0.00    +0.165 C 
ATOM     11  C   UNL     1      -3.203  -0.130   1.948  0.00  0.00    +0.181 C 
ENDROOT
BRANCH   9   2
ATOM      2  O   UNL     1      -5.096   1.661   0.445  0.00  0.00    -0.388 OA
ATOM     29  H   UNL     1      -5.743   1.569  -0.275  0.00  0.00    +0.210 HD
ENDBRANCH   9   2
BRANCH   8   4
ATOM      4  N   UNL     1      -1.509   1.095   0.664  0.00  0.00    -0.305 NA
ATOM     28  H   UNL     1      -0.901   0.720   1.393  0.00  0.00    +0.123 HD
BRANCH   4  13
ATOM     13  C   UNL     1      -1.046   2.432   0.314  0.00  0.00    +0.116 C 
BRANCH  13  14
ATOM     14  C   UNL     1       0.367   2.418  -0.207  0.00  0.00    -0.032 A 
ATOM     16  C   UNL     1       1.436   2.273   0.677  0.00  0.00    +0.023 A 
ATOM     17  C   UNL     1       0.606   2.549  -1.575  0.00  0.00    +0.005 A 
ATOM     18  C   UNL     1       2.744   2.259   0.193  0.00  0.00    +0.052 A 
ATOM     19  C   UNL     1       1.914   2.535  -2.059  0.00  0.00    +0.002 A 
ATOM     20  C   UNL     1       2.983   2.390  -1.175  0.00  0.00    +0.019 A 
BRANCH  18  24
ATOM      7  N   UNL     1       4.731   1.988   1.832  0.00  0.00    -0.191 NA
ATOM     24  C   UNL     1       3.840   2.109   1.097  0.00  0.00    +0.099 C 
ENDBRANCH  18  24
ENDBRANCH  13  14
ENDBRANCH   4  13
ENDBRANCH   8   4
BRANCH  10  12
ATOM     12  C   UNL     1      -3.458  -1.050  -1.395  0.00  0.00    +0.140 C 
BRANCH  12   5
ATOM      3  O   UNL     1      -1.561  -2.866  -0.252  0.00  0.00    -0.253 OA
ATOM      5  N   UNL     1      -2.035  -0.879  -1.337  0.00  0.00    -0.297 N 
ATOM      6  N   UNL     1       0.159  -1.384  -0.847  0.00  0.00    -0.269 N 
ATOM     15  C   UNL     1      -1.166  -1.818  -0.758  0.00  0.00    +0.304 C 
ATOM     30  H   UNL     1      -1.637  -0.030  -1.727  0.00  0.00    +0.150 HD
ATOM     31  H   UNL     1       0.315  -0.486  -1.299  0.00  0.00    +0.156 HD
BRANCH   6  21
ATOM     21  C   UNL     1       1.322  -2.042  -0.384  0.00  0.00    +0.035 A 
ATOM     22  C   UNL     1       2.574  -1.453  -0.560  0.00  0.00    +0.023 A 
ATOM     23  C   UNL     1       1.216  -3.281   0.249  0.00  0.00    +0.023 A 
ATOM     25  C   UNL     1       3.721  -2.103  -0.104  0.00  0.00    +0.002 A 
ATOM     26  C   UNL     1       2.363  -3.931   0.705  0.00  0.00    +0.002 A 
ATOM     27  C   UNL     1       3.615  -3.342   0.529  0.00  0.00    +0.000 A 
ENDBRANCH   6  21
ENDBRANCH  12   5
ENDBRANCH  10  12
TORSDOF 8
