REMARK  Name = 51136635
REMARK  11 active torsions:
REMARK  status: ('A' for Active; 'I' for Inactive)
REMARK    1  A    between atoms: S_2  and  N_9
REMARK    2  A    between atoms: S_2  and  C_21
REMARK    3  A    between atoms: O_5  and  C_19
REMARK    4  A    between atoms: O_7  and  C_29
REMARK    5  A    between atoms: O_7  and  C_34
REMARK    6  A    between atoms: O_8  and  C_30
REMARK    7  A    between atoms: O_8  and  C_35
REMARK    8  A    between atoms: C_11  and  C_16
REMARK    9  A    between atoms: C_12  and  C_17
REMARK   10  A    between atoms: C_16  and  C_18
REMARK   11  A    between atoms: C_17  and  C_19
REMARK                            x       y       z     vdW  Elec       q    Type
REMARK                         _______ _______ _______ _____ _____    ______ ____
ROOT
ATOM      9  N   UNL     1      -0.986   0.155  -0.628  0.00  0.00    -0.176 NA
ATOM     11  C   UNL     1      -0.871  -1.923   0.730  0.00  0.00    +0.014 C 
ATOM     12  C   UNL     1      -1.985  -2.535  -0.153  0.00  0.00    +0.006 C 
ATOM     13  C   UNL     1      -1.012  -0.392   0.761  0.00  0.00    +0.113 C 
ATOM     14  C   UNL     1      -2.014  -1.891  -1.547  0.00  0.00    +0.021 C 
ATOM     15  C   UNL     1      -2.107  -0.371  -1.457  0.00  0.00    +0.110 C 
ENDROOT
BRANCH   9   2
ATOM      2  S   UNL     1      -0.716   1.843  -0.745  0.00  0.00    +0.061 S 
ATOM      3  O   UNL     1      -0.575   2.203  -2.139  0.00  0.00    -0.153 OA
ATOM      4  O   UNL     1       0.282   2.228   0.230  0.00  0.00    -0.153 OA
BRANCH   2  21
ATOM      1 CL   UNL     1      -6.275   3.977   1.237  0.00  0.00    -0.084 Cl
ATOM     21  C   UNL     1      -2.280   2.444  -0.187  0.00  0.00    +0.106 A 
ATOM     26  C   UNL     1      -2.487   2.694   1.169  0.00  0.00    +0.030 A 
ATOM     27  C   UNL     1      -3.308   2.668  -1.103  0.00  0.00    +0.030 A 
ATOM     31  C   UNL     1      -3.723   3.168   1.610  0.00  0.00    +0.022 A 
ATOM     32  C   UNL     1      -4.543   3.142  -0.663  0.00  0.00    +0.022 A 
ATOM     33  C   UNL     1      -4.751   3.392   0.694  0.00  0.00    +0.041 A 
ENDBRANCH   2  21
ENDBRANCH   9   2
BRANCH  11  16
ATOM     16  C   UNL     1       0.549  -2.325   0.314  0.00  0.00    +0.060 C 
BRANCH  16  18
ATOM     10  N   UNL     1       1.470  -1.981   2.505  0.00  0.00    -0.287 NA
ATOM     18  C   UNL     1       1.555  -1.695   1.247  0.00  0.00    +0.044 C 
ATOM     20  C   UNL     1       2.580  -0.780   0.683  0.00  0.00    +0.003 A 
ATOM     22  C   UNL     1       3.230   0.071   1.585  0.00  0.00    -0.033 A 
ATOM     23  C   UNL     1       2.846   0.015   3.034  0.00  0.00    +0.059 C 
ATOM     24  C   UNL     1       2.484  -1.418   3.403  0.00  0.00    +0.146 C 
ATOM     25  C   UNL     1       2.889  -0.740  -0.678  0.00  0.00    +0.059 A 
ATOM     28  C   UNL     1       4.176   0.985   1.112  0.00  0.00    +0.053 A 
ATOM     29  C   UNL     1       3.846   0.165  -1.138  0.00  0.00    +0.162 A 
ATOM     30  C   UNL     1       4.486   1.027  -0.247  0.00  0.00    +0.162 A 
BRANCH  29   7
ATOM      7  O   UNL     1       4.147   0.201  -2.467  0.00  0.00    -0.491 OA
ATOM     34  C   UNL     1       3.378   1.084  -3.281  0.00  0.00    +0.277 C 
ENDBRANCH  29   7
BRANCH  30   8
ATOM      8  O   UNL     1       5.416   1.917  -0.693  0.00  0.00    -0.491 OA
ATOM     35  C   UNL     1       6.772   1.476  -0.726  0.00  0.00    +0.277 C 
ENDBRANCH  30   8
ENDBRANCH  16  18
ENDBRANCH  11  16
BRANCH  12  17
ATOM     17  C   UNL     1      -1.895  -4.057  -0.265  0.00  0.00    +0.124 C 
BRANCH  17  19
ATOM      6  O   UNL     1      -4.264  -4.066  -0.840  0.00  0.00    -0.251 OA
ATOM     19  C   UNL     1      -3.219  -4.666  -0.636  0.00  0.00    +0.305 C 
BRANCH  19   5
ATOM      5  O   UNL     1      -3.095  -6.015  -0.720  0.00  0.00    -0.481 OA
ATOM     36  H   UNL     1      -3.943  -6.446  -0.961  0.00  0.00    +0.295 HD
ENDBRANCH  19   5
ENDBRANCH  17  19
ENDBRANCH  12  17
TORSDOF 9
