REMARK  Name = 26742857
REMARK  6 active torsions:
REMARK  status: ('A' for Active; 'I' for Inactive)
REMARK    1  A    between atoms: O_7  and  C_33
REMARK    2  A    between atoms: O_7  and  C_34
REMARK    3  A    between atoms: N_9  and  C_22
REMARK    4  A    between atoms: N_10  and  C_24
REMARK    5  A    between atoms: N_11  and  C_28
REMARK    6  A    between atoms: C_22  and  C_24
REMARK                            x       y       z     vdW  Elec       q    Type
REMARK                         _______ _______ _______ _____ _____    ______ ____
ROOT
ATOM      4  O   UNL     1       5.614   1.832   0.379  0.00  0.00    -0.276 OA
ATOM      5  O   UNL     1      -0.941   0.969   2.319  0.00  0.00    -0.252 OA
ATOM      8  N   UNL     1      -0.005   2.368   0.735  0.00  0.00    -0.285 N 
ATOM      9  N   UNL     1       4.193   0.860  -1.176  0.00  0.00    -0.300 N 
ATOM     11  N   UNL     1      -1.698   0.841   0.130  0.00  0.00    -0.269 N 
ATOM     13  C   UNL     1       1.540   2.738  -1.172  0.00  0.00    +0.011 C 
ATOM     14  C   UNL     1       2.559   3.346  -0.176  0.00  0.00    +0.004 C 
ATOM     15  C   UNL     1       2.357   2.804   1.253  0.00  0.00    +0.023 C 
ATOM     16  C   UNL     1       0.114   2.927  -0.620  0.00  0.00    +0.113 C 
ATOM     17  C   UNL     1       1.775   1.259  -1.533  0.00  0.00    +0.024 C 
ATOM     18  C   UNL     1       4.017   3.268  -0.645  0.00  0.00    +0.100 C 
ATOM     19  C   UNL     1       0.907   2.970   1.709  0.00  0.00    +0.109 C 
ATOM     20  C   UNL     1       3.134   1.001  -2.174  0.00  0.00    +0.108 C 
ATOM     21  C   UNL     1       4.688   1.924  -0.430  0.00  0.00    +0.216 C 
ATOM     23  C   UNL     1      -0.902   1.361   1.150  0.00  0.00    +0.306 C 
ATOM     35  H   UNL     1      -1.328   0.849  -0.815  0.00  0.00    +0.156 HD
ENDROOT
BRANCH  11  28
ATOM     28  C   UNL     1      -3.007   0.313   0.246  0.00  0.00    +0.035 A 
ATOM     29  C   UNL     1      -3.667  -0.170  -0.885  0.00  0.00    +0.027 A 
ATOM     30  C   UNL     1      -3.637   0.274   1.490  0.00  0.00    +0.027 A 
ATOM     31  C   UNL     1      -4.955  -0.690  -0.771  0.00  0.00    +0.048 A 
ATOM     32  C   UNL     1      -4.926  -0.246   1.603  0.00  0.00    +0.048 A 
ATOM     33  C   UNL     1      -5.585  -0.728   0.473  0.00  0.00    +0.130 A 
BRANCH  33   7
ATOM      7  O   UNL     1      -6.843  -1.237   0.584  0.00  0.00    -0.406 OA
BRANCH   7  34
ATOM      1  F   UNL     1      -8.988  -1.009  -0.080  0.00  0.00    -0.133 F 
ATOM      2  F   UNL     1      -7.438  -0.013  -1.255  0.00  0.00    -0.133 F 
ATOM      3  F   UNL     1      -7.651  -2.211  -1.321  0.00  0.00    -0.133 F 
ATOM     34  C   UNL     1      -7.718  -1.118  -0.532  0.00  0.00    +0.575 C 
ENDBRANCH   7  34
ENDBRANCH  33   7
ENDBRANCH  11  28
BRANCH   9  22
ATOM     22  C   UNL     1       4.722  -0.482  -0.972  0.00  0.00    +0.126 C 
BRANCH  22  24
ATOM     24  C   UNL     1       3.995  -1.222   0.138  0.00  0.00    +0.128 C 
BRANCH  24  10
ATOM      6  O   UNL     1       3.240  -3.837  -1.136  0.00  0.00    -0.253 OA
ATOM     10  N   UNL     1       4.534  -2.539   0.350  0.00  0.00    -0.283 N 
ATOM     12  N   UNL     1       4.937  -4.757   0.188  0.00  0.00    -0.298 N 
ATOM     25  C   UNL     1       5.661  -2.784   1.232  0.00  0.00    +0.128 C 
ATOM     26  C   UNL     1       5.848  -4.294   1.204  0.00  0.00    +0.124 C 
ATOM     27  C   UNL     1       4.127  -3.720  -0.301  0.00  0.00    +0.302 C 
ATOM     36  H   UNL     1       4.854  -5.725  -0.108  0.00  0.00    +0.150 HD
ENDBRANCH  24  10
ENDBRANCH  22  24
ENDBRANCH   9  22
TORSDOF 6
