REMARK  Name = 38028009
REMARK  11 active torsions:
REMARK  status: ('A' for Active; 'I' for Inactive)
REMARK    1  A    between atoms: N_4  and  C_15
REMARK    2  A    between atoms: N_5  and  C_25
REMARK    3  A    between atoms: C_7  and  C_11
REMARK    4  A    between atoms: C_8  and  C_15
REMARK    5  A    between atoms: C_10  and  C_14
REMARK    6  A    between atoms: C_11  and  C_16
REMARK    7  A    between atoms: C_11  and  C_17
REMARK    8  A    between atoms: C_12  and  C_18
REMARK    9  A    between atoms: C_14  and  C_19
REMARK   10  A    between atoms: C_24  and  C_26
REMARK   11  A    between atoms: C_31  and  C_32
REMARK                            x       y       z     vdW  Elec       q    Type
REMARK                         _______ _______ _______ _____ _____    ______ ____
ROOT
ATOM      7  C   UNL     1       2.665   1.159   0.639  0.00  0.00    +0.000 C 
ATOM      8  C   UNL     1       2.819   2.360  -0.327  0.00  0.00    +0.032 C 
ATOM      9  C   UNL     1       3.341  -0.090   0.053  0.00  0.00    +0.012 C 
ATOM     10  C   UNL     1       2.751  -0.485  -1.313  0.00  0.00    +0.023 C 
ATOM     12  C   UNL     1       2.621   0.709  -2.237  0.00  0.00    -0.073 C 
ATOM     13  C   UNL     1       2.667   1.973  -1.780  0.00  0.00    -0.022 C 
ATOM     18  C   UNL     1       2.482   0.418  -3.705  0.00  0.00    +0.039 C 
ENDROOT
BRANCH   7  11
ATOM     11  C   UNL     1       3.249   1.464   2.022  0.00  0.00    -0.013 C 
ATOM     16  C   UNL     1       2.591   0.586   3.083  0.00  0.00    +0.007 C 
ATOM     17  C   UNL     1       4.761   1.264   2.018  0.00  0.00    +0.007 C 
ENDBRANCH   7  11
BRANCH  10  14
ATOM     14  C   UNL     1       1.405  -1.200  -1.149  0.00  0.00    +0.103 C 
BRANCH  14  19
ATOM      1  O   UNL     1       2.781  -3.002  -0.456  0.00  0.00    -0.276 OA
ATOM      3  N   UNL     1       0.489  -3.383  -0.445  0.00  0.00    -0.299 N 
ATOM      5  N   UNL     1      -1.748  -4.737   0.726  0.00  0.00    -0.302 NA
ATOM     19  C   UNL     1       1.629  -2.607  -0.654  0.00  0.00    +0.216 C 
ATOM     20  C   UNL     1       0.622  -4.756   0.039  0.00  0.00    +0.123 C 
ATOM     21  C   UNL     1      -0.879  -2.991  -0.795  0.00  0.00    +0.123 C 
ATOM     22  C   UNL     1      -0.378  -5.050   1.157  0.00  0.00    +0.103 C 
ATOM     23  C   UNL     1      -1.854  -3.323   0.337  0.00  0.00    +0.103 C 
ATOM     25  C   UNL     1      -2.704  -5.050   1.787  0.00  0.00    +0.105 C 
ENDBRANCH  14  19
ENDBRANCH  10  14
BRANCH   8  15
ATOM     15  C   UNL     1       1.823   3.474   0.012  0.00  0.00    +0.112 C 
BRANCH  15   4
ATOM      2  O   UNL     1      -0.281   3.318   1.960  0.00  0.00    -0.270 OA
ATOM      4  N   UNL     1       0.480   3.040  -0.215  0.00  0.00    -0.311 N 
ATOM     24  C   UNL     1      -0.483   2.995   0.793  0.00  0.00    +0.244 C 
ATOM     33  H   UNL     1       0.212   2.845  -1.174  0.00  0.00    +0.149 HD
BRANCH  24  26
ATOM     26  C   UNL     1      -1.826   2.494   0.401  0.00  0.00    +0.037 A 
ATOM     27  C   UNL     1      -2.958   2.913   1.100  0.00  0.00    +0.014 A 
ATOM     28  C   UNL     1      -1.955   1.607  -0.668  0.00  0.00    +0.014 A 
ATOM     29  C   UNL     1      -4.219   2.444   0.731  0.00  0.00    +0.019 A 
ATOM     30  C   UNL     1      -3.216   1.138  -1.037  0.00  0.00    +0.019 A 
ATOM     31  C   UNL     1      -4.348   1.557  -0.338  0.00  0.00    +0.052 A 
BRANCH  31  32
ATOM      6  N   UNL     1      -6.688   0.685  -1.022  0.00  0.00    -0.191 NA
ATOM     32  C   UNL     1      -5.639   1.076  -0.716  0.00  0.00    +0.099 C 
ENDBRANCH  31  32
ENDBRANCH  24  26
ENDBRANCH  15   4
ENDBRANCH   8  15
TORSDOF 7
