REMARK  Name = 45361535
REMARK  14 active torsions:
REMARK  status: ('A' for Active; 'I' for Inactive)
REMARK    1  A    between atoms: O_1  and  C_11
REMARK    2  A    between atoms: O_4  and  C_24
REMARK    3  A    between atoms: O_4  and  C_27
REMARK    4  A    between atoms: O_5  and  C_26
REMARK    5  A    between atoms: O_5  and  C_30
REMARK    6  A    between atoms: N_6  and  C_15
REMARK    7  A    between atoms: N_7  and  C_25
REMARK    8  A    between atoms: C_8  and  C_18
REMARK    9  A    between atoms: C_10  and  C_20
REMARK   10  A    between atoms: C_14  and  C_19
REMARK   11  A    between atoms: C_19  and  C_21
REMARK   12  A    between atoms: C_19  and  C_22
REMARK   13  A    between atoms: C_23  and  C_24
REMARK   14  A    between atoms: C_25  and  C_26
REMARK                            x       y       z     vdW  Elec       q    Type
REMARK                         _______ _______ _______ _____ _____    ______ ____
ROOT
ATOM      8  C   UNL     1       1.351   0.357   1.308  0.00  0.00    -0.027 C 
ATOM      9  C   UNL     1       1.181  -0.363  -0.071  0.00  0.00    +0.028 C 
ATOM     10  C   UNL     1      -0.278  -0.921  -0.234  0.00  0.00    +0.012 C 
ATOM     11  C   UNL     1       2.322  -1.393  -0.313  0.00  0.00    +0.122 C 
ATOM     12  C   UNL     1       2.760   0.992   1.388  0.00  0.00    +0.007 C 
ATOM     13  C   UNL     1       0.314   1.500   1.411  0.00  0.00    +0.009 C 
ATOM     14  C   UNL     1       3.728  -0.777  -0.130  0.00  0.00    +0.029 C 
ATOM     15  C   UNL     1      -1.315   0.222  -0.053  0.00  0.00    +0.076 C 
ATOM     16  C   UNL     1       3.880  -0.021   1.190  0.00  0.00    +0.007 C 
ATOM     17  C   UNL     1      -1.120   1.022   1.235  0.00  0.00    +0.023 C 
ATOM     18  C   UNL     1       1.171  -0.606   2.508  0.00  0.00    +0.011 C 
ATOM     20  C   UNL     1      -0.524  -1.619  -1.582  0.00  0.00    +0.010 C 
ENDROOT
BRANCH  15   6
ATOM      3  O   UNL     1      -3.662   1.598  -1.038  0.00  0.00    -0.272 OA
ATOM      6  N   UNL     1      -2.674  -0.277  -0.081  0.00  0.00    -0.309 N 
ATOM     23  C   UNL     1      -3.735   0.463  -0.575  0.00  0.00    +0.251 C 
ATOM     34  H   UNL     1      -2.858  -1.184   0.338  0.00  0.00    +0.149 HD
BRANCH  23  24
ATOM     24  C   UNL     1      -5.038  -0.301  -0.484  0.00  0.00    +0.324 C 
BRANCH  24   4
ATOM      4  O   UNL     1      -6.103   0.465  -1.005  0.00  0.00    -0.483 OA
BRANCH   4  27
ATOM     27  C   UNL     1      -7.351   0.252  -0.468  0.00  0.00    +0.121 A 
ATOM     28  C   UNL     1      -7.689  -1.004   0.035  0.00  0.00    +0.045 A 
ATOM     29  C   UNL     1      -8.278   1.293  -0.425  0.00  0.00    +0.045 A 
ATOM     31  C   UNL     1      -8.955  -1.220   0.580  0.00  0.00    +0.004 A 
ATOM     32  C   UNL     1      -9.544   1.078   0.120  0.00  0.00    +0.004 A 
ATOM     33  C   UNL     1      -9.882  -0.179   0.622  0.00  0.00    +0.000 A 
ENDBRANCH   4  27
ENDBRANCH  24   4
ENDBRANCH  23  24
ENDBRANCH  15   6
BRANCH  11   1
ATOM      1  O   UNL     1       2.257  -1.869  -1.659  0.00  0.00    -0.391 OA
ATOM     35  H   UNL     1       2.357  -1.107  -2.254  0.00  0.00    +0.210 HD
ENDBRANCH  11   1
BRANCH  14  19
ATOM     19  C   UNL     1       4.832  -1.836  -0.243  0.00  0.00    +0.077 C 
ATOM     21  C   UNL     1       4.636  -2.915   0.815  0.00  0.00    +0.017 C 
BRANCH  19  22
ATOM      2  O   UNL     1       7.012  -1.487   0.754  0.00  0.00    -0.276 OA
ATOM      7  N   UNL     1       6.412  -0.200  -1.081  0.00  0.00    -0.313 N 
ATOM     22  C   UNL     1       6.201  -1.175  -0.117  0.00  0.00    +0.216 C 
ATOM     36  H   UNL     1       5.715  -0.041  -1.801  0.00  0.00    +0.149 HD
BRANCH   7  25
ATOM     25  C   UNL     1       7.634   0.566  -1.163  0.00  0.00    +0.132 C 
BRANCH  25  26
ATOM     26  C   UNL     1       7.554   1.834  -0.333  0.00  0.00    +0.178 C 
BRANCH  26   5
ATOM      5  O   UNL     1       6.507   2.658  -0.828  0.00  0.00    -0.381 OA
ATOM     30  C   UNL     1       6.395   3.863  -0.084  0.00  0.00    +0.194 C 
ENDBRANCH  26   5
ENDBRANCH  25  26
ENDBRANCH   7  25
ENDBRANCH  19  22
ENDBRANCH  14  19
TORSDOF 10
