REMARK  Name = 75536872
REMARK  4 active torsions:
REMARK  status: ('A' for Active; 'I' for Inactive)
REMARK    1  A    between atoms: O_6  and  C_14
REMARK    2  A    between atoms: O_6  and  C_17
REMARK    3  A    between atoms: C_8  and  C_11
REMARK    4  A    between atoms: C_22  and  C_23
REMARK                            x       y       z     vdW  Elec       q    Type
REMARK                         _______ _______ _______ _____ _____    ______ ____
ROOT
ATOM      4  O   UNL     1       2.733  -2.410   1.386  0.00  0.00    -0.375 OA
ATOM      5  O   UNL     1       2.232   1.903  -1.372  0.00  0.00    -0.275 OA
ATOM      7  N   UNL     1       3.107  -0.086  -0.514  0.00  0.00    -0.295 N 
ATOM     11  C   UNL     1       3.058   1.308  -0.686  0.00  0.00    +0.219 C 
ATOM     12  C   UNL     1       2.095  -0.914  -1.173  0.00  0.00    +0.154 C 
ATOM     13  C   UNL     1       4.125  -0.733   0.323  0.00  0.00    +0.136 C 
ATOM     14  C   UNL     1       1.077  -1.472  -0.179  0.00  0.00    +0.216 C 
ATOM     15  C   UNL     1       3.919  -2.212   0.623  0.00  0.00    +0.179 C 
ATOM     16  C   UNL     1       1.587  -2.687   0.591  0.00  0.00    +0.206 C 
ENDROOT
BRANCH  11   8
ATOM      8  C   UNL     1       4.080   2.123   0.044  0.00  0.00    +0.075 C 
ATOM      9  C   UNL     1       3.748   3.535   0.384  0.00  0.00    +0.013 C 
ATOM     10  C   UNL     1       3.808   2.494   1.461  0.00  0.00    +0.013 C 
ENDBRANCH  11   8
BRANCH  14   6
ATOM      6  O   UNL     1      -0.086  -1.854  -0.911  0.00  0.00    -0.485 OA
BRANCH   6  17
ATOM     17  C   UNL     1      -1.247  -1.198  -0.605  0.00  0.00    +0.121 A 
ATOM     18  C   UNL     1      -2.350  -1.914  -0.139  0.00  0.00    +0.046 A 
ATOM     19  C   UNL     1      -1.327   0.186  -0.758  0.00  0.00    +0.046 A 
ATOM     20  C   UNL     1      -3.534  -1.245   0.173  0.00  0.00    +0.016 A 
ATOM     21  C   UNL     1      -2.511   0.854  -0.446  0.00  0.00    +0.016 A 
ATOM     22  C   UNL     1      -3.615   0.139   0.020  0.00  0.00    +0.055 A 
BRANCH  22  23
ATOM      1  F   UNL     1      -5.423   1.526  -0.704  0.00  0.00    -0.166 F 
ATOM      2  F   UNL     1      -4.736   1.792   1.336  0.00  0.00    -0.166 F 
ATOM      3  F   UNL     1      -5.859   0.011   0.793  0.00  0.00    -0.166 F 
ATOM     23  C   UNL     1      -4.880   0.854   0.353  0.00  0.00    +0.417 C 
ENDBRANCH  22  23
ENDBRANCH   6  17
ENDBRANCH  14   6
TORSDOF 4
