REMARK  Name = 7051255
REMARK  6 active torsions:
REMARK  status: ('A' for Active; 'I' for Inactive)
REMARK    1  A    between atoms: S_2  and  N_10
REMARK    2  A    between atoms: S_2  and  C_28
REMARK    3  A    between atoms: O_7  and  C_29
REMARK    4  A    between atoms: O_7  and  C_35
REMARK    5  A    between atoms: N_10  and  C_21
REMARK    6  A    between atoms: C_20  and  C_23
REMARK                            x       y       z     vdW  Elec       q    Type
REMARK                         _______ _______ _______ _____ _____    ______ ____
ROOT
ATOM      3  O   UNL     1       0.504   3.337  -0.949  0.00  0.00    -0.266 OA
ATOM      4  O   UNL     1       3.001  -0.901  -2.578  0.00  0.00    -0.270 OA
ATOM      8  N   UNL     1       3.784  -0.398  -0.431  0.00  0.00    -0.297 N 
ATOM      9  N   UNL     1       1.989   2.093   0.368  0.00  0.00    -0.310 N 
ATOM     11  C   UNL     1       4.502   1.963  -0.105  0.00  0.00    +0.027 C 
ATOM     12  C   UNL     1       3.546   0.703   1.782  0.00  0.00    +0.054 C 
ATOM     13  C   UNL     1       4.628   1.710   1.394  0.00  0.00    +0.018 C 
ATOM     14  C   UNL     1       4.693   0.652  -0.889  0.00  0.00    +0.113 C 
ATOM     15  C   UNL     1       3.140   2.610  -0.384  0.00  0.00    +0.130 C 
ATOM     16  C   UNL     1       3.775  -0.620   1.024  0.00  0.00    +0.117 C 
ATOM     17  C   UNL     1       2.162   1.239   1.467  0.00  0.00    +0.027 A 
ATOM     18  C   UNL     1       1.106   0.867   2.213  0.00  0.00    +0.024 A 
ATOM     19  C   UNL     1       0.718   2.575  -0.006  0.00  0.00    +0.274 A 
ATOM     20  C   UNL     1       2.998  -1.082  -1.361  0.00  0.00    +0.247 C 
ATOM     21  C   UNL     1      -0.409   2.110   0.840  0.00  0.00    +0.112 A 
ATOM     22  C   UNL     1      -0.223   1.313   1.893  0.00  0.00    +0.031 A 
ENDROOT
BRANCH  20  23
ATOM     23  C   UNL     1       2.067  -2.098  -0.860  0.00  0.00    +0.037 A 
ATOM     24  C   UNL     1       0.767  -1.735  -0.515  0.00  0.00    +0.016 A 
ATOM     25  C   UNL     1       2.486  -3.419  -0.730  0.00  0.00    +0.016 A 
ATOM     26  C   UNL     1      -0.120  -2.700  -0.038  0.00  0.00    +0.046 A 
ATOM     27  C   UNL     1       1.599  -4.385  -0.253  0.00  0.00    +0.046 A 
ATOM     29  C   UNL     1       0.296  -4.025   0.093  0.00  0.00    +0.120 A 
BRANCH  29   7
ATOM      7  O   UNL     1      -0.569  -4.968   0.556  0.00  0.00    -0.495 OA
ATOM     35  C   UNL     1      -1.886  -4.532   0.889  0.00  0.00    +0.277 C 
ENDBRANCH  29   7
ENDBRANCH  20  23
BRANCH  21  10
ATOM     10  N   UNL     1      -1.725   2.514   0.552  0.00  0.00    -0.211 N 
ATOM     36  H   UNL     1      -2.369   2.369   1.342  0.00  0.00    +0.174 HD
BRANCH  10   2
ATOM      2  S   UNL     1      -2.352   2.079  -0.958  0.00  0.00    +0.072 S 
ATOM      5  O   UNL     1      -2.869   3.256  -1.630  0.00  0.00    -0.150 OA
ATOM      6  O   UNL     1      -1.420   1.200  -1.639  0.00  0.00    -0.150 OA
BRANCH   2  28
ATOM      1 CL   UNL     1      -7.264  -1.386   0.776  0.00  0.00    -0.084 Cl
ATOM     28  C   UNL     1      -3.740   1.100  -0.468  0.00  0.00    +0.109 A 
ATOM     30  C   UNL     1      -4.965   1.714  -0.277  0.00  0.00    +0.030 A 
ATOM     31  C   UNL     1      -3.575  -0.262  -0.285  0.00  0.00    +0.030 A 
ATOM     32  C   UNL     1      -6.061   0.941   0.110  0.00  0.00    +0.022 A 
ATOM     33  C   UNL     1      -4.670  -1.034   0.101  0.00  0.00    +0.022 A 
ATOM     34  C   UNL     1      -5.913  -0.433   0.299  0.00  0.00    +0.041 A 
ENDBRANCH   2  28
ENDBRANCH  10   2
ENDBRANCH  21  10
TORSDOF 5
