REMARK  Name = 11880087
REMARK  11 active torsions:
REMARK  status: ('A' for Active; 'I' for Inactive)
REMARK    1  A    between atoms: O_3  and  C_25
REMARK    2  A    between atoms: O_3  and  C_36
REMARK    3  A    between atoms: N_8  and  C_16
REMARK    4  A    between atoms: N_9  and  C_24
REMARK    5  A    between atoms: C_18  and  C_21
REMARK    6  A    between atoms: C_22  and  C_25
REMARK    7  A    between atoms: C_23  and  C_28
REMARK    8  A    between atoms: C_24  and  C_26
REMARK    9  A    between atoms: C_24  and  C_30
REMARK   10  A    between atoms: C_26  and  C_29
REMARK   11  A    between atoms: C_27  and  C_32
REMARK                            x       y       z     vdW  Elec       q    Type
REMARK                         _______ _______ _______ _____ _____    ______ ____
ROOT
ATOM      2  O   UNL     1       4.128  -3.851   0.567  0.00  0.00    -0.273 OA
ATOM      7  N   UNL     1       2.330  -2.413   0.214  0.00  0.00    -0.288 N 
ATOM     16  C   UNL     1      -0.550  -1.959   0.362  0.00  0.00    +0.113 C 
ATOM     17  C   UNL     1       0.293  -1.310  -0.749  0.00  0.00    +0.059 C 
ATOM     18  C   UNL     1       1.776  -1.189  -0.387  0.00  0.00    +0.164 C 
ATOM     19  C   UNL     1       0.084  -3.280   0.814  0.00  0.00    +0.046 C 
ATOM     20  C   UNL     1       1.525  -3.058   1.259  0.00  0.00    +0.111 C 
ATOM     22  C   UNL     1       3.618  -2.903  -0.037  0.00  0.00    +0.242 C 
ENDROOT
BRANCH  16   8
ATOM      8  N   UNL     1      -1.959  -2.111  -0.023  0.00  0.00    -0.236 N 
ATOM     10  N   UNL     1      -2.295  -2.894  -1.061  0.00  0.00    -0.064 NA
ATOM     11  N   UNL     1      -3.618  -2.847  -1.179  0.00  0.00    -0.124 NA
ATOM     23  C   UNL     1      -3.054  -1.542   0.551  0.00  0.00    +0.156 A 
ATOM     27  C   UNL     1      -4.098  -2.023  -0.199  0.00  0.00    +0.179 A 
BRANCH  23  28
ATOM      4  O   UNL     1      -3.115  -1.046   2.862  0.00  0.00    -0.269 OA
ATOM     13  N   UNL     1      -2.948   0.715   1.424  0.00  0.00    -0.324 N 
ATOM     28  C   UNL     1      -3.051  -0.659   1.672  0.00  0.00    +0.262 C 
ATOM     42  H   UNL     1      -2.879   1.081   0.481  0.00  0.00    +0.145 HD
ATOM     43  H   UNL     1      -2.933   1.386   2.185  0.00  0.00    +0.145 HD
ENDBRANCH  23  28
BRANCH  27  32
ATOM      6  O   UNL     1      -5.942  -0.976   0.846  0.00  0.00    -0.269 OA
ATOM     15  N   UNL     1      -6.387  -2.348  -0.919  0.00  0.00    -0.324 N 
ATOM     32  C   UNL     1      -5.490  -1.744  -0.033  0.00  0.00    +0.264 C 
ATOM     46  H   UNL     1      -7.385  -2.177  -0.849  0.00  0.00    +0.145 HD
ATOM     47  H   UNL     1      -6.077  -2.972  -1.657  0.00  0.00    +0.145 HD
ENDBRANCH  27  32
ENDBRANCH  16   8
BRANCH  18  21
ATOM      1  O   UNL     1       2.050  -0.256   1.795  0.00  0.00    -0.274 OA
ATOM      9  N   UNL     1       2.217   1.144  -0.058  0.00  0.00    -0.302 N 
ATOM     21  C   UNL     1       2.033  -0.071   0.581  0.00  0.00    +0.234 C 
ATOM     40  H   UNL     1       2.244   1.168  -1.073  0.00  0.00    +0.150 HD
BRANCH   9  24
ATOM     24  C   UNL     1       2.458   2.380   0.649  0.00  0.00    +0.163 C 
BRANCH  24  30
ATOM      5  O   UNL     1       4.802   2.065   0.091  0.00  0.00    -0.274 OA
ATOM     14  N   UNL     1       4.274   3.121   2.062  0.00  0.00    -0.328 N 
ATOM     30  C   UNL     1       3.958   2.476   0.885  0.00  0.00    +0.231 C 
ATOM     44  H   UNL     1       5.242   3.264   2.333  0.00  0.00    +0.145 HD
ATOM     45  H   UNL     1       3.567   3.476   2.697  0.00  0.00    +0.145 HD
ENDBRANCH  24  30
BRANCH  24  26
ATOM     26  C   UNL     1       1.958   3.603  -0.131  0.00  0.00    +0.069 C 
BRANCH  26  29
ATOM     12  N   UNL     1      -1.505   4.500   0.711  0.00  0.00    -0.360 N 
ATOM     29  C   UNL     1       0.475   3.810  -0.015  0.00  0.00    -0.020 A 
ATOM     31  C   UNL     1      -0.525   3.271  -0.872  0.00  0.00    +0.003 A 
ATOM     33  C   UNL     1      -0.158   4.561   0.948  0.00  0.00    +0.087 A 
ATOM     34  C   UNL     1      -1.759   3.719  -0.394  0.00  0.00    +0.047 A 
ATOM     35  C   UNL     1      -0.500   2.442  -2.011  0.00  0.00    +0.010 A 
ATOM     37  C   UNL     1      -2.973   3.379  -1.001  0.00  0.00    +0.026 A 
ATOM     38  C   UNL     1      -1.707   2.094  -2.628  0.00  0.00    +0.001 A 
ATOM     39  C   UNL     1      -2.923   2.556  -2.130  0.00  0.00    +0.002 A 
ATOM     41  H   UNL     1      -2.212   4.961   1.267  0.00  0.00    +0.165 HD
ENDBRANCH  26  29
ENDBRANCH  24  26
ENDBRANCH   9  24
ENDBRANCH  18  21
BRANCH  22  25
ATOM     25  C   UNL     1       4.406  -2.218  -1.126  0.00  0.00    +0.255 C 
BRANCH  25   3
ATOM      3  O   UNL     1       5.662  -2.850  -1.170  0.00  0.00    -0.374 OA
ATOM     36  C   UNL     1       6.510  -2.288  -2.170  0.00  0.00    +0.194 C 
ENDBRANCH  25   3
ENDBRANCH  22  25
TORSDOF 10
