REMARK  Name = 51136878
REMARK  7 active torsions:
REMARK  status: ('A' for Active; 'I' for Inactive)
REMARK    1  A    between atoms: O_2  and  C_25
REMARK    2  A    between atoms: O_2  and  C_28
REMARK    3  A    between atoms: N_4  and  C_14
REMARK    4  A    between atoms: N_8  and  C_20
REMARK    5  A    between atoms: C_9  and  C_13
REMARK    6  A    between atoms: C_15  and  C_16
REMARK    7  A    between atoms: C_21  and  C_22
REMARK                            x       y       z     vdW  Elec       q    Type
REMARK                         _______ _______ _______ _____ _____    ______ ____
ROOT
ATOM      7  N   UNL     1       0.628  -1.841   0.115  0.00  0.00    -0.239 NA
ATOM     16  C   UNL     1      -1.585  -0.879  -0.029  0.00  0.00    +0.041 A 
ATOM     17  C   UNL     1      -1.034   0.392  -0.143  0.00  0.00    +0.016 A 
ATOM     18  C   UNL     1      -0.719  -1.954   0.097  0.00  0.00    +0.124 A 
ATOM     19  C   UNL     1       0.348   0.548  -0.129  0.00  0.00    +0.044 A 
ATOM     20  C   UNL     1       1.128  -0.590   0.001  0.00  0.00    +0.125 A 
ENDROOT
BRANCH  16  15
ATOM      1  O   UNL     1      -4.938  -1.986   0.006  0.00  0.00    -0.336 OA
ATOM      5  N   UNL     1      -3.871  -0.023  -0.163  0.00  0.00    -0.190 NA
ATOM      6  N   UNL     1      -3.570  -2.280   0.066  0.00  0.00    -0.056 NA
ATOM     13  C   UNL     1      -5.027  -0.636  -0.129  0.00  0.00    +0.245 A 
ATOM     15  C   UNL     1      -3.007  -1.072  -0.041  0.00  0.00    +0.204 A 
BRANCH  13   9
ATOM      4  N   UNL     1      -6.689   0.947   0.832  0.00  0.00    -0.294 NA
ATOM      9  C   UNL     1      -6.424  -0.058  -0.216  0.00  0.00    +0.146 C 
ATOM     10  C   UNL     1      -6.679   0.683  -1.542  0.00  0.00    +0.030 C 
ATOM     11  C   UNL     1      -7.140   2.075  -1.136  0.00  0.00    +0.017 C 
ATOM     12  C   UNL     1      -7.665   1.882   0.272  0.00  0.00    +0.085 C 
ATOM     14  C   UNL     1      -7.147   0.362   2.086  0.00  0.00    +0.105 C 
ENDBRANCH  13   9
ENDBRANCH  16  15
BRANCH  20   8
ATOM      3  O   UNL     1       2.780   1.903  -0.211  0.00  0.00    -0.270 OA
ATOM      8  N   UNL     1       2.517  -0.422   0.015  0.00  0.00    -0.266 N 
ATOM     22  C   UNL     1       3.238   0.772  -0.088  0.00  0.00    +0.249 C 
ATOM     29  H   UNL     1       3.018  -1.294   0.158  0.00  0.00    +0.157 HD
BRANCH  22  21
ATOM     21  C   UNL     1       4.716   0.628  -0.011  0.00  0.00    +0.037 A 
ATOM     23  C   UNL     1       5.496   1.687   0.455  0.00  0.00    +0.016 A 
ATOM     24  C   UNL     1       5.322  -0.564  -0.406  0.00  0.00    +0.016 A 
ATOM     25  C   UNL     1       7.489   0.360   0.130  0.00  0.00    +0.120 A 
ATOM     26  C   UNL     1       6.883   1.553   0.525  0.00  0.00    +0.046 A 
ATOM     27  C   UNL     1       6.709  -0.698  -0.336  0.00  0.00    +0.046 A 
BRANCH  25   2
ATOM      2  O   UNL     1       8.842   0.230   0.199  0.00  0.00    -0.495 OA
ATOM     28  C   UNL     1       9.396  -1.016  -0.221  0.00  0.00    +0.277 C 
ENDBRANCH  25   2
ENDBRANCH  22  21
ENDBRANCH  20   8
TORSDOF 5
