REMARK  Name = 75367111
REMARK  10 active torsions:
REMARK  status: ('A' for Active; 'I' for Inactive)
REMARK    1  A    between atoms: O_2  and  C_8
REMARK    2  A    between atoms: N_4  and  C_7
REMARK    3  A    between atoms: N_4  and  C_12
REMARK    4  A    between atoms: N_5  and  C_13
REMARK    5  A    between atoms: C_9  and  C_13
REMARK    6  A    between atoms: C_11  and  C_12
REMARK    7  A    between atoms: C_11  and  C_14
REMARK    8  A    between atoms: C_11  and  C_15
REMARK    9  A    between atoms: C_11  and  C_16
REMARK   10  A    between atoms: C_17  and  C_18
REMARK                            x       y       z     vdW  Elec       q    Type
REMARK                         _______ _______ _______ _____ _____    ______ ____
ROOT
ATOM      1  O   UNL     1      -0.345  -0.905   0.291  0.00  0.00    -0.371 OA
ATOM      7  C   UNL     1      -2.422   0.118  -0.240  0.00  0.00    +0.111 C 
ATOM      8  C   UNL     1      -1.514   1.148   0.405  0.00  0.00    +0.164 C 
ATOM      9  C   UNL     1      -0.147   0.515   0.183  0.00  0.00    +0.165 C 
ATOM     10  C   UNL     1      -1.752  -1.180   0.182  0.00  0.00    +0.181 C 
ENDROOT
BRANCH   8   2
ATOM      2  O   UNL     1      -1.611   2.420  -0.205  0.00  0.00    -0.388 OA
ATOM     24  H   UNL     1      -1.417   2.320  -1.153  0.00  0.00    +0.210 HD
ENDBRANCH   8   2
BRANCH   7   4
ATOM      4  N   UNL     1      -3.807   0.208   0.194  0.00  0.00    -0.308 NA
ATOM     23  H   UNL     1      -4.093   1.186   0.187  0.00  0.00    +0.122 HD
BRANCH   4  12
ATOM     12  C   UNL     1      -4.683  -0.557  -0.685  0.00  0.00    +0.087 C 
BRANCH  12  11
ATOM     11  C   UNL     1      -6.169  -0.565  -0.246  0.00  0.00    -0.025 C 
ATOM     14  C   UNL     1      -6.323  -1.088   1.194  0.00  0.00    +0.012 C 
ATOM     15  C   UNL     1      -7.017  -1.432  -1.193  0.00  0.00    +0.012 C 
ATOM     16  C   UNL     1      -6.696   0.882  -0.299  0.00  0.00    +0.012 C 
ENDBRANCH  12  11
ENDBRANCH   4  12
ENDBRANCH   7   4
BRANCH   9  13
ATOM     13  C   UNL     1       0.895   0.966   1.190  0.00  0.00    +0.138 C 
BRANCH  13   5
ATOM      3  O   UNL     1       2.999   1.961  -0.491  0.00  0.00    -0.270 OA
ATOM      5  N   UNL     1       2.163   0.342   0.945  0.00  0.00    -0.309 N 
ATOM     17  C   UNL     1       3.128   0.898   0.110  0.00  0.00    +0.244 C 
ATOM     25  H   UNL     1       2.308  -0.573   1.358  0.00  0.00    +0.149 HD
BRANCH  17  18
ATOM      6  N   UNL     1       6.729  -1.364  -0.385  0.00  0.00    -0.263 NA
ATOM     18  C   UNL     1       4.379   0.115  -0.061  0.00  0.00    +0.040 A 
ATOM     19  C   UNL     1       5.129   0.242  -1.225  0.00  0.00    +0.033 A 
ATOM     20  C   UNL     1       4.803  -0.751   0.941  0.00  0.00    +0.033 A 
ATOM     21  C   UNL     1       6.285  -0.512  -1.337  0.00  0.00    +0.111 A 
ATOM     22  C   UNL     1       5.974  -1.461   0.732  0.00  0.00    +0.111 A 
ENDBRANCH  17  18
ENDBRANCH  13   5
ENDBRANCH   9  13
TORSDOF 7
