REMARK  Name = 11912252
REMARK  5 active torsions:
REMARK  status: ('A' for Active; 'I' for Inactive)
REMARK    1  A    between atoms: S_1  and  N_8
REMARK    2  A    between atoms: S_1  and  C_28
REMARK    3  A    between atoms: N_10  and  C_13
REMARK    4  A    between atoms: N_11  and  C_25
REMARK    5  A    between atoms: C_14  and  C_24
REMARK                            x       y       z     vdW  Elec       q    Type
REMARK                         _______ _______ _______ _____ _____    ______ ____
ROOT
ATOM      3  O   UNL     1      -1.308   3.274  -0.162  0.00  0.00    -0.253 OA
ATOM      8  N   UNL     1       0.705  -1.093  -1.727  0.00  0.00    -0.162 NA
ATOM      9  N   UNL     1      -1.014   1.186  -1.135  0.00  0.00    -0.282 N 
ATOM     10  N   UNL     1      -3.161   1.965  -0.551  0.00  0.00    -0.296 N 
ATOM     14  C   UNL     1       1.140   0.036  -0.854  0.00  0.00    +0.183 C 
ATOM     15  C   UNL     1       0.438   1.339  -1.218  0.00  0.00    +0.139 C 
ATOM     18  C   UNL     1      -0.550  -0.844  -2.493  0.00  0.00    +0.129 C 
ATOM     19  C   UNL     1      -1.559  -0.077  -1.648  0.00  0.00    +0.126 C 
ATOM     23  C   UNL     1      -1.793   2.220  -0.586  0.00  0.00    +0.303 C 
ATOM     36  H   UNL     1      -3.505   1.042  -0.785  0.00  0.00    +0.151 HD
ENDROOT
BRANCH  10  13
ATOM     13  C   UNL     1      -4.112   2.914  -0.016  0.00  0.00    +0.074 C 
ATOM     16  C   UNL     1      -4.295   2.719   1.493  0.00  0.00    +0.022 C 
ATOM     17  C   UNL     1      -5.452   2.825  -0.753  0.00  0.00    +0.022 C 
ATOM     20  C   UNL     1      -5.068   1.444   1.829  0.00  0.00    +0.002 C 
ATOM     21  C   UNL     1      -6.224   1.550  -0.413  0.00  0.00    +0.002 C 
ATOM     22  C   UNL     1      -6.402   1.385   1.093  0.00  0.00    +0.000 C 
ENDBRANCH  10  13
BRANCH  14  24
ATOM      6  O   UNL     1       3.124  -0.073  -2.166  0.00  0.00    -0.274 OA
ATOM     11  N   UNL     1       3.282   0.544   0.073  0.00  0.00    -0.303 N 
ATOM     24  C   UNL     1       2.610   0.163  -1.075  0.00  0.00    +0.234 C 
ATOM     37  H   UNL     1       2.748   0.742   0.915  0.00  0.00    +0.149 HD
BRANCH  11  25
ATOM      7  O   UNL     1       4.649  -0.681   2.099  0.00  0.00    -0.274 OA
ATOM     12  N   UNL     1       6.317   0.876   1.995  0.00  0.00    -0.314 N 
ATOM     25  C   UNL     1       4.711   0.714   0.130  0.00  0.00    +0.159 C 
ATOM     26  C   UNL     1       5.101   2.142  -0.225  0.00  0.00    +0.033 C 
ATOM     27  C   UNL     1       6.590   2.339   0.013  0.00  0.00    +0.021 C 
ATOM     29  C   UNL     1       5.184   0.258   1.506  0.00  0.00    +0.233 C 
ATOM     30  C   UNL     1       6.892   2.106   1.481  0.00  0.00    +0.104 C 
ATOM     38  H   UNL     1       6.675   0.540   2.884  0.00  0.00    +0.149 HD
ENDBRANCH  11  25
ENDBRANCH  14  24
BRANCH   8   1
ATOM      1  S   UNL     1       0.921  -2.674  -1.107  0.00  0.00    +0.062 S 
ATOM      4  O   UNL     1       2.093  -2.683  -0.264  0.00  0.00    -0.153 OA
ATOM      5  O   UNL     1       0.762  -3.616  -2.189  0.00  0.00    -0.153 OA
BRANCH   1  28
ATOM      2  F   UNL     1      -3.829  -3.040   2.360  0.00  0.00    -0.205 F 
ATOM     28  C   UNL     1      -0.501  -2.783  -0.069  0.00  0.00    +0.106 A 
ATOM     31  C   UNL     1      -1.702  -3.275  -0.581  0.00  0.00    +0.031 A 
ATOM     32  C   UNL     1      -0.424  -2.378   1.263  0.00  0.00    +0.031 A 
ATOM     33  C   UNL     1      -2.826  -3.361   0.240  0.00  0.00    +0.040 A 
ATOM     34  C   UNL     1      -1.549  -2.465   2.084  0.00  0.00    +0.040 A 
ATOM     35  C   UNL     1      -2.750  -2.956   1.572  0.00  0.00    +0.124 A 
ENDBRANCH   1  28
ENDBRANCH   8   1
TORSDOF 5
