REMARK  Name = 40778175
REMARK  10 active torsions:
REMARK  status: ('A' for Active; 'I' for Inactive)
REMARK    1  A    between atoms: S_1  and  N_10
REMARK    2  A    between atoms: S_1  and  C_23
REMARK    3  A    between atoms: O_3  and  C_12
REMARK    4  A    between atoms: O_4  and  C_13
REMARK    5  A    between atoms: N_9  and  C_22
REMARK    6  A    between atoms: N_10  and  C_16
REMARK    7  A    between atoms: C_11  and  C_15
REMARK    8  A    between atoms: C_14  and  C_16
REMARK    9  A    between atoms: C_15  and  C_17
REMARK   10  A    between atoms: C_33  and  C_34
REMARK                            x       y       z     vdW  Elec       q    Type
REMARK                         _______ _______ _______ _____ _____    ______ ____
ROOT
ATOM      2  O   UNL     1       1.671   2.300  -0.679  0.00  0.00    -0.366 OA
ATOM     11  C   UNL     1       0.948   2.859   0.432  0.00  0.00    +0.158 C 
ATOM     12  C   UNL     1       1.942   2.920   1.580  0.00  0.00    +0.175 C 
ATOM     13  C   UNL     1       3.228   3.246   0.850  0.00  0.00    +0.175 C 
ATOM     14  C   UNL     1       3.089   2.420  -0.423  0.00  0.00    +0.165 C 
ENDROOT
BRANCH  12   3
ATOM      3  O   UNL     1       1.582   3.889   2.541  0.00  0.00    -0.387 OA
ATOM     35  H   UNL     1       2.315   3.954   3.177  0.00  0.00    +0.210 HD
ENDBRANCH  12   3
BRANCH  13   4
ATOM      4  O   UNL     1       3.254   4.625   0.483  0.00  0.00    -0.387 OA
ATOM     36  H   UNL     1       4.076   4.778  -0.012  0.00  0.00    +0.210 HD
ENDBRANCH  13   4
BRANCH  11  15
ATOM     15  C   UNL     1      -0.269   2.002   0.733  0.00  0.00    +0.130 C 
BRANCH  15  17
ATOM      5  O   UNL     1      -1.186   3.157  -1.128  0.00  0.00    -0.276 OA
ATOM      8  N   UNL     1      -2.538   1.554  -0.125  0.00  0.00    -0.298 N 
ATOM      9  N   UNL     1      -4.930  -0.075  -0.068  0.00  0.00    -0.327 N 
ATOM     17  C   UNL     1      -1.364   2.296  -0.262  0.00  0.00    +0.218 C 
ATOM     18  C   UNL     1      -3.647   1.784  -1.047  0.00  0.00    +0.126 C 
ATOM     19  C   UNL     1      -2.743   0.525   0.897  0.00  0.00    +0.126 C 
ATOM     20  C   UNL     1      -4.437   0.506  -1.319  0.00  0.00    +0.124 C 
ATOM     21  C   UNL     1      -4.222   0.252   1.173  0.00  0.00    +0.124 C 
BRANCH   9  22
ATOM     22  C   UNL     1      -6.062  -0.886  -0.057  0.00  0.00    +0.030 A 
ATOM     24  C   UNL     1      -6.378  -1.657  -1.175  0.00  0.00    +0.023 A 
ATOM     25  C   UNL     1      -6.880  -0.927   1.072  0.00  0.00    +0.023 A 
ATOM     28  C   UNL     1      -7.512  -2.470  -1.165  0.00  0.00    +0.002 A 
ATOM     29  C   UNL     1      -8.014  -1.739   1.082  0.00  0.00    +0.002 A 
ATOM     30  C   UNL     1      -8.330  -2.510  -0.036  0.00  0.00    +0.000 A 
ENDBRANCH   9  22
ENDBRANCH  15  17
ENDBRANCH  11  15
BRANCH  14  16
ATOM     16  C   UNL     1       3.658   1.014  -0.287  0.00  0.00    +0.140 C 
BRANCH  16  10
ATOM     10  N   UNL     1       3.503   0.272  -1.504  0.00  0.00    -0.187 NA
ATOM     37  H   UNL     1       2.545   0.180  -1.865  0.00  0.00    +0.148 HD
BRANCH  10   1
ATOM      1  S   UNL     1       4.642  -0.935  -1.967  0.00  0.00    +0.058 S 
ATOM      6  O   UNL     1       5.968  -0.349  -1.953  0.00  0.00    -0.153 OA
ATOM      7  O   UNL     1       4.170  -1.644  -3.142  0.00  0.00    -0.153 OA
BRANCH   1  23
ATOM     23  C   UNL     1       4.527  -2.057  -0.606  0.00  0.00    +0.105 A 
ATOM     26  C   UNL     1       3.607  -3.105  -0.643  0.00  0.00    +0.029 A 
ATOM     27  C   UNL     1       5.355  -1.895   0.504  0.00  0.00    +0.029 A 
ATOM     31  C   UNL     1       3.515  -3.990   0.431  0.00  0.00    +0.005 A 
ATOM     32  C   UNL     1       5.264  -2.780   1.578  0.00  0.00    +0.005 A 
ATOM     33  C   UNL     1       4.344  -3.828   1.541  0.00  0.00    -0.050 A 
ATOM     34  C   UNL     1       4.246  -4.775   2.689  0.00  0.00    +0.044 C 
ENDBRANCH   1  23
ENDBRANCH  10   1
ENDBRANCH  16  10
ENDBRANCH  14  16
TORSDOF 9
