REMARK  Name = 45783823
REMARK  7 active torsions:
REMARK  status: ('A' for Active; 'I' for Inactive)
REMARK    1  A    between atoms: N_3  and  C_12
REMARK    2  A    between atoms: N_7  and  C_27
REMARK    3  A    between atoms: N_7  and  C_28
REMARK    4  A    between atoms: N_7  and  C_29
REMARK    5  A    between atoms: C_8  and  C_13
REMARK    6  A    between atoms: C_12  and  C_14
REMARK    7  A    between atoms: C_17  and  C_19
REMARK                            x       y       z     vdW  Elec       q    Type
REMARK                         _______ _______ _______ _____ _____    ______ ____
ROOT
ATOM      3  N   UNL     1      -3.771  -0.383  -0.759  0.00  0.00    -0.284 NA
ATOM      8  C   UNL     1      -3.485  -1.382   0.291  0.00  0.00    +0.146 C 
ATOM      9  C   UNL     1      -4.032  -2.707  -0.270  0.00  0.00    +0.030 C 
ATOM     10  C   UNL     1      -4.661  -2.343  -1.608  0.00  0.00    +0.017 C 
ATOM     11  C   UNL     1      -4.954  -0.863  -1.473  0.00  0.00    +0.085 C 
ENDROOT
BRANCH   8  13
ATOM      1  O   UNL     1      -1.706  -1.865   1.896  0.00  0.00    -0.336 OA
ATOM      4  N   UNL     1      -0.970  -1.184  -0.107  0.00  0.00    -0.190 NA
ATOM      5  N   UNL     1      -0.307  -1.855   1.977  0.00  0.00    -0.056 NA
ATOM     13  C   UNL     1      -2.012  -1.458   0.636  0.00  0.00    +0.245 A 
ATOM     17  C   UNL     1       0.053  -1.442   0.758  0.00  0.00    +0.204 A 
BRANCH  17  19
ATOM      6  N   UNL     1       3.766  -1.413   0.963  0.00  0.00    -0.240 NA
ATOM     19  C   UNL     1       1.425  -1.280   0.373  0.00  0.00    +0.041 A 
ATOM     24  C   UNL     1       1.764  -0.851  -0.905  0.00  0.00    +0.016 A 
ATOM     25  C   UNL     1       2.454  -1.546   1.262  0.00  0.00    +0.124 A 
ATOM     26  C   UNL     1       3.103  -0.702  -1.250  0.00  0.00    +0.044 A 
ATOM     27  C   UNL     1       4.057  -0.994  -0.288  0.00  0.00    +0.121 A 
BRANCH  27   7
ATOM      7  N   UNL     1       5.417  -0.839  -0.655  0.00  0.00    -0.321 N 
ATOM     28  C   UNL     1       6.465  -1.118   0.301  0.00  0.00    +0.130 C 
ATOM     29  C   UNL     1       5.765  -0.393  -1.986  0.00  0.00    +0.130 C 
ENDBRANCH  27   7
ENDBRANCH  17  19
ENDBRANCH   8  13
BRANCH   3  12
ATOM     12  C   UNL     1      -3.955   0.964  -0.235  0.00  0.00    +0.159 C 
BRANCH  12  14
ATOM      2  O   UNL     1      -1.784   1.765  -0.987  0.00  0.00    -0.458 OA
ATOM     14  C   UNL     1      -2.640   1.635   0.060  0.00  0.00    +0.120 A 
ATOM     15  C   UNL     1      -2.094   2.168   1.205  0.00  0.00    +0.054 A 
ATOM     16  C   UNL     1      -0.812   2.662   0.845  0.00  0.00    +0.020 A 
ATOM     18  C   UNL     1      -0.670   2.390  -0.512  0.00  0.00    +0.135 A 
ATOM     20  C   UNL     1       0.242   3.307   1.515  0.00  0.00    +0.011 A 
ATOM     21  C   UNL     1       0.459   2.717  -1.260  0.00  0.00    +0.047 A 
ATOM     22  C   UNL     1       1.391   3.649   0.788  0.00  0.00    +0.001 A 
ATOM     23  C   UNL     1       1.495   3.359  -0.575  0.00  0.00    +0.004 A 
ENDBRANCH  12  14
ENDBRANCH   3  12
TORSDOF 5
