REMARK  Name = 25390950
REMARK  4 active torsions:
REMARK  status: ('A' for Active; 'I' for Inactive)
REMARK    1  A    between atoms: O_4  and  C_22
REMARK    2  A    between atoms: O_4  and  C_27
REMARK    3  A    between atoms: N_6  and  C_9
REMARK    4  A    between atoms: C_19  and  C_21
REMARK                            x       y       z     vdW  Elec       q    Type
REMARK                         _______ _______ _______ _____ _____    ______ ____
ROOT
ATOM      2  O   UNL     1       4.234   2.108   0.722  0.00  0.00    -0.273 OA
ATOM      3  O   UNL     1       1.081  -0.686  -2.352  0.00  0.00    -0.270 OA
ATOM      5  N   UNL     1       2.767  -0.388  -0.784  0.00  0.00    -0.286 N 
ATOM      7  N   UNL     1       1.954   2.123   0.553  0.00  0.00    -0.283 N 
ATOM      8  C   UNL     1       3.131  -0.033   0.582  0.00  0.00    +0.164 C 
ATOM      9  C   UNL     1       5.530  -0.790   0.070  0.00  0.00    +0.054 C 
ATOM     10  C   UNL     1       4.405  -0.709   1.101  0.00  0.00    +0.050 C 
ATOM     11  C   UNL     1       4.997  -1.421  -1.211  0.00  0.00    +0.037 C 
ATOM     12  C   UNL     1       3.838  -0.607  -1.761  0.00  0.00    +0.110 C 
ATOM     13  C   UNL     1       3.179   1.484   0.603  0.00  0.00    +0.238 C 
ATOM     14  C   UNL     1       1.452  -0.301  -1.242  0.00  0.00    +0.249 C 
ATOM     15  C   UNL     1       0.438   0.357  -0.376  0.00  0.00    +0.059 A 
ATOM     16  C   UNL     1       0.683   1.540   0.347  0.00  0.00    +0.046 A 
ATOM     17  C   UNL     1      -0.873  -0.139  -0.471  0.00  0.00    +0.023 A 
ATOM     18  C   UNL     1      -0.406   2.233   0.901  0.00  0.00    +0.024 A 
ATOM     19  C   UNL     1      -1.935   0.537   0.129  0.00  0.00    -0.014 A 
ATOM     20  C   UNL     1      -1.703   1.730   0.804  0.00  0.00    +0.010 A 
ATOM     30  H   UNL     1       1.961   3.112   0.791  0.00  0.00    +0.155 HD
ENDROOT
BRANCH  19  21
ATOM      1 CL   UNL     1      -6.778   1.229  -1.478  0.00  0.00    -0.084 Cl
ATOM     21  C   UNL     1      -3.279   0.011   0.029  0.00  0.00    +0.025 A 
ATOM     22  C   UNL     1      -3.597  -1.243   0.550  0.00  0.00    +0.128 A 
ATOM     23  C   UNL     1      -4.262   0.775  -0.599  0.00  0.00    +0.032 A 
ATOM     24  C   UNL     1      -4.899  -1.732   0.444  0.00  0.00    +0.047 A 
ATOM     25  C   UNL     1      -5.564   0.286  -0.706  0.00  0.00    +0.042 A 
ATOM     26  C   UNL     1      -5.883  -0.968  -0.184  0.00  0.00    +0.023 A 
BRANCH  22   4
ATOM      4  O   UNL     1      -2.655  -2.012   1.167  0.00  0.00    -0.495 OA
ATOM     27  C   UNL     1      -2.499  -1.839   2.574  0.00  0.00    +0.277 C 
ENDBRANCH  22   4
ENDBRANCH  19  21
BRANCH   9   6
ATOM      6  N   UNL     1       6.646  -1.546   0.589  0.00  0.00    -0.327 NA
ATOM     28  H   UNL     1       7.017  -1.095   1.424  0.00  0.00    +0.118 HD
ATOM     29  H   UNL     1       7.404  -1.563  -0.091  0.00  0.00    +0.118 HD
ENDBRANCH   9   6
TORSDOF 3
