REMARK  Name = 11865552
REMARK  6 active torsions:
REMARK  status: ('A' for Active; 'I' for Inactive)
REMARK    1  A    between atoms: O_6  and  C_16
REMARK    2  A    between atoms: O_6  and  C_20
REMARK    3  A    between atoms: N_9  and  C_15
REMARK    4  A    between atoms: N_10  and  C_22
REMARK    5  A    between atoms: C_19  and  C_21
REMARK    6  A    between atoms: C_27  and  C_31
REMARK                            x       y       z     vdW  Elec       q    Type
REMARK                         _______ _______ _______ _____ _____    ______ ____
ROOT
ATOM      4  O   UNL     1      -1.072   1.086   0.874  0.00  0.00    -0.368 OA
ATOM      5  O   UNL     1      -2.184   3.620  -0.448  0.00  0.00    -0.368 OA
ATOM     13  C   UNL     1      -2.500   2.225  -0.638  0.00  0.00    +0.173 C 
ATOM     14  C   UNL     1      -1.199   1.458  -0.508  0.00  0.00    +0.192 C 
ATOM     15  C   UNL     1      -3.335   1.720   0.515  0.00  0.00    +0.130 C 
ATOM     16  C   UNL     1      -0.171   2.490  -0.907  0.00  0.00    +0.235 C 
ATOM     17  C   UNL     1      -2.283   1.423   1.569  0.00  0.00    +0.185 C 
ATOM     18  C   UNL     1      -0.760   3.762  -0.341  0.00  0.00    +0.207 C 
ENDROOT
BRANCH  15   9
ATOM      7  O   UNL     1      -5.779   0.777   1.692  0.00  0.00    -0.270 OA
ATOM      9  N   UNL     1      -4.063   0.529   0.151  0.00  0.00    -0.304 N 
ATOM     19  C   UNL     1      -5.242   0.153   0.780  0.00  0.00    +0.247 C 
ATOM     32  H   UNL     1      -3.629  -0.091  -0.526  0.00  0.00    +0.149 HD
BRANCH  19  21
ATOM     11  N   UNL     1      -7.213  -3.018   0.737  0.00  0.00    -0.243 NA
ATOM     12  N   UNL     1      -6.194  -2.706  -1.424  0.00  0.00    -0.243 NA
ATOM     21  C   UNL     1      -5.857  -1.114   0.308  0.00  0.00    +0.073 A 
ATOM     23  C   UNL     1      -6.639  -1.862   1.133  0.00  0.00    +0.127 A 
ATOM     24  C   UNL     1      -5.652  -1.560  -0.963  0.00  0.00    +0.127 A 
ATOM     29  C   UNL     1      -6.952  -3.375  -0.535  0.00  0.00    +0.221 A 
ENDBRANCH  19  21
ENDBRANCH  15   9
BRANCH  16   6
ATOM      6  O   UNL     1       1.117   2.228  -0.396  0.00  0.00    -0.442 OA
BRANCH   6  20
ATOM      8  O   UNL     1       1.203   0.284  -1.598  0.00  0.00    -0.226 OA
ATOM     10  N   UNL     1       2.976   0.963  -0.228  0.00  0.00    -0.251 N 
ATOM     20  C   UNL     1       1.731   1.067  -0.817  0.00  0.00    +0.405 C 
ATOM     33  H   UNL     1       3.241   1.719   0.398  0.00  0.00    +0.158 HD
BRANCH  10  22
ATOM     22  C   UNL     1       3.931  -0.068  -0.387  0.00  0.00    +0.037 A 
ATOM     25  C   UNL     1       5.133   0.008   0.297  0.00  0.00    +0.035 A 
ATOM     26  C   UNL     1       3.644  -1.136  -1.222  0.00  0.00    +0.023 A 
ATOM     27  C   UNL     1       6.074  -1.010   0.142  0.00  0.00    +0.057 A 
ATOM     28  C   UNL     1       4.585  -2.154  -1.378  0.00  0.00    +0.002 A 
ATOM     30  C   UNL     1       5.800  -2.091  -0.696  0.00  0.00    +0.012 A 
BRANCH  27  31
ATOM      1  F   UNL     1       8.117   0.161   0.564  0.00  0.00    -0.166 F 
ATOM      2  F   UNL     1       8.195  -2.006   0.625  0.00  0.00    -0.166 F 
ATOM      3  F   UNL     1       7.213  -0.911   2.227  0.00  0.00    -0.166 F 
ATOM     31  C   UNL     1       7.373  -0.943   0.872  0.00  0.00    +0.417 C 
ENDBRANCH  27  31
ENDBRANCH  10  22
ENDBRANCH   6  20
ENDBRANCH  16   6
TORSDOF 6
