REMARK  Name = 26743324
REMARK  10 active torsions:
REMARK  status: ('A' for Active; 'I' for Inactive)
REMARK    1  A    between atoms: C_8  and  C_12
REMARK    2  A    between atoms: C_9  and  C_14
REMARK    3  A    between atoms: C_12  and  C_15
REMARK    4  A    between atoms: C_14  and  C_21
REMARK    5  A    between atoms: C_16  and  C_22
REMARK    6  A    between atoms: C_24  and  C_25
REMARK    7  A    between atoms: C_26  and  C_27
REMARK    8  A    between atoms: C_26  and  C_32
REMARK    9  A    between atoms: C_26  and  C_33
REMARK   10  A    between atoms: C_26  and  C_34
REMARK                            x       y       z     vdW  Elec       q    Type
REMARK                         _______ _______ _______ _____ _____    ______ ____
ROOT
ATOM      4  N   UNL     1       0.581   3.672   1.420  0.00  0.00    -0.316 NA
ATOM      8  C   UNL     1       2.242   2.160  -0.495  0.00  0.00    +0.004 C 
ATOM      9  C   UNL     1       0.751   1.832  -0.239  0.00  0.00    +0.012 C 
ATOM     10  C   UNL     1       2.500   3.634  -0.136  0.00  0.00    +0.019 C 
ATOM     11  C   UNL     1       0.310   2.255   1.172  0.00  0.00    +0.085 C 
ATOM     13  C   UNL     1       1.999   3.990   1.263  0.00  0.00    +0.081 C 
ATOM     35  H   UNL     1       0.284   3.912   2.365  0.00  0.00    +0.122 HD
ENDROOT
BRANCH   8  12
ATOM     12  C   UNL     1       3.220   1.240   0.245  0.00  0.00    +0.100 C 
BRANCH  12  15
ATOM      1  O   UNL     1       4.721   1.968  -1.437  0.00  0.00    -0.276 OA
ATOM      5  N   UNL     1       5.578   0.510   0.157  0.00  0.00    -0.301 N 
ATOM     15  C   UNL     1       4.570   1.278  -0.425  0.00  0.00    +0.216 C 
ATOM     16  C   UNL     1       7.295  -1.791   0.510  0.00  0.00    +0.078 C 
ATOM     17  C   UNL     1       5.428  -0.320   1.359  0.00  0.00    +0.108 C 
ATOM     18  C   UNL     1       6.927   0.527  -0.411  0.00  0.00    +0.108 C 
ATOM     19  C   UNL     1       5.876  -1.754   1.085  0.00  0.00    +0.032 C 
ATOM     20  C   UNL     1       7.406  -0.889  -0.722  0.00  0.00    +0.032 C 
BRANCH  16  22
ATOM      3  O   UNL     1       7.449  -3.646  -0.987  0.00  0.00    -0.276 OA
ATOM      7  N   UNL     1       8.229  -3.912   1.161  0.00  0.00    -0.329 N 
ATOM     22  C   UNL     1       7.661  -3.193   0.135  0.00  0.00    +0.214 C 
ATOM     36  H   UNL     1       8.381  -3.517   2.084  0.00  0.00    +0.145 HD
ATOM     37  H   UNL     1       8.514  -4.876   1.027  0.00  0.00    +0.145 HD
ENDBRANCH  16  22
ENDBRANCH  12  15
ENDBRANCH   8  12
BRANCH   9  14
ATOM     14  C   UNL     1       0.410   0.363  -0.491  0.00  0.00    +0.064 C 
BRANCH  14  21
ATOM      2  O   UNL     1      -2.886   0.038  -1.902  0.00  0.00    -0.354 OA
ATOM      6  N   UNL     1      -1.517   0.248  -2.011  0.00  0.00    -0.083 NA
ATOM     21  C   UNL     1      -1.055   0.180  -0.759  0.00  0.00    +0.085 A 
ATOM     23  C   UNL     1      -2.077  -0.069   0.173  0.00  0.00    +0.076 A 
ATOM     24  C   UNL     1      -3.208  -0.149  -0.597  0.00  0.00    +0.167 A 
BRANCH  24  25
ATOM     25  C   UNL     1      -4.597  -0.380  -0.326  0.00  0.00    +0.020 A 
ATOM     27  C   UNL     1      -7.300  -0.826   0.200  0.00  0.00    -0.042 A 
ATOM     28  C   UNL     1      -5.028  -0.584   0.985  0.00  0.00    +0.012 A 
ATOM     29  C   UNL     1      -5.518  -0.399  -1.374  0.00  0.00    +0.012 A 
ATOM     30  C   UNL     1      -6.379  -0.807   1.248  0.00  0.00    +0.005 A 
ATOM     31  C   UNL     1      -6.869  -0.622  -1.111  0.00  0.00    +0.005 A 
BRANCH  27  26
ATOM     26  C   UNL     1      -8.745  -1.065   0.482  0.00  0.00    -0.013 C 
ATOM     32  C   UNL     1      -9.324   0.027   1.433  0.00  0.00    +0.015 C 
ATOM     33  C   UNL     1      -8.966  -2.450   1.166  0.00  0.00    +0.015 C 
ATOM     34  C   UNL     1      -9.682  -1.066  -0.771  0.00  0.00    +0.015 C 
ENDBRANCH  27  26
ENDBRANCH  24  25
ENDBRANCH  14  21
ENDBRANCH   9  14
TORSDOF 7
