REMARK  Name = 75368407
REMARK  3 active torsions:
REMARK  status: ('A' for Active; 'I' for Inactive)
REMARK    1  A    between atoms: O_3  and  C_15
REMARK    2  A    between atoms: O_3  and  C_20
REMARK    3  A    between atoms: C_13  and  C_14
REMARK                            x       y       z     vdW  Elec       q    Type
REMARK                         _______ _______ _______ _____ _____    ______ ____
ROOT
ATOM      1  O   UNL     1      -5.168  -0.006  -0.320  0.00  0.00    -0.253 OA
ATOM      2  O   UNL     1       1.331  -2.572  -0.591  0.00  0.00    -0.270 OA
ATOM      4  N   UNL     1      -2.820  -0.098  -0.195  0.00  0.00    -0.278 N 
ATOM      5  N   UNL     1      -0.307  -1.170   0.309  0.00  0.00    -0.294 N 
ATOM      6  N   UNL     1      -3.876   1.706   0.630  0.00  0.00    -0.297 N 
ATOM      7  C   UNL     1      -1.753   0.808   0.196  0.00  0.00    +0.112 C 
ATOM      8  C   UNL     1      -0.704   0.064   1.016  0.00  0.00    +0.132 C 
ATOM      9  C   UNL     1      -2.482   1.920   0.944  0.00  0.00    +0.129 C 
ATOM     10  C   UNL     1      -2.498  -1.376  -0.805  0.00  0.00    +0.128 C 
ATOM     11  C   UNL     1      -1.416  -2.085   0.008  0.00  0.00    +0.127 C 
ATOM     12  C   UNL     1      -4.085   0.469  -0.007  0.00  0.00    +0.303 C 
ATOM     13  C   UNL     1       0.998  -1.526  -0.036  0.00  0.00    +0.250 C 
ATOM     21  H   UNL     1      -4.626   2.332   0.906  0.00  0.00    +0.150 HD
ENDROOT
BRANCH  13  14
ATOM     14  C   UNL     1       2.077  -0.578   0.269  0.00  0.00    +0.078 A 
ATOM     15  C   UNL     1       2.460   0.393  -0.655  0.00  0.00    +0.132 A 
ATOM     16  C   UNL     1       2.724  -0.660   1.502  0.00  0.00    +0.017 A 
ATOM     17  C   UNL     1       3.489   1.283  -0.347  0.00  0.00    +0.046 A 
ATOM     18  C   UNL     1       3.753   0.229   1.811  0.00  0.00    +0.001 A 
ATOM     19  C   UNL     1       4.135   1.201   0.887  0.00  0.00    +0.004 A 
BRANCH  15   3
ATOM      3  O   UNL     1       1.843   0.488  -1.867  0.00  0.00    -0.494 OA
ATOM     20  C   UNL     1       2.300   1.511  -2.748  0.00  0.00    +0.277 C 
ENDBRANCH  15   3
ENDBRANCH  13  14
TORSDOF 2
