REMARK  Name = 11913200
REMARK  7 active torsions:
REMARK  status: ('A' for Active; 'I' for Inactive)
REMARK    1  A    between atoms: O_7  and  C_35
REMARK    2  A    between atoms: O_7  and  C_36
REMARK    3  A    between atoms: N_8  and  C_14
REMARK    4  A    between atoms: N_9  and  C_15
REMARK    5  A    between atoms: C_18  and  C_20
REMARK    6  A    between atoms: C_21  and  C_28
REMARK    7  A    between atoms: C_29  and  C_32
REMARK                            x       y       z     vdW  Elec       q    Type
REMARK                         _______ _______ _______ _____ _____    ______ ____
ROOT
ATOM      4  O   UNL     1       0.516   1.589   1.856  0.00  0.00    -0.370 OA
ATOM      5  O   UNL     1       0.116   4.377   0.512  0.00  0.00    -0.370 OA
ATOM     12  C   UNL     1      -0.416   3.069   0.244  0.00  0.00    +0.171 C 
ATOM     13  C   UNL     1       0.690   2.067   0.512  0.00  0.00    +0.171 C 
ATOM     14  C   UNL     1      -1.483   2.718   1.256  0.00  0.00    +0.130 C 
ATOM     15  C   UNL     1       1.958   2.881   0.405  0.00  0.00    +0.130 C 
ATOM     16  C   UNL     1      -0.665   2.180   2.417  0.00  0.00    +0.185 C 
ATOM     17  C   UNL     1       1.507   4.261   0.847  0.00  0.00    +0.185 C 
ENDROOT
BRANCH  15   9
ATOM      9  N   UNL     1       2.409   2.918  -0.969  0.00  0.00    -0.306 N 
ATOM     10  N   UNL     1       3.558   0.882  -0.763  0.00  0.00    -0.214 NA
ATOM     11  N   UNL     1       3.547   2.091  -2.848  0.00  0.00    -0.223 NA
ATOM     19  C   UNL     1       3.194   1.934  -1.544  0.00  0.00    +0.216 A 
ATOM     21  C   UNL     1       4.324  -0.058  -1.355  0.00  0.00    +0.076 A 
ATOM     24  C   UNL     1       4.313   1.114  -3.376  0.00  0.00    +0.116 A 
ATOM     25  C   UNL     1       4.735   0.006  -2.670  0.00  0.00    +0.048 A 
ATOM     38  H   UNL     1       2.100   3.670  -1.575  0.00  0.00    +0.149 HD
BRANCH  21  28
ATOM     28  C   UNL     1       4.697  -1.166  -0.509  0.00  0.00    +0.001 A 
ATOM     30  C   UNL     1       5.904  -1.835  -0.723  0.00  0.00    +0.013 A 
ATOM     31  C   UNL     1       3.852  -1.573   0.526  0.00  0.00    +0.013 A 
ATOM     33  C   UNL     1       6.264  -2.907   0.095  0.00  0.00    +0.046 A 
ATOM     34  C   UNL     1       4.213  -2.645   1.343  0.00  0.00    +0.046 A 
ATOM     35  C   UNL     1       5.418  -3.312   1.127  0.00  0.00    +0.120 A 
BRANCH  35   7
ATOM      7  O   UNL     1       5.769  -4.358   1.924  0.00  0.00    -0.495 OA
ATOM     36  C   UNL     1       4.858  -4.718   2.961  0.00  0.00    +0.277 C 
ENDBRANCH  35   7
ENDBRANCH  21  28
ENDBRANCH  15   9
BRANCH  14   8
ATOM      6  O   UNL     1      -4.202   2.273   2.064  0.00  0.00    -0.270 OA
ATOM      8  N   UNL     1      -2.382   1.714   0.740  0.00  0.00    -0.304 N 
ATOM     18  C   UNL     1      -3.685   1.575   1.195  0.00  0.00    +0.244 C 
ATOM     37  H   UNL     1      -1.987   1.028   0.104  0.00  0.00    +0.149 HD
BRANCH  18  20
ATOM     20  C   UNL     1      -4.475   0.476   0.582  0.00  0.00    +0.037 A 
ATOM     22  C   UNL     1      -5.503  -0.091   1.307  0.00  0.00    +0.013 A 
ATOM     23  C   UNL     1      -4.155   0.058  -0.693  0.00  0.00    +0.013 A 
ATOM     26  C   UNL     1      -6.245  -1.121   0.730  0.00  0.00    +0.013 A 
ATOM     27  C   UNL     1      -4.897  -0.972  -1.270  0.00  0.00    +0.013 A 
ATOM     29  C   UNL     1      -5.942  -1.562  -0.558  0.00  0.00    +0.055 A 
BRANCH  29  32
ATOM      1  F   UNL     1      -7.367  -2.305  -2.330  0.00  0.00    -0.166 F 
ATOM      2  F   UNL     1      -7.723  -3.147  -0.364  0.00  0.00    -0.166 F 
ATOM      3  F   UNL     1      -5.968  -3.746  -1.498  0.00  0.00    -0.166 F 
ATOM     32  C   UNL     1      -6.735  -2.665  -1.174  0.00  0.00    +0.417 C 
ENDBRANCH  29  32
ENDBRANCH  18  20
ENDBRANCH  14   8
TORSDOF 6
