REMARK  Name = 11943564
REMARK  7 active torsions:
REMARK  status: ('A' for Active; 'I' for Inactive)
REMARK    1  A    between atoms: O_1  and  C_20
REMARK    2  A    between atoms: O_1  and  C_21
REMARK    3  A    between atoms: N_3  and  C_11
REMARK    4  A    between atoms: N_3  and  C_14
REMARK    5  A    between atoms: C_5  and  C_11
REMARK    6  A    between atoms: C_6  and  C_12
REMARK    7  A    between atoms: C_14  and  C_15
REMARK                            x       y       z     vdW  Elec       q    Type
REMARK                         _______ _______ _______ _____ _____    ______ ____
ROOT
ATOM      3  N   UNL     1      -0.274   0.731  -0.370  0.00  0.00    -0.311 NA
ATOM     22  H   UNL     1      -0.512   1.548   0.192  0.00  0.00    +0.122 HD
ENDROOT
BRANCH   3  11
ATOM     11  C   UNL     1       1.042   0.915  -0.959  0.00  0.00    +0.100 C 
BRANCH  11   5
ATOM      2  N   UNL     1       3.433   1.461  -0.434  0.00  0.00    -0.298 NA
ATOM      4  C   UNL     1       3.682  -0.431   1.334  0.00  0.00    -0.000 C 
ATOM      5  C   UNL     1       2.100   1.112   0.129  0.00  0.00    +0.071 C 
ATOM      6  C   UNL     1       4.359  -0.833   0.002  0.00  0.00    +0.028 C 
ATOM      7  C   UNL     1       2.197  -0.114   1.064  0.00  0.00    +0.024 C 
ATOM      8  C   UNL     1       4.354   0.870   1.810  0.00  0.00    +0.019 C 
ATOM      9  C   UNL     1       4.063   0.265  -1.047  0.00  0.00    +0.092 C 
ATOM     10  C   UNL     1       4.296   1.915   0.683  0.00  0.00    +0.085 C 
BRANCH   6  12
ATOM     12  C   UNL     1       3.942  -2.190  -0.478  0.00  0.00    -0.030 C 
ATOM     13  C   UNL     1       4.784  -3.215  -0.650  0.00  0.00    +0.004 C 
ENDBRANCH   6  12
ENDBRANCH  11   5
ENDBRANCH   3  11
BRANCH   3  14
ATOM     14  C   UNL     1      -1.286   0.532  -1.401  0.00  0.00    +0.116 C 
BRANCH  14  15
ATOM     15  C   UNL     1      -2.655   0.325  -0.810  0.00  0.00    -0.033 A 
ATOM     16  C   UNL     1      -3.473   1.423  -0.580  0.00  0.00    +0.008 A 
ATOM     17  C   UNL     1      -3.079  -0.960  -0.505  0.00  0.00    +0.008 A 
ATOM     18  C   UNL     1      -4.741   1.230  -0.032  0.00  0.00    +0.046 A 
ATOM     19  C   UNL     1      -4.348  -1.152   0.043  0.00  0.00    +0.046 A 
ATOM     20  C   UNL     1      -5.179  -0.057   0.279  0.00  0.00    +0.120 A 
BRANCH  20   1
ATOM      1  O   UNL     1      -6.417  -0.243   0.813  0.00  0.00    -0.495 OA
ATOM     21  C   UNL     1      -6.801  -1.585   1.107  0.00  0.00    +0.277 C 
ENDBRANCH  20   1
ENDBRANCH  14  15
ENDBRANCH   3  14
TORSDOF 6
