REMARK  Name = 38028571
REMARK  15 active torsions:
REMARK  status: ('A' for Active; 'I' for Inactive)
REMARK    1  A    between atoms: O_3  and  C_24
REMARK    2  A    between atoms: O_3  and  C_28
REMARK    3  A    between atoms: O_4  and  C_31
REMARK    4  A    between atoms: N_6  and  C_16
REMARK    5  A    between atoms: N_7  and  C_23
REMARK    6  A    between atoms: C_9  and  C_13
REMARK    7  A    between atoms: C_10  and  C_16
REMARK    8  A    between atoms: C_12  and  C_17
REMARK    9  A    between atoms: C_13  and  C_18
REMARK   10  A    between atoms: C_13  and  C_19
REMARK   11  A    between atoms: C_14  and  C_20
REMARK   12  A    between atoms: C_17  and  C_21
REMARK   13  A    between atoms: C_22  and  C_24
REMARK   14  A    between atoms: C_23  and  C_25
REMARK   15  A    between atoms: C_28  and  C_31
REMARK                            x       y       z     vdW  Elec       q    Type
REMARK                         _______ _______ _______ _____ _____    ______ ____
ROOT
ATOM      9  C   UNL     1      -1.454   1.579  -1.037  0.00  0.00    +0.000 C 
ATOM     10  C   UNL     1      -1.150   3.098  -1.067  0.00  0.00    +0.032 C 
ATOM     11  C   UNL     1      -2.698   1.299  -0.180  0.00  0.00    +0.012 C 
ATOM     12  C   UNL     1      -2.531   1.792   1.269  0.00  0.00    +0.023 C 
ATOM     14  C   UNL     1      -1.976   3.201   1.324  0.00  0.00    -0.073 C 
ATOM     15  C   UNL     1      -1.374   3.773   0.266  0.00  0.00    -0.022 C 
ATOM     20  C   UNL     1      -2.169   3.956   2.610  0.00  0.00    +0.039 C 
ENDROOT
BRANCH   9  13
ATOM     13  C   UNL     1      -1.655   1.011  -2.445  0.00  0.00    -0.013 C 
ATOM     18  C   UNL     1      -1.355  -0.484  -2.463  0.00  0.00    +0.007 C 
ATOM     19  C   UNL     1      -3.074   1.284  -2.932  0.00  0.00    +0.007 C 
ENDBRANCH   9  13
BRANCH  10  16
ATOM     16  C   UNL     1       0.283   3.366  -1.541  0.00  0.00    +0.112 C 
BRANCH  16   6
ATOM      2  O   UNL     1       2.317   1.365  -2.015  0.00  0.00    -0.273 OA
ATOM      6  N   UNL     1       1.232   2.860  -0.599  0.00  0.00    -0.313 N 
ATOM     22  C   UNL     1       2.183   1.890  -0.913  0.00  0.00    +0.239 C 
ATOM     32  H   UNL     1       1.248   3.268   0.331  0.00  0.00    +0.149 HD
BRANCH  22  24
ATOM     24  C   UNL     1       3.058   1.541   0.272  0.00  0.00    +0.256 C 
BRANCH  24   3
ATOM      3  O   UNL     1       4.016   0.568  -0.085  0.00  0.00    -0.359 OA
BRANCH   3  28
ATOM     28  C   UNL     1       4.855   0.220   1.013  0.00  0.00    +0.280 C 
BRANCH  28  31
ATOM      5  O   UNL     1       5.932  -1.315  -0.532  0.00  0.00    -0.248 OA
ATOM     31  C   UNL     1       5.854  -0.817   0.581  0.00  0.00    +0.331 C 
BRANCH  31   4
ATOM      4  O   UNL     1       6.677  -1.132   1.613  0.00  0.00    -0.479 OA
ATOM     34  H   UNL     1       7.341  -1.808   1.358  0.00  0.00    +0.295 HD
ENDBRANCH  31   4
ENDBRANCH  28  31
ENDBRANCH   3  28
ENDBRANCH  24   3
ENDBRANCH  22  24
ENDBRANCH  16   6
ENDBRANCH  10  16
BRANCH  12  17
ATOM     17  C   UNL     1      -1.662   0.828   2.084  0.00  0.00    +0.103 C 
BRANCH  17  21
ATOM      1  O   UNL     1      -3.371  -0.875   1.911  0.00  0.00    -0.276 OA
ATOM      7  N   UNL     1      -1.146  -1.505   2.135  0.00  0.00    -0.311 N 
ATOM     21  C   UNL     1      -2.183  -0.590   2.031  0.00  0.00    +0.214 C 
ATOM     33  H   UNL     1      -0.191  -1.172   2.228  0.00  0.00    +0.149 HD
BRANCH   7  23
ATOM     23  C   UNL     1      -1.350  -2.936   2.116  0.00  0.00    +0.141 C 
BRANCH  23  25
ATOM      8  N   UNL     1      -0.035  -3.825  -1.316  0.00  0.00    -0.263 NA
ATOM     25  C   UNL     1      -1.291  -3.493   0.723  0.00  0.00    -0.012 A 
ATOM     26  C   UNL     1      -2.376  -4.166   0.173  0.00  0.00    +0.008 A 
ATOM     27  C   UNL     1      -0.154  -3.350  -0.056  0.00  0.00    +0.115 A 
ATOM     29  C   UNL     1      -2.292  -4.670  -1.120  0.00  0.00    +0.020 A 
ATOM     30  C   UNL     1      -1.110  -4.474  -1.817  0.00  0.00    +0.111 A 
ENDBRANCH  23  25
ENDBRANCH   7  23
ENDBRANCH  17  21
ENDBRANCH  12  17
TORSDOF 12
