REMARK  Name = 26744684
REMARK  8 active torsions:
REMARK  status: ('A' for Active; 'I' for Inactive)
REMARK    1  A    between atoms: O_2  and  C_11
REMARK    2  A    between atoms: O_3  and  C_12
REMARK    3  A    between atoms: N_8  and  C_15
REMARK    4  A    between atoms: C_10  and  C_14
REMARK    5  A    between atoms: C_13  and  C_15
REMARK    6  A    between atoms: C_14  and  C_16
REMARK    7  A    between atoms: C_22  and  C_24
REMARK    8  A    between atoms: C_32  and  C_33
REMARK                            x       y       z     vdW  Elec       q    Type
REMARK                         _______ _______ _______ _____ _____    ______ ____
ROOT
ATOM      1  O   UNL     1      -3.807   0.808   0.889  0.00  0.00    -0.366 OA
ATOM     10  C   UNL     1      -3.429   1.793  -0.100  0.00  0.00    +0.159 C 
ATOM     11  C   UNL     1      -4.415   1.643  -1.254  0.00  0.00    +0.175 C 
ATOM     12  C   UNL     1      -4.789   0.178  -1.160  0.00  0.00    +0.176 C 
ATOM     13  C   UNL     1      -4.845  -0.027   0.344  0.00  0.00    +0.167 C 
ENDROOT
BRANCH  11   2
ATOM      2  O   UNL     1      -5.550   2.463  -0.976  0.00  0.00    -0.387 OA
ATOM     34  H   UNL     1      -5.258   3.389  -1.023  0.00  0.00    +0.210 HD
ENDBRANCH  11   2
BRANCH  12   3
ATOM      3  O   UNL     1      -6.020  -0.125  -1.782  0.00  0.00    -0.387 OA
ATOM     35  H   UNL     1      -5.952   0.149  -2.713  0.00  0.00    +0.210 HD
ENDBRANCH  12   3
BRANCH  10  14
ATOM     14  C   UNL     1      -1.989   1.517  -0.507  0.00  0.00    +0.130 C 
BRANCH  14  16
ATOM      4  O   UNL     1      -1.502   2.598   1.550  0.00  0.00    -0.276 OA
ATOM      6  N   UNL     1       0.313   1.811   0.331  0.00  0.00    -0.298 N 
ATOM      7  N   UNL     1       3.136   1.228   0.068  0.00  0.00    -0.312 N 
ATOM      9  N   UNL     1       5.053   0.121   0.893  0.00  0.00    -0.240 NA
ATOM     16  C   UNL     1      -1.047   2.026   0.557  0.00  0.00    +0.218 C 
ATOM     17  C   UNL     1       0.851   1.132  -0.850  0.00  0.00    +0.126 C 
ATOM     18  C   UNL     1       1.288   2.270   1.317  0.00  0.00    +0.126 C 
ATOM     19  C   UNL     1       2.315   1.482  -1.119  0.00  0.00    +0.125 C 
ATOM     20  C   UNL     1       2.506   1.351   1.385  0.00  0.00    +0.125 C 
ATOM     21  C   UNL     1       4.488   0.912  -0.047  0.00  0.00    +0.121 A 
ATOM     23  C   UNL     1       5.171   1.438  -1.132  0.00  0.00    +0.043 A 
ATOM     25  C   UNL     1       6.522   1.132  -1.260  0.00  0.00    +0.005 A 
ATOM     26  C   UNL     1       6.367  -0.154   0.735  0.00  0.00    +0.113 A 
ATOM     29  C   UNL     1       7.138   0.321  -0.313  0.00  0.00    +0.020 A 
ENDBRANCH  14  16
ENDBRANCH  10  14
BRANCH  13  15
ATOM     15  C   UNL     1      -4.615  -1.467   0.764  0.00  0.00    +0.138 C 
BRANCH  15   8
ATOM      5  O   UNL     1      -2.145  -1.254   2.212  0.00  0.00    -0.270 OA
ATOM      8  N   UNL     1      -3.285  -1.907   0.305  0.00  0.00    -0.309 N 
ATOM     22  C   UNL     1      -2.172  -1.752   1.090  0.00  0.00    +0.244 C 
ATOM     36  H   UNL     1      -3.247  -2.389  -0.586  0.00  0.00    +0.149 HD
BRANCH  22  24
ATOM     24  C   UNL     1      -0.905  -2.221   0.473  0.00  0.00    +0.037 A 
ATOM     27  C   UNL     1       0.149  -2.648   1.282  0.00  0.00    +0.013 A 
ATOM     28  C   UNL     1      -0.767  -2.234  -0.915  0.00  0.00    +0.013 A 
ATOM     30  C   UNL     1       1.339  -3.088   0.703  0.00  0.00    +0.004 A 
ATOM     31  C   UNL     1       0.423  -2.673  -1.494  0.00  0.00    +0.004 A 
ATOM     32  C   UNL     1       1.476  -3.100  -0.685  0.00  0.00    -0.050 A 
ATOM     33  C   UNL     1       2.749  -3.570  -1.304  0.00  0.00    +0.044 C 
ENDBRANCH  22  24
ENDBRANCH  15   8
ENDBRANCH  13  15
TORSDOF 7
