REMARK  Name = 45783546
REMARK  10 active torsions:
REMARK  status: ('A' for Active; 'I' for Inactive)
REMARK    1  A    between atoms: O_2  and  C_27
REMARK    2  A    between atoms: O_2  and  C_28
REMARK    3  A    between atoms: O_3  and  C_29
REMARK    4  A    between atoms: O_3  and  C_30
REMARK    5  A    between atoms: N_4  and  C_13
REMARK    6  A    between atoms: C_9  and  C_14
REMARK    7  A    between atoms: C_13  and  C_15
REMARK    8  A    between atoms: C_18  and  C_21
REMARK    9  A    between atoms: C_22  and  C_26
REMARK   10  A    between atoms: C_28  and  C_29
REMARK                            x       y       z     vdW  Elec       q    Type
REMARK                         _______ _______ _______ _____ _____    ______ ____
ROOT
ATOM      1  O   UNL     1      -2.201  -1.538   2.032  0.00  0.00    -0.336 OA
ATOM      5  N   UNL     1      -1.460  -1.128  -0.041  0.00  0.00    -0.190 NA
ATOM      6  N   UNL     1      -0.815  -1.373   2.140  0.00  0.00    -0.056 NA
ATOM     14  C   UNL     1      -2.498  -1.378   0.716  0.00  0.00    +0.245 A 
ATOM     18  C   UNL     1      -0.450  -1.135   0.877  0.00  0.00    +0.204 A 
ENDROOT
BRANCH  18  21
ATOM      7  N   UNL     1       3.232  -0.694   1.151  0.00  0.00    -0.221 NA
ATOM     21  C   UNL     1       0.914  -0.900   0.498  0.00  0.00    +0.041 A 
ATOM     23  C   UNL     1       1.257  -0.656  -0.827  0.00  0.00    +0.018 A 
ATOM     24  C   UNL     1       1.929  -0.909   1.441  0.00  0.00    +0.126 A 
ATOM     25  C   UNL     1       2.587  -0.432  -1.164  0.00  0.00    +0.068 A 
ATOM     27  C   UNL     1       3.528  -0.461  -0.147  0.00  0.00    +0.215 A 
BRANCH  27   2
ATOM      2  O   UNL     1       4.846  -0.242  -0.454  0.00  0.00    -0.474 OA
BRANCH   2  28
ATOM     28  C   UNL     1       5.770  -0.283   0.627  0.00  0.00    +0.258 C 
BRANCH  28  29
ATOM     29  C   UNL     1       7.168  -0.044   0.091  0.00  0.00    +0.200 C 
BRANCH  29   3
ATOM      3  O   UNL     1       7.491  -1.071  -0.839  0.00  0.00    -0.380 OA
ATOM     30  C   UNL     1       8.787  -0.885  -1.391  0.00  0.00    +0.194 C 
ENDBRANCH  29   3
ENDBRANCH  28  29
ENDBRANCH   2  28
ENDBRANCH  27   2
ENDBRANCH  18  21
BRANCH  14   9
ATOM      4  N   UNL     1      -4.298  -0.733  -0.877  0.00  0.00    -0.287 NA
ATOM      9  C   UNL     1      -3.957  -1.510   0.332  0.00  0.00    +0.146 C 
ATOM     10  C   UNL     1      -4.353  -2.958  -0.009  0.00  0.00    +0.030 C 
ATOM     11  C   UNL     1      -4.963  -2.886  -1.402  0.00  0.00    +0.017 C 
ATOM     12  C   UNL     1      -5.402  -1.442  -1.525  0.00  0.00    +0.085 C 
BRANCH   4  13
ATOM     13  C   UNL     1      -4.631   0.656  -0.591  0.00  0.00    +0.120 C 
BRANCH  13  15
ATOM     15  C   UNL     1      -3.398   1.497  -0.386  0.00  0.00    -0.033 A 
ATOM     16  C   UNL     1      -3.212   2.179   0.817  0.00  0.00    +0.006 A 
ATOM     17  C   UNL     1      -2.444   1.594  -1.398  0.00  0.00    +0.006 A 
ATOM     19  C   UNL     1      -2.070   2.957   1.007  0.00  0.00    +0.019 A 
ATOM     20  C   UNL     1      -1.302   2.373  -1.208  0.00  0.00    +0.019 A 
ATOM     22  C   UNL     1      -1.115   3.054  -0.005  0.00  0.00    +0.052 A 
BRANCH  22  26
ATOM      8  N   UNL     1       1.004   4.499   0.348  0.00  0.00    -0.191 NA
ATOM     26  C   UNL     1       0.054   3.852   0.189  0.00  0.00    +0.099 C 
ENDBRANCH  22  26
ENDBRANCH  13  15
ENDBRANCH   4  13
ENDBRANCH  14   9
TORSDOF 9
