REMARK  Name = 75536785
REMARK  7 active torsions:
REMARK  status: ('A' for Active; 'I' for Inactive)
REMARK    1  A    between atoms: O_2  and  C_8
REMARK    2  A    between atoms: N_4  and  C_7
REMARK    3  A    between atoms: N_4  and  C_12
REMARK    4  A    between atoms: N_4  and  C_13
REMARK    5  A    between atoms: N_5  and  C_11
REMARK    6  A    between atoms: C_9  and  C_11
REMARK    7  A    between atoms: C_14  and  C_15
REMARK                            x       y       z     vdW  Elec       q    Type
REMARK                         _______ _______ _______ _____ _____    ______ ____
ROOT
ATOM     11  C   UNL     1      -0.360  -0.637  -1.219  0.00  0.00    +0.138 C 
ENDROOT
BRANCH  11   9
ATOM      1  O   UNL     1      -1.389   1.241  -0.097  0.00  0.00    -0.371 OA
ATOM      7  C   UNL     1      -3.544   0.373   0.396  0.00  0.00    +0.113 C 
ATOM      8  C   UNL     1      -2.756  -0.668  -0.378  0.00  0.00    +0.164 C 
ATOM      9  C   UNL     1      -1.329  -0.194  -0.138  0.00  0.00    +0.165 C 
ATOM     10  C   UNL     1      -2.760   1.637   0.084  0.00  0.00    +0.181 C 
BRANCH   7   4
ATOM      4  N   UNL     1      -4.940   0.462   0.001  0.00  0.00    -0.301 NA
ATOM     12  C   UNL     1      -5.638  -0.800   0.269  0.00  0.00    +0.105 C 
ATOM     13  C   UNL     1      -5.610   1.564   0.698  0.00  0.00    +0.105 C 
ENDBRANCH   7   4
BRANCH   8   2
ATOM      2  O   UNL     1      -2.965  -1.981   0.105  0.00  0.00    -0.388 OA
ATOM     20  H   UNL     1      -2.749  -1.995   1.053  0.00  0.00    +0.210 HD
ENDBRANCH   8   2
ENDBRANCH  11   9
BRANCH  11   5
ATOM      3  O   UNL     1       1.673  -1.997   0.285  0.00  0.00    -0.270 OA
ATOM      5  N   UNL     1       0.969  -0.166  -0.953  0.00  0.00    -0.309 N 
ATOM     14  C   UNL     1       1.893  -0.895  -0.211  0.00  0.00    +0.244 C 
ATOM     21  H   UNL     1       1.194   0.768  -1.278  0.00  0.00    +0.149 HD
BRANCH  14  15
ATOM      6  N   UNL     1       5.709   0.948   0.390  0.00  0.00    -0.263 NA
ATOM     15  C   UNL     1       3.218  -0.257  -0.003  0.00  0.00    +0.040 A 
ATOM     16  C   UNL     1       3.978  -0.575   1.117  0.00  0.00    +0.033 A 
ATOM     17  C   UNL     1       3.702   0.663  -0.927  0.00  0.00    +0.033 A 
ATOM     18  C   UNL     1       5.206   0.050   1.266  0.00  0.00    +0.111 A 
ATOM     19  C   UNL     1       4.942   1.232  -0.686  0.00  0.00    +0.111 A 
ENDBRANCH  14  15
ENDBRANCH  11   5
TORSDOF 5
