REMARK  Name = 7144071
REMARK  6 active torsions:
REMARK  status: ('A' for Active; 'I' for Inactive)
REMARK    1  A    between atoms: O_3  and  C_25
REMARK    2  A    between atoms: O_3  and  C_29
REMARK    3  A    between atoms: N_4  and  C_13
REMARK    4  A    between atoms: C_13  and  C_18
REMARK    5  A    between atoms: C_16  and  C_19
REMARK    6  A    between atoms: C_24  and  C_26
REMARK                            x       y       z     vdW  Elec       q    Type
REMARK                         _______ _______ _______ _____ _____    ______ ____
ROOT
ATOM      2  O   UNL     1       1.275   2.736   1.405  0.00  0.00    -0.267 OA
ATOM      4  N   UNL     1      -3.452   1.260   0.676  0.00  0.00    -0.297 NA
ATOM      5  N   UNL     1      -0.595   2.527   0.030  0.00  0.00    -0.311 N 
ATOM      6  C   UNL     1      -2.824   3.683   0.545  0.00  0.00    +0.024 C 
ATOM      7  C   UNL     1      -2.617   2.277  -1.448  0.00  0.00    +0.050 C 
ATOM      8  C   UNL     1      -3.010   3.671  -0.966  0.00  0.00    +0.017 C 
ATOM      9  C   UNL     1      -3.718   2.606   1.197  0.00  0.00    +0.090 C 
ATOM     10  C   UNL     1      -3.540   1.225  -0.792  0.00  0.00    +0.094 C 
ATOM     11  C   UNL     1      -1.336   3.485   0.863  0.00  0.00    +0.130 C 
ATOM     12  C   UNL     1      -1.164   1.986  -1.125  0.00  0.00    +0.026 A 
ATOM     14  C   UNL     1      -0.433   1.199  -1.930  0.00  0.00    +0.022 A 
ATOM     15  C   UNL     1       0.738   2.262   0.402  0.00  0.00    +0.259 A 
ATOM     16  C   UNL     1       1.525   1.354  -0.506  0.00  0.00    +0.040 A 
ATOM     17  C   UNL     1       0.930   0.881  -1.609  0.00  0.00    +0.015 A 
ENDROOT
BRANCH  16  19
ATOM     19  C   UNL     1       2.890   1.023  -0.184  0.00  0.00    +0.014 C 
ATOM     24  C   UNL     1       3.457  -0.140  -0.530  0.00  0.00    +0.008 C 
BRANCH  24  26
ATOM      1 CL   UNL     1       9.071  -1.708   0.738  0.00  0.00    -0.084 Cl
ATOM     26  C   UNL     1       4.843  -0.527  -0.216  0.00  0.00    -0.025 A 
ATOM     27  C   UNL     1       5.768   0.456   0.098  0.00  0.00    +0.009 A 
ATOM     28  C   UNL     1       5.196  -1.867  -0.242  0.00  0.00    +0.009 A 
ATOM     30  C   UNL     1       7.081   0.089   0.395  0.00  0.00    +0.020 A 
ATOM     31  C   UNL     1       6.509  -2.234   0.054  0.00  0.00    +0.020 A 
ATOM     32  C   UNL     1       7.452  -1.256   0.372  0.00  0.00    +0.041 A 
ENDBRANCH  24  26
ENDBRANCH  16  19
BRANCH   4  13
ATOM     13  C   UNL     1      -4.352   0.278   1.277  0.00  0.00    +0.119 C 
BRANCH  13  18
ATOM     18  C   UNL     1      -4.025  -1.125   0.839  0.00  0.00    -0.033 A 
ATOM     20  C   UNL     1      -2.703  -1.545   0.824  0.00  0.00    +0.008 A 
ATOM     21  C   UNL     1      -5.051  -1.977   0.456  0.00  0.00    +0.008 A 
ATOM     22  C   UNL     1      -2.400  -2.845   0.416  0.00  0.00    +0.046 A 
ATOM     23  C   UNL     1      -4.748  -3.276   0.049  0.00  0.00    +0.046 A 
ATOM     25  C   UNL     1      -3.423  -3.710   0.029  0.00  0.00    +0.120 A 
BRANCH  25   3
ATOM      3  O   UNL     1      -3.127  -4.978  -0.367  0.00  0.00    -0.495 OA
ATOM     29  C   UNL     1      -4.220  -5.811  -0.749  0.00  0.00    +0.277 C 
ENDBRANCH  25   3
ENDBRANCH  13  18
ENDBRANCH   4  13
TORSDOF 5
