REMARK  Name = 11912190
REMARK  5 active torsions:
REMARK  status: ('A' for Active; 'I' for Inactive)
REMARK    1  A    between atoms: S_1  and  N_8
REMARK    2  A    between atoms: S_1  and  C_19
REMARK    3  A    between atoms: N_8  and  C_14
REMARK    4  A    between atoms: N_9  and  C_15
REMARK    5  A    between atoms: C_23  and  C_28
REMARK                            x       y       z     vdW  Elec       q    Type
REMARK                         _______ _______ _______ _____ _____    ______ ____
ROOT
ATOM      2  O   UNL     1      -0.161   2.246   1.384  0.00  0.00    -0.370 OA
ATOM      3  O   UNL     1       2.158   0.321   2.193  0.00  0.00    -0.370 OA
ATOM     12  C   UNL     1       1.774   0.931   0.950  0.00  0.00    +0.170 C 
ATOM     13  C   UNL     1       0.258   0.955   0.909  0.00  0.00    +0.171 C 
ATOM     14  C   UNL     1       2.166   2.391   0.938  0.00  0.00    +0.133 C 
ATOM     15  C   UNL     1      -0.155  -0.122   1.884  0.00  0.00    +0.130 C 
ATOM     16  C   UNL     1       0.999   3.046   1.655  0.00  0.00    +0.183 C 
ATOM     17  C   UNL     1       0.981  -0.114   2.890  0.00  0.00    +0.185 C 
ENDROOT
BRANCH  15   9
ATOM      9  N   UNL     1      -0.219  -1.401   1.211  0.00  0.00    -0.306 N 
ATOM     10  N   UNL     1      -2.414  -1.025   0.469  0.00  0.00    -0.214 NA
ATOM     11  N   UNL     1      -1.256  -3.068  -0.074  0.00  0.00    -0.223 NA
ATOM     18  C   UNL     1      -1.329  -1.844   0.514  0.00  0.00    +0.216 A 
ATOM     23  C   UNL     1      -3.478  -1.489  -0.218  0.00  0.00    +0.076 A 
ATOM     26  C   UNL     1      -2.356  -3.469  -0.745  0.00  0.00    +0.116 A 
ATOM     27  C   UNL     1      -3.507  -2.715  -0.851  0.00  0.00    +0.048 A 
ATOM     40  H   UNL     1       0.601  -1.995   1.192  0.00  0.00    +0.149 HD
BRANCH  23  28
ATOM      6  O   UNL     1      -8.284  -0.579  -0.466  0.00  0.00    -0.453 OA
ATOM      7  O   UNL     1      -7.944   1.805  -0.368  0.00  0.00    -0.453 OA
ATOM     28  C   UNL     1      -4.617  -0.604  -0.254  0.00  0.00    +0.004 A 
ATOM     32  C   UNL     1      -5.909  -1.133  -0.345  0.00  0.00    +0.059 A 
ATOM     34  C   UNL     1      -4.423   0.790  -0.198  0.00  0.00    +0.014 A 
ATOM     35  C   UNL     1      -6.967  -0.247  -0.378  0.00  0.00    +0.167 A 
ATOM     36  C   UNL     1      -6.773   1.114  -0.322  0.00  0.00    +0.166 A 
ATOM     37  C   UNL     1      -5.511   1.665  -0.232  0.00  0.00    +0.050 A 
ATOM     38  C   UNL     1      -8.897   0.727  -0.459  0.00  0.00    +0.466 C 
ENDBRANCH  23  28
ENDBRANCH  15   9
BRANCH  14   8
ATOM      8  N   UNL     1       2.294   2.886  -0.411  0.00  0.00    -0.182 NA
ATOM     39  H   UNL     1       1.454   2.859  -1.002  0.00  0.00    +0.148 HD
BRANCH   8   1
ATOM      1  S   UNL     1       3.817   2.906  -1.162  0.00  0.00    +0.059 S 
ATOM      4  O   UNL     1       4.760   3.622  -0.323  0.00  0.00    -0.153 OA
ATOM      5  O   UNL     1       3.648   3.281  -2.553  0.00  0.00    -0.153 OA
BRANCH   1  19
ATOM     19  C   UNL     1       4.258   1.195  -1.140  0.00  0.00    +0.106 A 
ATOM     20  C   UNL     1       4.956   0.691  -0.055  0.00  0.00    +0.037 A 
ATOM     21  C   UNL     1       3.900   0.393  -2.205  0.00  0.00    +0.029 A 
ATOM     22  C   UNL     1       5.314  -0.667  -0.022  0.00  0.00    -0.016 A 
ATOM     24  C   UNL     1       4.247  -0.959  -2.189  0.00  0.00    +0.010 A 
ATOM     25  C   UNL     1       4.954  -1.504  -1.105  0.00  0.00    -0.018 A 
ATOM     29  C   UNL     1       6.021  -1.212   1.062  0.00  0.00    +0.008 A 
ATOM     30  C   UNL     1       5.313  -2.862  -1.073  0.00  0.00    +0.008 A 
ATOM     31  C   UNL     1       6.369  -2.563   1.078  0.00  0.00    +0.001 A 
ATOM     33  C   UNL     1       6.016  -3.386   0.013  0.00  0.00    +0.001 A 
ENDBRANCH   1  19
ENDBRANCH   8   1
ENDBRANCH  14   8
TORSDOF 5
