REMARK  Name = 75537096
REMARK  5 active torsions:
REMARK  status: ('A' for Active; 'I' for Inactive)
REMARK    1  A    between atoms: N_4  and  C_13
REMARK    2  A    between atoms: N_5  and  C_14
REMARK    3  A    between atoms: C_13  and  C_15
REMARK    4  A    between atoms: C_14  and  C_16
REMARK    5  A    between atoms: C_20  and  C_26
REMARK                            x       y       z     vdW  Elec       q    Type
REMARK                         _______ _______ _______ _____ _____    ______ ____
ROOT
ATOM      2  O   UNL     1       2.492   3.050   0.045  0.00  0.00    -0.252 OA
ATOM      3  N   UNL     1       0.342   2.115  -0.102  0.00  0.00    -0.278 N 
ATOM      4  N   UNL     1      -2.181   1.191   0.729  0.00  0.00    -0.293 NA
ATOM      5  N   UNL     1       2.015   1.116  -1.219  0.00  0.00    -0.279 N 
ATOM      7  C   UNL     1      -0.303   1.060  -0.856  0.00  0.00    +0.109 C 
ATOM      8  C   UNL     1      -1.254   0.269   0.042  0.00  0.00    +0.109 C 
ATOM      9  C   UNL     1       0.864   0.254  -1.423  0.00  0.00    +0.133 C 
ATOM     10  C   UNL     1      -0.463   2.987   0.727  0.00  0.00    +0.125 C 
ATOM     11  C   UNL     1      -1.440   2.158   1.564  0.00  0.00    +0.104 C 
ATOM     12  C   UNL     1       1.714   2.204  -0.375  0.00  0.00    +0.305 C 
ENDROOT
BRANCH   4  13
ATOM     13  C   UNL     1      -3.135   0.439   1.545  0.00  0.00    +0.140 C 
BRANCH  13  15
ATOM      6  N   UNL     1      -4.128  -1.516   0.501  0.00  0.00    -0.255 NA
ATOM     15  C   UNL     1      -4.217  -0.184   0.712  0.00  0.00    +0.056 A 
ATOM     17  C   UNL     1      -5.233   0.614   0.211  0.00  0.00    +0.024 A 
ATOM     20  C   UNL     1      -5.106  -2.073  -0.249  0.00  0.00    +0.039 A 
ATOM     21  C   UNL     1      -6.220   0.006  -0.556  0.00  0.00    +0.004 A 
ATOM     24  C   UNL     1      -6.163  -1.363  -0.794  0.00  0.00    +0.023 A 
ATOM     26  C   UNL     1      -5.012  -3.543  -0.484  0.00  0.00    +0.065 C 
ENDBRANCH  13  15
ENDBRANCH   4  13
BRANCH   5  14
ATOM     14  C   UNL     1       3.328   0.773  -1.719  0.00  0.00    +0.144 C 
BRANCH  14  16
ATOM      1  F   UNL     1       5.971  -2.890   1.643  0.00  0.00    -0.205 F 
ATOM     16  C   UNL     1       4.033  -0.204  -0.823  0.00  0.00    -0.030 A 
ATOM     18  C   UNL     1       4.838   0.260   0.218  0.00  0.00    +0.008 A 
ATOM     19  C   UNL     1       3.883  -1.575  -1.031  0.00  0.00    +0.008 A 
ATOM     22  C   UNL     1       5.492  -0.647   1.051  0.00  0.00    +0.038 A 
ATOM     23  C   UNL     1       4.538  -2.482  -0.198  0.00  0.00    +0.038 A 
ATOM     25  C   UNL     1       5.343  -2.019   0.843  0.00  0.00    +0.123 A 
ENDBRANCH  14  16
ENDBRANCH   5  14
TORSDOF 4
