REMARK  Name = 75536995
REMARK  5 active torsions:
REMARK  status: ('A' for Active; 'I' for Inactive)
REMARK    1  A    between atoms: S_1  and  N_7
REMARK    2  A    between atoms: S_1  and  C_16
REMARK    3  A    between atoms: N_8  and  C_15
REMARK    4  A    between atoms: C_15  and  C_17
REMARK    5  A    between atoms: C_16  and  C_18
REMARK                            x       y       z     vdW  Elec       q    Type
REMARK                         _______ _______ _______ _____ _____    ______ ____
ROOT
ATOM      3  O   UNL     1      -3.017  -2.396   1.673  0.00  0.00    -0.252 OA
ATOM      6  N   UNL     1      -1.063  -2.297   0.372  0.00  0.00    -0.278 N 
ATOM      7  N   UNL     1       1.618  -1.800  -0.247  0.00  0.00    -0.178 NA
ATOM      8  N   UNL     1      -2.984  -1.564  -0.533  0.00  0.00    -0.279 N 
ATOM      9  C   UNL     1      -0.719  -1.974  -0.999  0.00  0.00    +0.111 C 
ATOM     10  C   UNL     1       0.543  -1.119  -1.044  0.00  0.00    +0.133 C 
ATOM     11  C   UNL     1      -1.972  -1.286  -1.536  0.00  0.00    +0.133 C 
ATOM     12  C   UNL     1      -0.051  -2.840   1.257  0.00  0.00    +0.127 C 
ATOM     13  C   UNL     1       1.214  -1.990   1.186  0.00  0.00    +0.128 C 
ATOM     14  C   UNL     1      -2.429  -2.124   0.635  0.00  0.00    +0.305 C 
ENDROOT
BRANCH   7   1
ATOM      1  S   UNL     1       3.201  -1.187  -0.484  0.00  0.00    +0.036 S 
ATOM      4  O   UNL     1       3.380  -0.897  -1.889  0.00  0.00    -0.158 OA
ATOM      5  O   UNL     1       4.133  -2.014   0.248  0.00  0.00    -0.158 OA
BRANCH   1  16
ATOM     16  C   UNL     1       3.038   0.355   0.379  0.00  0.00    +0.220 C 
BRANCH  16  18
ATOM     18  C   UNL     1       4.351   1.069   0.289  0.00  0.00    -0.025 A 
ATOM     21  C   UNL     1       4.744   1.659  -0.912  0.00  0.00    +0.005 A 
ATOM     22  C   UNL     1       5.181   1.144   1.407  0.00  0.00    +0.005 A 
ATOM     25  C   UNL     1       5.968   2.324  -0.995  0.00  0.00    +0.000 A 
ATOM     26  C   UNL     1       6.404   1.809   1.325  0.00  0.00    +0.000 A 
ATOM     28  C   UNL     1       6.797   2.399   0.123  0.00  0.00    +0.000 A 
ENDBRANCH  16  18
ENDBRANCH   1  16
ENDBRANCH   7   1
BRANCH   8  15
ATOM     15  C   UNL     1      -4.365  -1.171  -0.708  0.00  0.00    +0.144 C 
BRANCH  15  17
ATOM      2  F   UNL     1      -5.201   4.237   0.616  0.00  0.00    -0.205 F 
ATOM     17  C   UNL     1      -4.588   0.271  -0.355  0.00  0.00    -0.030 A 
ATOM     19  C   UNL     1      -4.926   0.624   0.951  0.00  0.00    +0.008 A 
ATOM     20  C   UNL     1      -4.457   1.257  -1.333  0.00  0.00    +0.008 A 
ATOM     23  C   UNL     1      -5.134   1.964   1.279  0.00  0.00    +0.038 A 
ATOM     24  C   UNL     1      -4.664   2.596  -1.005  0.00  0.00    +0.038 A 
ATOM     27  C   UNL     1      -5.003   2.950   0.301  0.00  0.00    +0.123 A 
ENDBRANCH  15  17
ENDBRANCH   8  15
TORSDOF 5
