REMARK  Name = 45361212
REMARK  9 active torsions:
REMARK  status: ('A' for Active; 'I' for Inactive)
REMARK    1  A    between atoms: S_1  and  C_33
REMARK    2  A    between atoms: S_1  and  C_34
REMARK    3  A    between atoms: O_4  and  C_28
REMARK    4  A    between atoms: N_7  and  C_20
REMARK    5  A    between atoms: N_8  and  C_19
REMARK    6  A    between atoms: C_15  and  C_18
REMARK    7  A    between atoms: C_18  and  C_21
REMARK    8  A    between atoms: C_19  and  C_22
REMARK    9  A    between atoms: C_21  and  C_23
REMARK                            x       y       z     vdW  Elec       q    Type
REMARK                         _______ _______ _______ _____ _____    ______ ____
ROOT
ATOM      2  O   UNL     1       0.097  -0.255   1.174  0.00  0.00    -0.274 OA
ATOM      7  N   UNL     1      -1.648   2.616  -0.750  0.00  0.00    -0.296 NA
ATOM      8  N   UNL     1       1.755   1.607   0.138  0.00  0.00    -0.286 NA
ATOM      9  N   UNL     1      -1.528   1.238   1.782  0.00  0.00    -0.312 N 
ATOM     11  C   UNL     1      -0.218   2.879  -0.478  0.00  0.00    +0.084 C 
ATOM     12  C   UNL     1       0.473   2.098   0.677  0.00  0.00    +0.161 C 
ATOM     13  C   UNL     1       0.711   2.577  -1.669  0.00  0.00    +0.036 C 
ATOM     14  C   UNL     1       2.073   2.428  -1.025  0.00  0.00    +0.087 C 
ATOM     15  C   UNL     1      -2.565   2.984   0.364  0.00  0.00    +0.074 C 
ATOM     16  C   UNL     1      -0.314   0.904   1.211  0.00  0.00    +0.232 C 
ATOM     17  C   UNL     1      -2.075   2.580   1.769  0.00  0.00    +0.123 C 
ATOM     20  C   UNL     1      -2.073   3.272  -1.998  0.00  0.00    +0.105 C 
ATOM     35  H   UNL     1      -2.065   0.499   2.225  0.00  0.00    +0.149 HD
ENDROOT
BRANCH  15  18
ATOM     18  C   UNL     1      -3.954   2.344   0.155  0.00  0.00    +0.029 C 
BRANCH  18  21
ATOM     21  C   UNL     1      -3.854   0.865  -0.165  0.00  0.00    +0.097 C 
BRANCH  21  23
ATOM      3  O   UNL     1      -6.220   0.961  -0.213  0.00  0.00    -0.276 OA
ATOM     10  N   UNL     1      -5.259  -1.111  -0.639  0.00  0.00    -0.301 N 
ATOM     23  C   UNL     1      -5.220   0.251  -0.341  0.00  0.00    +0.216 C 
ATOM     24  C   UNL     1      -6.547  -1.769  -0.870  0.00  0.00    +0.110 C 
ATOM     25  C   UNL     1      -4.085  -1.980  -0.797  0.00  0.00    +0.110 C 
ATOM     26  C   UNL     1      -6.703  -2.991   0.029  0.00  0.00    +0.050 C 
ATOM     27  C   UNL     1      -4.197  -3.207   0.103  0.00  0.00    +0.050 C 
ATOM     28  C   UNL     1      -5.517  -3.945  -0.124  0.00  0.00    +0.118 C 
BRANCH  28   4
ATOM      4  O   UNL     1      -5.621  -5.000   0.823  0.00  0.00    -0.392 OA
ATOM     36  H   UNL     1      -6.468  -5.452   0.666  0.00  0.00    +0.210 HD
ENDBRANCH  28   4
ENDBRANCH  21  23
ENDBRANCH  18  21
ENDBRANCH  15  18
BRANCH   8  19
ATOM     19  C   UNL     1       2.833   1.607   1.119  0.00  0.00    +0.120 C 
BRANCH  19  22
ATOM     22  C   UNL     1       3.940   0.661   0.737  0.00  0.00    -0.033 A 
ATOM     29  C   UNL     1       3.774  -0.713   0.911  0.00  0.00    +0.007 A 
ATOM     30  C   UNL     1       5.131   1.158   0.208  0.00  0.00    +0.007 A 
ATOM     31  C   UNL     1       4.799  -1.590   0.556  0.00  0.00    +0.027 A 
ATOM     32  C   UNL     1       6.156   0.282  -0.147  0.00  0.00    +0.027 A 
ATOM     33  C   UNL     1       5.990  -1.092   0.028  0.00  0.00    +0.088 A 
BRANCH  33   1
ATOM      1  S   UNL     1       7.272  -2.190  -0.419  0.00  0.00    -0.006 S 
ATOM      5  O   UNL     1       8.540  -1.473  -0.390  0.00  0.00    -0.170 OA
ATOM      6  O   UNL     1       7.113  -3.408   0.363  0.00  0.00    -0.170 OA
ATOM     34  C   UNL     1       6.942  -2.587  -2.121  0.00  0.00    +0.200 C 
ENDBRANCH  33   1
ENDBRANCH  19  22
ENDBRANCH   8  19
TORSDOF 7
