REMARK  Name = 11883052
REMARK  8 active torsions:
REMARK  status: ('A' for Active; 'I' for Inactive)
REMARK    1  A    between atoms: O_4  and  C_16
REMARK    2  A    between atoms: O_5  and  C_21
REMARK    3  A    between atoms: C_11  and  C_19
REMARK    4  A    between atoms: C_13  and  C_21
REMARK    5  A    between atoms: C_13  and  C_22
REMARK    6  A    between atoms: C_14  and  C_24
REMARK    7  A    between atoms: C_24  and  C_25
REMARK    8  A    between atoms: C_32  and  C_33
REMARK                            x       y       z     vdW  Elec       q    Type
REMARK                         _______ _______ _______ _____ _____    ______ ____
ROOT
ATOM      1  S   UNL     1      -0.080   2.721   0.577  0.00  0.00    -0.057 S 
ATOM      7  O   UNL     1       3.304  -0.294  -0.489  0.00  0.00    -0.270 OA
ATOM      8  N   UNL     1       0.422   0.302  -0.193  0.00  0.00    -0.229 NA
ATOM     10  N   UNL     1       2.320   1.740   0.182  0.00  0.00    -0.261 N 
ATOM     11  C   UNL     1      -3.346  -0.446   0.138  0.00  0.00    -0.019 C 
ATOM     12  C   UNL     1      -3.755   1.048  -0.228  0.00  0.00    +0.011 C 
ATOM     13  C   UNL     1      -5.287   1.414  -0.137  0.00  0.00    +0.021 C 
ATOM     14  C   UNL     1      -1.877  -0.709  -0.432  0.00  0.00    +0.054 C 
ATOM     15  C   UNL     1      -4.322  -1.433  -0.553  0.00  0.00    +0.010 C 
ATOM     16  C   UNL     1      -6.121   0.303  -0.836  0.00  0.00    +0.123 C 
ATOM     17  C   UNL     1      -2.822   2.081   0.469  0.00  0.00    +0.049 C 
ATOM     18  C   UNL     1      -5.792  -1.100  -0.337  0.00  0.00    +0.032 C 
ATOM     19  C   UNL     1      -3.363  -0.718   1.663  0.00  0.00    +0.012 C 
ATOM     20  C   UNL     1      -0.951   0.430  -0.090  0.00  0.00    +0.058 A 
ATOM     22  C   UNL     1      -5.539   2.738  -0.912  0.00  0.00    +0.016 C 
ATOM     23  C   UNL     1      -1.396   1.678   0.294  0.00  0.00    +0.015 A 
ATOM     26  C   UNL     1       0.983   1.444   0.141  0.00  0.00    +0.165 A 
ATOM     32  C   UNL     1       3.382   0.875  -0.128  0.00  0.00    +0.255 C 
ATOM     41  H   UNL     1       2.527   2.688   0.484  0.00  0.00    +0.157 HD
ENDROOT
BRANCH  32  33
ATOM      2  F   UNL     1       3.852   3.600  -0.596  0.00  0.00    -0.205 F 
ATOM      3  F   UNL     1       5.637  -0.651   0.544  0.00  0.00    -0.205 F 
ATOM     33  C   UNL     1       4.740   1.472  -0.026  0.00  0.00    +0.107 A 
ATOM     34  C   UNL     1       4.893   2.821  -0.271  0.00  0.00    +0.138 A 
ATOM     35  C   UNL     1       5.801   0.658   0.309  0.00  0.00    +0.138 A 
ATOM     36  C   UNL     1       6.167   3.381  -0.176  0.00  0.00    +0.039 A 
ATOM     37  C   UNL     1       7.075   1.219   0.404  0.00  0.00    +0.039 A 
ATOM     38  C   UNL     1       7.258   2.580   0.161  0.00  0.00    +0.006 A 
ENDBRANCH  32  33
BRANCH  16   4
ATOM      4  O   UNL     1      -7.518   0.537  -0.660  0.00  0.00    -0.391 OA
ATOM     39  H   UNL     1      -7.779   1.259  -1.254  0.00  0.00    +0.210 HD
ENDBRANCH  16   4
BRANCH  13  21
ATOM     21  C   UNL     1      -5.801   1.668   1.297  0.00  0.00    +0.165 C 
BRANCH  21   5
ATOM      5  O   UNL     1      -7.171   1.991   1.214  0.00  0.00    -0.394 OA
ATOM     40  H   UNL     1      -7.247   2.950   1.075  0.00  0.00    +0.209 HD
ENDBRANCH  21   5
ENDBRANCH  13  21
BRANCH  14  24
ATOM     24  C   UNL     1      -1.272  -2.063  -0.037  0.00  0.00    +0.106 C 
BRANCH  24  25
ATOM      6  O   UNL     1       0.185  -1.772  -1.882  0.00  0.00    -0.276 OA
ATOM      9  N   UNL     1       0.998  -3.037  -0.111  0.00  0.00    -0.301 N 
ATOM     25  C   UNL     1       0.032  -2.272  -0.765  0.00  0.00    +0.216 C 
ATOM     27  C   UNL     1       2.289  -3.287  -0.754  0.00  0.00    +0.108 C 
ATOM     28  C   UNL     1       0.861  -3.607   1.236  0.00  0.00    +0.108 C 
ATOM     29  C   UNL     1       2.590  -4.782  -0.810  0.00  0.00    +0.019 C 
ATOM     30  C   UNL     1       1.136  -5.109   1.219  0.00  0.00    +0.019 C 
ATOM     31  C   UNL     1       2.487  -5.419   0.575  0.00  0.00    +0.003 C 
ENDBRANCH  24  25
ENDBRANCH  14  24
TORSDOF 6
