REMARK  Name = 75536808
REMARK  11 active torsions:
REMARK  status: ('A' for Active; 'I' for Inactive)
REMARK    1  A    between atoms: O_2  and  C_9
REMARK    2  A    between atoms: N_4  and  C_7
REMARK    3  A    between atoms: N_4  and  C_8
REMARK    4  A    between atoms: N_5  and  C_17
REMARK    5  A    between atoms: N_6  and  C_16
REMARK    6  A    between atoms: C_10  and  C_16
REMARK    7  A    between atoms: C_18  and  C_19
REMARK    8  A    between atoms: C_18  and  C_21
REMARK    9  A    between atoms: C_18  and  C_22
REMARK   10  A    between atoms: C_18  and  C_23
REMARK   11  A    between atoms: C_19  and  C_20
REMARK                            x       y       z     vdW  Elec       q    Type
REMARK                         _______ _______ _______ _____ _____    ______ ____
ROOT
ATOM      1  O   UNL     1       0.988  -0.032  -0.355  0.00  0.00    -0.371 OA
ATOM      7  C   UNL     1      -1.234  -0.731   0.107  0.00  0.00    +0.111 C 
ATOM      9  C   UNL     1      -0.304  -1.923   0.234  0.00  0.00    +0.164 C 
ATOM     10  C   UNL     1       1.036  -1.229   0.438  0.00  0.00    +0.165 C 
ATOM     13  C   UNL     1      -0.382   0.231  -0.706  0.00  0.00    +0.181 C 
ENDROOT
BRANCH   9   2
ATOM      2  O   UNL     1      -0.636  -2.760   1.324  0.00  0.00    -0.388 OA
ATOM     25  H   UNL     1      -0.638  -2.222   2.134  0.00  0.00    +0.210 HD
ENDBRANCH   9   2
BRANCH   7   4
ATOM      4  N   UNL     1      -2.501  -1.044  -0.535  0.00  0.00    -0.306 NA
ATOM     24  H   UNL     1      -2.870  -1.923  -0.173  0.00  0.00    +0.123 HD
BRANCH   4   8
ATOM      5  N   UNL     1      -6.228   0.863   0.197  0.00  0.00    -0.305 NA
ATOM      8  C   UNL     1      -3.473   0.027  -0.330  0.00  0.00    +0.056 C 
ATOM     11  C   UNL     1      -4.114  -0.097   1.055  0.00  0.00    +0.034 C 
ATOM     12  C   UNL     1      -4.558  -0.004  -1.411  0.00  0.00    +0.034 C 
ATOM     14  C   UNL     1      -5.207   0.958   1.250  0.00  0.00    +0.085 C 
ATOM     15  C   UNL     1      -5.637   1.047  -1.136  0.00  0.00    +0.085 C 
ATOM     17  C   UNL     1      -7.290   1.842   0.425  0.00  0.00    +0.104 C 
ENDBRANCH   4   8
ENDBRANCH   7   4
BRANCH  10  16
ATOM     16  C   UNL     1       2.222  -2.077   0.017  0.00  0.00    +0.138 C 
BRANCH  16   6
ATOM      3  O   UNL     1       3.607  -0.360  -1.860  0.00  0.00    -0.276 OA
ATOM      6  N   UNL     1       3.471  -1.381   0.224  0.00  0.00    -0.313 N 
ATOM     20  C   UNL     1       4.060  -0.577  -0.738  0.00  0.00    +0.214 C 
ATOM     26  H   UNL     1       3.923  -1.488   1.127  0.00  0.00    +0.149 HD
BRANCH  20  19
ATOM     19  C   UNL     1       5.373   0.036  -0.278  0.00  0.00    +0.102 C 
BRANCH  19  18
ATOM     18  C   UNL     1       5.242   1.435   0.370  0.00  0.00    -0.029 C 
ATOM     21  C   UNL     1       6.616   1.981   0.791  0.00  0.00    +0.011 C 
ATOM     22  C   UNL     1       4.637   2.391  -0.677  0.00  0.00    +0.011 C 
ATOM     23  C   UNL     1       4.311   1.404   1.594  0.00  0.00    +0.011 C 
ENDBRANCH  19  18
ENDBRANCH  20  19
ENDBRANCH  16   6
ENDBRANCH  10  16
TORSDOF 7
