REMARK  Name = 11879670
REMARK  13 active torsions:
REMARK  status: ('A' for Active; 'I' for Inactive)
REMARK    1  A    between atoms: O_4  and  C_28
REMARK    2  A    between atoms: N_6  and  C_14
REMARK    3  A    between atoms: N_7  and  C_15
REMARK    4  A    between atoms: N_11  and  C_31
REMARK    5  A    between atoms: N_11  and  C_32
REMARK    6  A    between atoms: N_11  and  C_33
REMARK    7  A    between atoms: C_18  and  C_20
REMARK    8  A    between atoms: C_19  and  C_23
REMARK    9  A    between atoms: C_20  and  C_21
REMARK   10  A    between atoms: C_21  and  C_22
REMARK   11  A    between atoms: C_21  and  C_24
REMARK   12  A    between atoms: C_21  and  C_25
REMARK   13  A    between atoms: C_22  and  C_28
REMARK                            x       y       z     vdW  Elec       q    Type
REMARK                         _______ _______ _______ _____ _____    ______ ____
ROOT
ATOM      1  O   UNL     1      -0.717   2.715   1.471  0.00  0.00    -0.370 OA
ATOM      2  O   UNL     1       0.504  -0.122   2.068  0.00  0.00    -0.370 OA
ATOM     12  C   UNL     1       0.283   0.637   0.865  0.00  0.00    +0.176 C 
ATOM     13  C   UNL     1      -1.027   1.381   1.039  0.00  0.00    +0.171 C 
ATOM     14  C   UNL     1       1.332   1.727   0.743  0.00  0.00    +0.168 C 
ATOM     15  C   UNL     1      -1.742   0.626   2.137  0.00  0.00    +0.130 C 
ATOM     16  C   UNL     1       0.706   2.891   1.504  0.00  0.00    +0.190 C 
ATOM     17  C   UNL     1      -0.589   0.098   2.970  0.00  0.00    +0.185 C 
ENDROOT
BRANCH  14   6
ATOM      6  N   UNL     1       1.684   2.014  -0.649  0.00  0.00    -0.217 N 
ATOM      8  N   UNL     1       0.996   2.920  -1.358  0.00  0.00    -0.043 NA
ATOM      9  N   UNL     1       2.616   2.033  -2.608  0.00  0.00    -0.108 NA
ATOM     10  N   UNL     1       1.571   2.928  -2.555  0.00  0.00    -0.023 NA
ATOM     19  C   UNL     1       2.668   1.479  -1.418  0.00  0.00    +0.182 A 
BRANCH  19  23
ATOM     23  C   UNL     1       3.597   0.473  -0.972  0.00  0.00    +0.021 A 
ATOM     26  C   UNL     1       3.288  -0.879  -1.123  0.00  0.00    +0.013 A 
ATOM     27  C   UNL     1       4.806   0.851  -0.386  0.00  0.00    +0.013 A 
ATOM     29  C   UNL     1       4.188  -1.852  -0.688  0.00  0.00    +0.024 A 
ATOM     30  C   UNL     1       5.705  -0.123   0.048  0.00  0.00    +0.024 A 
ATOM     31  C   UNL     1       5.396  -1.474  -0.103  0.00  0.00    +0.029 A 
BRANCH  31  11
ATOM     11  N   UNL     1       6.305  -2.459   0.337  0.00  0.00    -0.336 N 
ATOM     32  C   UNL     1       7.563  -2.077   0.947  0.00  0.00    +0.129 C 
ATOM     33  C   UNL     1       5.987  -3.866   0.197  0.00  0.00    +0.129 C 
ENDBRANCH  31  11
ENDBRANCH  19  23
ENDBRANCH  14   6
BRANCH  15   7
ATOM      3  O   UNL     1      -4.543   0.706   1.484  0.00  0.00    -0.276 OA
ATOM      7  N   UNL     1      -2.535  -0.452   1.599  0.00  0.00    -0.308 N 
ATOM     18  C   UNL     1      -3.884  -0.318   1.315  0.00  0.00    +0.214 C 
ATOM     34  H   UNL     1      -2.065  -1.324   1.374  0.00  0.00    +0.149 HD
BRANCH  18  20
ATOM     20  C   UNL     1      -4.505  -1.587   0.753  0.00  0.00    +0.102 C 
BRANCH  20  21
ATOM     21  C   UNL     1      -4.525  -1.671  -0.795  0.00  0.00    -0.017 C 
ATOM     24  C   UNL     1      -5.116  -3.041  -1.188  0.00  0.00    +0.012 C 
ATOM     25  C   UNL     1      -3.089  -1.609  -1.356  0.00  0.00    +0.012 C 
BRANCH  21  22
ATOM     22  C   UNL     1      -5.343  -0.531  -1.448  0.00  0.00    +0.127 C 
BRANCH  22  28
ATOM      5  O   UNL     1      -7.164   0.152  -0.005  0.00  0.00    -0.251 OA
ATOM     28  C   UNL     1      -6.786  -0.449  -1.003  0.00  0.00    +0.305 C 
BRANCH  28   4
ATOM      4  O   UNL     1      -7.630  -1.122  -1.824  0.00  0.00    -0.481 OA
ATOM     35  H   UNL     1      -8.561  -1.064  -1.520  0.00  0.00    +0.295 HD
ENDBRANCH  28   4
ENDBRANCH  22  28
ENDBRANCH  21  22
ENDBRANCH  20  21
ENDBRANCH  18  20
ENDBRANCH  15   7
TORSDOF 9
