REMARK  Name = 11867169
REMARK  6 active torsions:
REMARK  status: ('A' for Active; 'I' for Inactive)
REMARK    1  A    between atoms: S_1  and  N_10
REMARK    2  A    between atoms: S_1  and  C_28
REMARK    3  A    between atoms: O_6  and  C_32
REMARK    4  A    between atoms: N_10  and  C_21
REMARK    5  A    between atoms: C_20  and  C_23
REMARK    6  A    between atoms: C_26  and  C_32
REMARK                            x       y       z     vdW  Elec       q    Type
REMARK                         _______ _______ _______ _____ _____    ______ ____
ROOT
ATOM      2  O   UNL     1      -1.619   3.115  -1.046  0.00  0.00    -0.266 OA
ATOM      3  O   UNL     1       2.546   0.434  -2.564  0.00  0.00    -0.270 OA
ATOM      8  N   UNL     1       3.026   1.364  -0.471  0.00  0.00    -0.297 N 
ATOM      9  N   UNL     1       0.287   2.779   0.275  0.00  0.00    -0.310 N 
ATOM     11  C   UNL     1       2.567   3.803  -0.279  0.00  0.00    +0.027 C 
ATOM     12  C   UNL     1       2.324   2.353   1.696  0.00  0.00    +0.054 C 
ATOM     13  C   UNL     1       2.810   3.722   1.224  0.00  0.00    +0.018 C 
ATOM     14  C   UNL     1       3.338   2.688  -1.009  0.00  0.00    +0.113 C 
ATOM     15  C   UNL     1       1.058   3.728  -0.540  0.00  0.00    +0.130 C 
ATOM     16  C   UNL     1       3.135   1.247   0.992  0.00  0.00    +0.117 C 
ATOM     17  C   UNL     1       0.847   2.167   1.405  0.00  0.00    +0.027 A 
ATOM     18  C   UNL     1       0.092   1.391   2.204  0.00  0.00    +0.024 A 
ATOM     19  C   UNL     1      -1.067   2.595  -0.077  0.00  0.00    +0.274 A 
ATOM     20  C   UNL     1       2.640   0.342  -1.341  0.00  0.00    +0.247 C 
ATOM     21  C   UNL     1      -1.841   1.709   0.829  0.00  0.00    +0.112 A 
ATOM     22  C   UNL     1      -1.294   1.151   1.909  0.00  0.00    +0.031 A 
ENDROOT
BRANCH  20  23
ATOM     23  C   UNL     1       2.292  -0.959  -0.761  0.00  0.00    +0.038 A 
ATOM     24  C   UNL     1       3.279  -1.926  -0.584  0.00  0.00    +0.028 A 
ATOM     25  C   UNL     1       0.976  -1.222  -0.389  0.00  0.00    +0.013 A 
ATOM     26  C   UNL     1       2.949  -3.163  -0.031  0.00  0.00    +0.060 A 
ATOM     27  C   UNL     1       0.645  -2.460   0.164  0.00  0.00    +0.002 A 
ATOM     29  C   UNL     1       1.631  -3.430   0.343  0.00  0.00    +0.015 A 
BRANCH  26  32
ATOM      7  O   UNL     1       5.169  -4.047  -0.139  0.00  0.00    -0.245 OA
ATOM     32  C   UNL     1       3.976  -4.175   0.155  0.00  0.00    +0.337 C 
BRANCH  32   6
ATOM      6  O   UNL     1       3.485  -5.320   0.705  0.00  0.00    -0.477 OA
ATOM     37  H   UNL     1       4.186  -5.996   0.827  0.00  0.00    +0.295 HD
ENDBRANCH  32   6
ENDBRANCH  26  32
ENDBRANCH  20  23
BRANCH  21  10
ATOM     10  N   UNL     1      -3.196   1.440   0.569  0.00  0.00    -0.211 N 
ATOM     36  H   UNL     1      -3.691   1.057   1.386  0.00  0.00    +0.174 HD
BRANCH  10   1
ATOM      1  S   UNL     1      -3.563   0.679  -0.898  0.00  0.00    +0.072 S 
ATOM      4  O   UNL     1      -4.574   1.441  -1.605  0.00  0.00    -0.150 OA
ATOM      5  O   UNL     1      -2.335   0.294  -1.569  0.00  0.00    -0.150 OA
BRANCH   1  28
ATOM     28  C   UNL     1      -4.332  -0.803  -0.315  0.00  0.00    +0.108 A 
ATOM     30  C   UNL     1      -5.700  -0.818  -0.110  0.00  0.00    +0.029 A 
ATOM     31  C   UNL     1      -3.550  -1.920  -0.075  0.00  0.00    +0.029 A 
ATOM     33  C   UNL     1      -6.307  -1.987   0.350  0.00  0.00    +0.002 A 
ATOM     34  C   UNL     1      -4.157  -3.089   0.385  0.00  0.00    +0.002 A 
ATOM     35  C   UNL     1      -5.535  -3.122   0.598  0.00  0.00    +0.000 A 
ENDBRANCH   1  28
ENDBRANCH  10   1
ENDBRANCH  21  10
TORSDOF 6
