REMARK  Name = 7155621
REMARK  8 active torsions:
REMARK  status: ('A' for Active; 'I' for Inactive)
REMARK    1  A    between atoms: O_5  and  C_36
REMARK    2  A    between atoms: O_5  and  C_38
REMARK    3  A    between atoms: N_8  and  C_22
REMARK    4  A    between atoms: N_9  and  C_20
REMARK    5  A    between atoms: C_23  and  C_26
REMARK    6  A    between atoms: C_26  and  C_29
REMARK    7  A    between atoms: C_30  and  C_33
REMARK    8  A    between atoms: C_33  and  C_37
REMARK                            x       y       z     vdW  Elec       q    Type
REMARK                         _______ _______ _______ _____ _____    ______ ____
ROOT
ATOM      1  O   UNL     1      -1.512   2.675   1.809  0.00  0.00    -0.266 OA
ATOM      2  O   UNL     1      -3.018  -2.326   1.962  0.00  0.00    -0.252 OA
ATOM      6  N   UNL     1      -4.365  -1.212   0.446  0.00  0.00    -0.284 N 
ATOM      7  N   UNL     1      -3.166   1.744   0.445  0.00  0.00    -0.310 N 
ATOM      8  N   UNL     1      -2.562  -2.539  -0.301  0.00  0.00    -0.269 N 
ATOM     10  C   UNL     1      -5.391   0.875   1.363  0.00  0.00    +0.027 C 
ATOM     11  C   UNL     1      -4.916   0.708  -1.042  0.00  0.00    +0.054 C 
ATOM     12  C   UNL     1      -5.934   1.207  -0.021  0.00  0.00    +0.018 C 
ATOM     13  C   UNL     1      -5.196  -0.644   1.511  0.00  0.00    +0.114 C 
ATOM     14  C   UNL     1      -4.086   1.648   1.586  0.00  0.00    +0.130 C 
ATOM     15  C   UNL     1      -4.760  -0.823  -0.921  0.00  0.00    +0.119 C 
ATOM     16  C   UNL     1      -3.568   1.375  -0.842  0.00  0.00    +0.027 A 
ATOM     17  C   UNL     1      -2.751   1.580  -1.890  0.00  0.00    +0.024 A 
ATOM     18  C   UNL     1      -1.903   2.319   0.697  0.00  0.00    +0.273 A 
ATOM     19  C   UNL     1      -3.281  -2.049   0.788  0.00  0.00    +0.306 C 
ATOM     20  C   UNL     1      -1.014   2.506  -0.493  0.00  0.00    +0.099 A 
ATOM     21  C   UNL     1      -1.448   2.155  -1.708  0.00  0.00    +0.030 A 
ATOM     39  H   UNL     1      -3.052  -2.668  -1.180  0.00  0.00    +0.156 HD
ENDROOT
BRANCH   8  22
ATOM     22  C   UNL     1      -1.186  -2.870  -0.340  0.00  0.00    +0.035 A 
ATOM     24  C   UNL     1      -0.399  -2.715   0.801  0.00  0.00    +0.024 A 
ATOM     25  C   UNL     1      -0.617  -3.351  -1.520  0.00  0.00    +0.024 A 
ATOM     27  C   UNL     1       0.957  -3.040   0.762  0.00  0.00    +0.013 A 
ATOM     28  C   UNL     1       0.739  -3.676  -1.559  0.00  0.00    +0.013 A 
ATOM     30  C   UNL     1       1.526  -3.521  -0.418  0.00  0.00    +0.017 A 
BRANCH  30  33
ATOM      4  O   UNL     1       3.374  -4.753  -1.213  0.00  0.00    -0.292 OA
ATOM     33  C   UNL     1       2.939  -3.860  -0.457  0.00  0.00    +0.160 C 
ATOM     37  C   UNL     1       3.932  -3.123   0.435  0.00  0.00    +0.091 C 
ENDBRANCH  30  33
ENDBRANCH   8  22
BRANCH  20   9
ATOM      3  O   UNL     1       1.335   1.999  -2.048  0.00  0.00    -0.275 OA
ATOM      9  N   UNL     1       0.223   3.044  -0.289  0.00  0.00    -0.281 N 
ATOM     23  C   UNL     1       1.328   2.758  -1.081  0.00  0.00    +0.222 C 
ATOM     40  H   UNL     1       0.377   3.490   0.612  0.00  0.00    +0.155 HD
BRANCH  23  26
ATOM     26  C   UNL     1       2.557   3.509  -0.604  0.00  0.00    +0.131 C 
BRANCH  26  29
ATOM     29  C   UNL     1       3.693   2.605  -0.205  0.00  0.00    -0.038 A 
ATOM     31  C   UNL     1       3.798   2.156   1.112  0.00  0.00    +0.007 A 
ATOM     32  C   UNL     1       4.640   2.215  -1.152  0.00  0.00    +0.007 A 
ATOM     34  C   UNL     1       4.850   1.318   1.482  0.00  0.00    +0.046 A 
ATOM     35  C   UNL     1       5.692   1.377  -0.782  0.00  0.00    +0.046 A 
ATOM     36  C   UNL     1       5.797   0.928   0.534  0.00  0.00    +0.120 A 
BRANCH  36   5
ATOM      5  O   UNL     1       6.823   0.110   0.895  0.00  0.00    -0.495 OA
ATOM     38  C   UNL     1       6.869  -0.311   2.257  0.00  0.00    +0.277 C 
ENDBRANCH  36   5
ENDBRANCH  26  29
ENDBRANCH  23  26
ENDBRANCH  20   9
TORSDOF 6
