REMARK  Name = 45361601
REMARK  10 active torsions:
REMARK  status: ('A' for Active; 'I' for Inactive)
REMARK    1  A    between atoms: O_1  and  C_10
REMARK    2  A    between atoms: N_4  and  C_14
REMARK    3  A    between atoms: N_5  and  C_24
REMARK    4  A    between atoms: C_7  and  C_17
REMARK    5  A    between atoms: C_9  and  C_19
REMARK    6  A    between atoms: C_13  and  C_18
REMARK    7  A    between atoms: C_18  and  C_20
REMARK    8  A    between atoms: C_18  and  C_21
REMARK    9  A    between atoms: C_22  and  C_23
REMARK   10  A    between atoms: C_24  and  C_26
REMARK                            x       y       z     vdW  Elec       q    Type
REMARK                         _______ _______ _______ _____ _____    ______ ____
ROOT
ATOM      7  C   UNL     1      -0.020   0.389   1.209  0.00  0.00    -0.027 C 
ATOM      8  C   UNL     1      -0.359  -0.463  -0.060  0.00  0.00    +0.028 C 
ATOM      9  C   UNL     1      -1.888  -0.820  -0.101  0.00  0.00    +0.012 C 
ATOM     10  C   UNL     1       0.613  -1.669  -0.205  0.00  0.00    +0.122 C 
ATOM     11  C   UNL     1       1.465   0.818   1.160  0.00  0.00    +0.007 C 
ATOM     12  C   UNL     1      -0.881   1.673   1.199  0.00  0.00    +0.009 C 
ATOM     13  C   UNL     1       2.099  -1.245  -0.148  0.00  0.00    +0.029 C 
ATOM     14  C   UNL     1      -2.746   0.475  -0.035  0.00  0.00    +0.076 C 
ATOM     15  C   UNL     1       2.422  -0.363   1.058  0.00  0.00    +0.007 C 
ATOM     16  C   UNL     1      -2.375   1.390   1.132  0.00  0.00    +0.023 C 
ATOM     17  C   UNL     1      -0.273  -0.384   2.528  0.00  0.00    +0.011 C 
ATOM     19  C   UNL     1      -2.297  -1.634  -1.340  0.00  0.00    +0.010 C 
ENDROOT
BRANCH  14   4
ATOM      3  O   UNL     1      -4.892   2.050  -1.111  0.00  0.00    -0.269 OA
ATOM      4  N   UNL     1      -4.160   0.179   0.046  0.00  0.00    -0.307 N 
ATOM     22  C   UNL     1      -5.123   1.005  -0.508  0.00  0.00    +0.263 C 
ATOM     35  H   UNL     1      -4.453  -0.636   0.578  0.00  0.00    +0.149 HD
BRANCH  22  23
ATOM      6  N   UNL     1      -6.704  -0.573   0.378  0.00  0.00    -0.250 NA
ATOM     23  C   UNL     1      -6.532   0.574  -0.316  0.00  0.00    +0.125 A 
ATOM     25  C   UNL     1      -7.571   1.332  -0.831  0.00  0.00    +0.033 A 
ATOM     27  C   UNL     1      -8.870   0.884  -0.622  0.00  0.00    +0.004 A 
ATOM     28  C   UNL     1      -7.981  -0.978   0.562  0.00  0.00    +0.111 A 
ATOM     31  C   UNL     1      -9.088  -0.292   0.088  0.00  0.00    +0.020 A 
ENDBRANCH  22  23
ENDBRANCH  14   4
BRANCH  10   1
ATOM      1  O   UNL     1       0.414  -2.291  -1.476  0.00  0.00    -0.391 OA
ATOM     36  H   UNL     1       0.589  -1.630  -2.167  0.00  0.00    +0.210 HD
ENDBRANCH  10   1
BRANCH  13  18
ATOM     18  C   UNL     1       3.038  -2.458  -0.162  0.00  0.00    +0.077 C 
ATOM     20  C   UNL     1       2.747  -3.360   1.033  0.00  0.00    +0.017 C 
BRANCH  18  21
ATOM      2  O   UNL     1       5.292  -2.308   0.710  0.00  0.00    -0.276 OA
ATOM      5  N   UNL     1       4.785  -1.182  -1.254  0.00  0.00    -0.311 N 
ATOM     21  C   UNL     1       4.490  -1.991  -0.166  0.00  0.00    +0.216 C 
ATOM     37  H   UNL     1       4.080  -1.009  -1.962  0.00  0.00    +0.149 HD
BRANCH   5  24
ATOM     24  C   UNL     1       6.096  -0.617  -1.474  0.00  0.00    +0.139 C 
BRANCH  24  26
ATOM     26  C   UNL     1       6.245   0.727  -0.822  0.00  0.00    -0.030 A 
ATOM     29  C   UNL     1       5.915   1.885  -1.527  0.00  0.00    +0.005 A 
ATOM     30  C   UNL     1       6.713   0.819   0.489  0.00  0.00    +0.005 A 
ATOM     32  C   UNL     1       6.053   3.134  -0.921  0.00  0.00    +0.000 A 
ATOM     33  C   UNL     1       6.852   2.067   1.095  0.00  0.00    +0.000 A 
ATOM     34  C   UNL     1       6.522   3.225   0.390  0.00  0.00    +0.000 A 
ENDBRANCH  24  26
ENDBRANCH   5  24
ENDBRANCH  18  21
ENDBRANCH  13  18
TORSDOF 7
