REMARK  Name = 75536652
REMARK  8 active torsions:
REMARK  status: ('A' for Active; 'I' for Inactive)
REMARK    1  A    between atoms: S_1  and  N_7
REMARK    2  A    between atoms: S_1  and  C_15
REMARK    3  A    between atoms: O_3  and  C_9
REMARK    4  A    between atoms: N_6  and  C_8
REMARK    5  A    between atoms: N_6  and  C_13
REMARK    6  A    between atoms: N_6  and  C_14
REMARK    7  A    between atoms: N_7  and  C_12
REMARK    8  A    between atoms: C_10  and  C_12
REMARK                            x       y       z     vdW  Elec       q    Type
REMARK                         _______ _______ _______ _____ _____    ______ ____
ROOT
ATOM      2  O   UNL     1      -0.236   1.203   0.504  0.00  0.00    -0.371 OA
ATOM      8  C   UNL     1      -2.396   0.236   0.304  0.00  0.00    +0.113 C 
ATOM      9  C   UNL     1      -1.352  -0.807  -0.049  0.00  0.00    +0.164 C 
ATOM     10  C   UNL     1      -0.116  -0.224   0.623  0.00  0.00    +0.164 C 
ATOM     11  C   UNL     1      -1.597   1.521   0.164  0.00  0.00    +0.181 C 
ENDROOT
BRANCH   8   6
ATOM      6  N   UNL     1      -3.569   0.202  -0.554  0.00  0.00    -0.301 NA
ATOM     13  C   UNL     1      -4.271  -1.078  -0.426  0.00  0.00    +0.105 C 
ATOM     14  C   UNL     1      -4.477   1.309  -0.239  0.00  0.00    +0.105 C 
ENDBRANCH   8   6
BRANCH   9   3
ATOM      3  O   UNL     1      -1.670  -2.090   0.455  0.00  0.00    -0.388 OA
ATOM     16  H   UNL     1      -1.799  -2.017   1.416  0.00  0.00    +0.210 HD
ENDBRANCH   9   3
BRANCH  10  12
ATOM     12  C   UNL     1       1.185  -0.684  -0.011  0.00  0.00    +0.139 C 
BRANCH  12   7
ATOM      7  N   UNL     1       2.325  -0.073   0.700  0.00  0.00    -0.192 NA
ATOM     17  H   UNL     1       2.428  -0.407   1.667  0.00  0.00    +0.148 HD
BRANCH   7   1
ATOM      1  S   UNL     1       3.772   0.225  -0.154  0.00  0.00    +0.027 S 
ATOM      4  O   UNL     1       4.838   0.534   0.779  0.00  0.00    -0.158 OA
ATOM      5  O   UNL     1       3.476   1.112  -1.262  0.00  0.00    -0.158 OA
ATOM     15  C   UNL     1       4.089  -1.387  -0.833  0.00  0.00    +0.214 C 
ENDBRANCH   7   1
ENDBRANCH  12   7
ENDBRANCH  10  12
TORSDOF 5
