REMARK  Name = 11885295
REMARK  3 active torsions:
REMARK  status: ('A' for Active; 'I' for Inactive)
REMARK    1  A    between atoms: N_3  and  C_12
REMARK    2  A    between atoms: C_12  and  C_17
REMARK    3  A    between atoms: C_15  and  C_18
REMARK                            x       y       z     vdW  Elec       q    Type
REMARK                         _______ _______ _______ _____ _____    ______ ____
ROOT
ATOM      2  O   UNL     1      -1.305  -2.241   1.403  0.00  0.00    -0.267 OA
ATOM      3  N   UNL     1       3.479  -0.854   0.825  0.00  0.00    -0.297 NA
ATOM      4  N   UNL     1       0.664  -2.196   0.155  0.00  0.00    -0.311 N 
ATOM      5  C   UNL     1       2.843  -3.275   0.966  0.00  0.00    +0.024 C 
ATOM      6  C   UNL     1       2.784  -2.139  -1.202  0.00  0.00    +0.050 C 
ATOM      7  C   UNL     1       3.132  -3.458  -0.518  0.00  0.00    +0.017 C 
ATOM      8  C   UNL     1       3.697  -2.122   1.533  0.00  0.00    +0.090 C 
ATOM      9  C   UNL     1       3.668  -1.009  -0.625  0.00  0.00    +0.094 C 
ATOM     10  C   UNL     1       1.338  -3.040   1.152  0.00  0.00    +0.130 C 
ATOM     11  C   UNL     1       1.314  -1.808  -1.019  0.00  0.00    +0.026 A 
ATOM     13  C   UNL     1       0.646  -1.132  -1.967  0.00  0.00    +0.022 A 
ATOM     14  C   UNL     1      -0.689  -1.888   0.396  0.00  0.00    +0.259 A 
ATOM     15  C   UNL     1      -1.402  -1.099  -0.670  0.00  0.00    +0.047 A 
ATOM     16  C   UNL     1      -0.730  -0.769  -1.783  0.00  0.00    +0.015 A 
ENDROOT
BRANCH  15  18
ATOM     18  C   UNL     1      -2.806  -0.685  -0.503  0.00  0.00    -0.012 A 
ATOM     21  C   UNL     1      -3.107   0.537   0.101  0.00  0.00    +0.017 A 
ATOM     22  C   UNL     1      -3.834  -1.513  -0.947  0.00  0.00    +0.009 A 
ATOM     25  C   UNL     1      -4.441   0.946   0.267  0.00  0.00    -0.017 A 
ATOM     27  C   UNL     1      -5.164  -1.122  -0.790  0.00  0.00    +0.009 A 
ATOM     28  C   UNL     1      -5.484   0.104  -0.185  0.00  0.00    -0.018 A 
ATOM     29  C   UNL     1      -4.761   2.172   0.872  0.00  0.00    +0.008 A 
ATOM     30  C   UNL     1      -6.818   0.513  -0.019  0.00  0.00    +0.008 A 
ATOM     31  C   UNL     1      -6.091   2.563   1.029  0.00  0.00    +0.001 A 
ATOM     32  C   UNL     1      -7.117   1.734   0.585  0.00  0.00    +0.001 A 
ENDBRANCH  15  18
BRANCH   3  12
ATOM     12  C   UNL     1       4.344   0.198   1.355  0.00  0.00    +0.119 C 
BRANCH  12  17
ATOM      1  F   UNL     1       3.225   5.144  -1.068  0.00  0.00    -0.205 F 
ATOM     17  C   UNL     1       4.045   1.522   0.707  0.00  0.00    -0.033 A 
ATOM     19  C   UNL     1       4.724   1.887  -0.448  0.00  0.00    +0.008 A 
ATOM     20  C   UNL     1       3.094   2.361   1.271  0.00  0.00    +0.008 A 
ATOM     23  C   UNL     1       4.446   3.115  -1.049  0.00  0.00    +0.038 A 
ATOM     24  C   UNL     1       2.816   3.588   0.670  0.00  0.00    +0.038 A 
ATOM     26  C   UNL     1       3.492   3.966  -0.490  0.00  0.00    +0.123 A 
ENDBRANCH  12  17
ENDBRANCH   3  12
TORSDOF 3
