REMARK  Name = 71693320
REMARK  11 active torsions:
REMARK  status: ('A' for Active; 'I' for Inactive)
REMARK    1  A    between atoms: O_2  and  C_12
REMARK    2  A    between atoms: N_5  and  C_10
REMARK    3  A    between atoms: N_6  and  C_22
REMARK    4  A    between atoms: N_7  and  C_24
REMARK    5  A    between atoms: C_8  and  C_12
REMARK    6  A    between atoms: C_9  and  C_14
REMARK    7  A    between atoms: C_10  and  C_11
REMARK    8  A    between atoms: C_11  and  C_16
REMARK    9  A    between atoms: C_11  and  C_17
REMARK   10  A    between atoms: C_24  and  C_25
REMARK   11  A    between atoms: C_24  and  C_26
REMARK                            x       y       z     vdW  Elec       q    Type
REMARK                         _______ _______ _______ _____ _____    ______ ____
ROOT
ATOM     14  C   UNL     1       0.178   0.585  -0.038  0.00  0.00    -0.017 A 
ATOM     18  C   UNL     1      -0.808   0.976  -0.943  0.00  0.00    +0.008 A 
ATOM     19  C   UNL     1      -0.171  -0.132   1.107  0.00  0.00    +0.008 A 
ATOM     20  C   UNL     1      -2.143   0.651  -0.705  0.00  0.00    +0.024 A 
ATOM     21  C   UNL     1      -1.506  -0.458   1.346  0.00  0.00    +0.024 A 
ATOM     22  C   UNL     1      -2.492  -0.066   0.440  0.00  0.00    +0.035 A 
ENDROOT
BRANCH  14   9
ATOM      1  O   UNL     1       2.044   1.800   0.763  0.00  0.00    -0.361 OA
ATOM      3  O   UNL     1       5.575   1.759   0.296  0.00  0.00    -0.273 OA
ATOM      5  N   UNL     1       3.998   0.161  -0.330  0.00  0.00    -0.291 N 
ATOM      8  C   UNL     1       2.580  -0.272  -0.326  0.00  0.00    +0.135 C 
ATOM      9  C   UNL     1       1.627   0.939  -0.297  0.00  0.00    +0.171 C 
ATOM     13  C   UNL     1       4.402   1.404   0.161  0.00  0.00    +0.242 C 
ATOM     15  C   UNL     1       3.290   2.385   0.473  0.00  0.00    +0.256 C 
BRANCH   5  10
ATOM     10  C   UNL     1       5.021  -0.837  -0.633  0.00  0.00    +0.111 C 
BRANCH  10  11
ATOM     11  C   UNL     1       5.315  -1.751   0.562  0.00  0.00    +0.000 C 
ATOM     16  C   UNL     1       5.812  -0.922   1.746  0.00  0.00    +0.009 C 
ATOM     17  C   UNL     1       6.346  -2.827   0.209  0.00  0.00    +0.009 C 
ENDBRANCH  10  11
ENDBRANCH   5  10
BRANCH   8  12
ATOM     12  C   UNL     1       2.243  -1.196  -1.506  0.00  0.00    +0.181 C 
BRANCH  12   2
ATOM      2  O   UNL     1       2.374  -0.451  -2.700  0.00  0.00    -0.393 OA
ATOM     27  H   UNL     1       2.137  -1.042  -3.434  0.00  0.00    +0.209 HD
ENDBRANCH  12   2
ENDBRANCH   8  12
ENDBRANCH  14   9
BRANCH  22   6
ATOM      4  O   UNL     1      -4.955   0.528  -1.168  0.00  0.00    -0.253 OA
ATOM      6  N   UNL     1      -3.828  -0.392   0.680  0.00  0.00    -0.269 N 
ATOM      7  N   UNL     1      -6.123  -0.595   0.481  0.00  0.00    -0.297 N 
ATOM     23  C   UNL     1      -4.958  -0.091  -0.106  0.00  0.00    +0.304 C 
ATOM     28  H   UNL     1      -4.006  -0.915   1.533  0.00  0.00    +0.156 HD
ATOM     29  H   UNL     1      -6.052  -1.029   1.396  0.00  0.00    +0.151 HD
BRANCH   7  24
ATOM     24  C   UNL     1      -7.434  -0.436  -0.105  0.00  0.00    +0.068 C 
ATOM     25  C   UNL     1      -8.068   0.868   0.362  0.00  0.00    +0.027 C 
ATOM     26  C   UNL     1      -8.318  -1.631   0.231  0.00  0.00    +0.027 C 
ENDBRANCH   7  24
ENDBRANCH  22   6
TORSDOF 7
