REMARK  Name = 28961008
REMARK  5 active torsions:
REMARK  status: ('A' for Active; 'I' for Inactive)
REMARK    1  A    between atoms: N_6  and  C_16
REMARK    2  A    between atoms: N_7  and  C_11
REMARK    3  A    between atoms: N_10  and  C_20
REMARK    4  A    between atoms: C_12  and  C_15
REMARK    5  A    between atoms: C_18  and  C_19
REMARK                            x       y       z     vdW  Elec       q    Type
REMARK                         _______ _______ _______ _____ _____    ______ ____
ROOT
ATOM      6  N   UNL     1      -0.001  -3.692   1.070  0.00  0.00    -0.293 NA
ATOM     11  C   UNL     1      -1.922  -3.197  -0.154  0.00  0.00    +0.090 C 
ATOM     12  C   UNL     1       0.498  -3.493  -0.304  0.00  0.00    +0.147 C 
ATOM     13  C   UNL     1      -0.733  -3.015  -1.098  0.00  0.00    +0.052 C 
ATOM     14  C   UNL     1      -1.395  -4.123   0.932  0.00  0.00    +0.107 C 
ATOM     16  C   UNL     1       0.791  -4.648   1.835  0.00  0.00    +0.105 C 
ENDROOT
BRANCH  11   7
ATOM      3  O   UNL     1      -3.947  -1.473  -1.218  0.00  0.00    -0.253 OA
ATOM      7  N   UNL     1      -2.360  -1.936   0.398  0.00  0.00    -0.295 N 
ATOM     10  N   UNL     1      -3.570   0.006   0.565  0.00  0.00    -0.269 N 
ATOM     17  C   UNL     1      -3.360  -1.153  -0.188  0.00  0.00    +0.304 C 
ATOM     32  H   UNL     1      -1.871  -1.569   1.208  0.00  0.00    +0.151 HD
ATOM     33  H   UNL     1      -2.997   0.121   1.397  0.00  0.00    +0.156 HD
BRANCH  10  20
ATOM      1  F   UNL     1      -7.175   4.099  -0.428  0.00  0.00    -0.205 F 
ATOM     20  C   UNL     1      -4.490   1.051   0.312  0.00  0.00    +0.035 A 
ATOM     26  C   UNL     1      -4.563   2.142   1.178  0.00  0.00    +0.026 A 
ATOM     27  C   UNL     1      -5.324   0.989  -0.804  0.00  0.00    +0.026 A 
ATOM     29  C   UNL     1      -5.470   3.171   0.928  0.00  0.00    +0.040 A 
ATOM     30  C   UNL     1      -6.231   2.019  -1.054  0.00  0.00    +0.040 A 
ATOM     31  C   UNL     1      -6.304   3.110  -0.188  0.00  0.00    +0.124 A 
ENDBRANCH  10  20
ENDBRANCH  11   7
BRANCH  12  15
ATOM      2  O   UNL     1       2.803  -2.995  -0.948  0.00  0.00    -0.336 OA
ATOM      8  N   UNL     1       1.726  -1.274  -0.000  0.00  0.00    -0.190 NA
ATOM      9  N   UNL     1       3.716  -1.934  -0.916  0.00  0.00    -0.056 NA
ATOM     15  C   UNL     1       1.657  -2.522  -0.390  0.00  0.00    +0.245 A 
ATOM     18  C   UNL     1       3.008  -0.956  -0.344  0.00  0.00    +0.202 A 
BRANCH  18  19
ATOM      4  O   UNL     1       6.593   2.359  -0.508  0.00  0.00    -0.453 OA
ATOM      5  O   UNL     1       5.221   4.046   0.530  0.00  0.00    -0.453 OA
ATOM     19  C   UNL     1       3.550   0.350  -0.103  0.00  0.00    +0.026 A 
ATOM     21  C   UNL     1       4.867   0.633  -0.472  0.00  0.00    +0.061 A 
ATOM     22  C   UNL     1       2.749   1.334   0.503  0.00  0.00    +0.015 A 
ATOM     23  C   UNL     1       5.343   1.903  -0.220  0.00  0.00    +0.167 A 
ATOM     24  C   UNL     1       4.560   2.867   0.372  0.00  0.00    +0.166 A 
ATOM     25  C   UNL     1       3.256   2.613   0.746  0.00  0.00    +0.050 A 
ATOM     28  C   UNL     1       6.508   3.717  -0.030  0.00  0.00    +0.466 C 
ENDBRANCH  18  19
ENDBRANCH  12  15
TORSDOF 4
