REMARK  Name = 25314270
REMARK  6 active torsions:
REMARK  status: ('A' for Active; 'I' for Inactive)
REMARK    1  A    between atoms: O_3  and  C_11
REMARK    2  A    between atoms: N_7  and  C_10
REMARK    3  A    between atoms: N_8  and  C_12
REMARK    4  A    between atoms: N_8  and  C_20
REMARK    5  A    between atoms: C_20  and  C_22
REMARK    6  A    between atoms: C_21  and  C_23
REMARK                            x       y       z     vdW  Elec       q    Type
REMARK                         _______ _______ _______ _____ _____    ______ ____
ROOT
ATOM      1  O   UNL     1       3.132  -0.458   1.565  0.00  0.00    -0.343 OA
ATOM      2  O   UNL     1       4.933  -0.520   0.104  0.00  0.00    -0.347 OA
ATOM     10  C   UNL     1       2.831   0.383  -0.678  0.00  0.00    +0.143 C 
ATOM     11  C   UNL     1       2.384  -1.018  -1.159  0.00  0.00    +0.156 C 
ATOM     12  C   UNL     1       2.258  -2.060  -0.021  0.00  0.00    +0.116 C 
ATOM     13  C   UNL     1       3.267  -1.814   1.124  0.00  0.00    +0.166 C 
ATOM     14  C   UNL     1       3.796   0.259   0.515  0.00  0.00    +0.270 C 
ATOM     15  C   UNL     1       4.720  -1.816   0.683  0.00  0.00    +0.196 C 
ENDROOT
BRANCH  10   7
ATOM      4  O   UNL     1      -1.014   5.009   1.211  0.00  0.00    -0.276 OA
ATOM      7  N   UNL     1       1.673   1.194  -0.302  0.00  0.00    -0.290 NA
ATOM      9  N   UNL     1      -0.246   3.242  -0.091  0.00  0.00    -0.299 N 
ATOM     16  C   UNL     1       0.743   1.370  -1.415  0.00  0.00    +0.104 C 
ATOM     17  C   UNL     1       2.080   2.471   0.303  0.00  0.00    +0.104 C 
ATOM     18  C   UNL     1      -0.527   2.057  -0.908  0.00  0.00    +0.123 C 
ATOM     19  C   UNL     1       1.152   3.650  -0.016  0.00  0.00    +0.123 C 
ATOM     21  C   UNL     1      -1.236   4.011   0.522  0.00  0.00    +0.213 C 
ATOM     23  C   UNL     1      -2.658   3.553   0.306  0.00  0.00    +0.109 C 
ENDBRANCH  10   7
BRANCH  11   3
ATOM      3  O   UNL     1       3.363  -1.485  -2.099  0.00  0.00    -0.388 OA
ATOM     31  H   UNL     1       3.064  -2.349  -2.432  0.00  0.00    +0.210 HD
ENDBRANCH  11   3
BRANCH  12   8
ATOM      8  N   UNL     1       0.906  -2.039   0.549  0.00  0.00    -0.305 NA
ATOM     30  H   UNL     1       0.894  -2.506   1.456  0.00  0.00    +0.123 HD
BRANCH   8  20
ATOM     20  C   UNL     1      -0.032  -2.702  -0.340  0.00  0.00    +0.116 C 
BRANCH  20  22
ATOM      5  O   UNL     1      -4.197  -0.207  -1.299  0.00  0.00    -0.453 OA
ATOM      6  O   UNL     1      -5.333  -1.134   0.614  0.00  0.00    -0.453 OA
ATOM     22  C   UNL     1      -1.455  -2.302  -0.053  0.00  0.00    -0.030 A 
ATOM     24  C   UNL     1      -2.105  -1.400  -0.898  0.00  0.00    +0.054 A 
ATOM     25  C   UNL     1      -2.117  -2.842   1.063  0.00  0.00    +0.009 A 
ATOM     26  C   UNL     1      -3.409  -1.065  -0.596  0.00  0.00    +0.167 A 
ATOM     27  C   UNL     1      -3.438  -2.487   1.347  0.00  0.00    +0.050 A 
ATOM     28  C   UNL     1      -4.058  -1.594   0.497  0.00  0.00    +0.166 A 
ATOM     29  C   UNL     1      -5.415  -0.256  -0.528  0.00  0.00    +0.466 C 
ENDBRANCH  20  22
ENDBRANCH   8  20
ENDBRANCH  12   8
TORSDOF 5
