REMARK  Name = 75368669
REMARK  4 active torsions:
REMARK  status: ('A' for Active; 'I' for Inactive)
REMARK    1  A    between atoms: N_4  and  C_10
REMARK    2  A    between atoms: N_5  and  C_16
REMARK    3  A    between atoms: N_6  and  C_25
REMARK    4  A    between atoms: C_16  and  C_19
REMARK                            x       y       z     vdW  Elec       q    Type
REMARK                         _______ _______ _______ _____ _____    ______ ____
ROOT
ATOM      2  O   UNL     1      -3.715  -2.707  -0.016  0.00  0.00    -0.252 OA
ATOM      3  N   UNL     1      -1.584  -1.718  -0.032  0.00  0.00    -0.278 N 
ATOM      4  N   UNL     1      -3.380  -0.379  -0.191  0.00  0.00    -0.280 N 
ATOM      5  N   UNL     1       1.081  -1.212   0.712  0.00  0.00    -0.295 NA
ATOM      7  C   UNL     1      -1.034  -0.396  -0.247  0.00  0.00    +0.109 C 
ATOM      8  C   UNL     1      -2.245   0.526  -0.123  0.00  0.00    +0.133 C 
ATOM      9  C   UNL     1       0.089  -0.118   0.752  0.00  0.00    +0.109 C 
ATOM     11  C   UNL     1      -0.687  -2.847   0.094  0.00  0.00    +0.125 C 
ATOM     12  C   UNL     1      -2.985  -1.727  -0.077  0.00  0.00    +0.305 C 
ATOM     13  C   UNL     1       0.454  -2.505   1.056  0.00  0.00    +0.104 C 
ENDROOT
BRANCH   4  10
ATOM      1  O   UNL     1      -6.574   2.312  -0.402  0.00  0.00    -0.380 OA
ATOM     10  C   UNL     1      -4.739   0.101  -0.219  0.00  0.00    +0.082 C 
ATOM     14  C   UNL     1      -5.041   0.809  -1.540  0.00  0.00    +0.050 C 
ATOM     15  C   UNL     1      -5.019   1.035   0.959  0.00  0.00    +0.050 C 
ATOM     17  C   UNL     1      -6.434   1.427  -1.513  0.00  0.00    +0.161 C 
ATOM     18  C   UNL     1      -6.414   1.638   0.847  0.00  0.00    +0.161 C 
ENDBRANCH   4  10
BRANCH   5  16
ATOM     16  C   UNL     1       2.191  -0.927   1.621  0.00  0.00    +0.121 C 
BRANCH  16  19
ATOM      6  N   UNL     1       4.205   1.997   0.654  0.00  0.00    -0.349 N 
ATOM     19  C   UNL     1       3.142   0.088   1.043  0.00  0.00    -0.008 A 
ATOM     20  C   UNL     1       4.115  -0.143   0.032  0.00  0.00    +0.004 A 
ATOM     21  C   UNL     1       3.221   1.413   1.406  0.00  0.00    +0.091 A 
ATOM     22  C   UNL     1       4.769   1.070  -0.194  0.00  0.00    +0.049 A 
ATOM     23  C   UNL     1       4.505  -1.272  -0.716  0.00  0.00    +0.010 A 
ATOM     24  C   UNL     1       5.796   1.212  -1.133  0.00  0.00    +0.026 A 
ATOM     25  C   UNL     1       4.586   3.390   0.750  0.00  0.00    +0.149 C 
ATOM     26  C   UNL     1       5.531  -1.145  -1.660  0.00  0.00    +0.001 A 
ATOM     27  C   UNL     1       6.165   0.079  -1.863  0.00  0.00    +0.002 A 
ENDBRANCH  16  19
ENDBRANCH   5  16
TORSDOF 3
