REMARK  Name = 26744592
REMARK  6 active torsions:
REMARK  status: ('A' for Active; 'I' for Inactive)
REMARK    1  A    between atoms: O_3  and  C_11
REMARK    2  A    between atoms: N_5  and  C_13
REMARK    3  A    between atoms: C_9  and  C_14
REMARK    4  A    between atoms: C_13  and  C_15
REMARK    5  A    between atoms: C_16  and  C_19
REMARK    6  A    between atoms: C_19  and  C_21
REMARK                            x       y       z     vdW  Elec       q    Type
REMARK                         _______ _______ _______ _____ _____    ______ ____
ROOT
ATOM      5  N   UNL     1      -2.980  -0.614   0.620  0.00  0.00    -0.285 NA
ATOM      9  C   UNL     1      -3.045   0.372  -0.477  0.00  0.00    +0.149 C 
ATOM     10  C   UNL     1      -3.995   1.470   0.035  0.00  0.00    +0.061 C 
ATOM     11  C   UNL     1      -4.449   0.990   1.408  0.00  0.00    +0.130 C 
ATOM     12  C   UNL     1      -4.246  -0.512   1.343  0.00  0.00    +0.116 C 
ENDROOT
BRANCH   9  14
ATOM      4  O   UNL     1      -1.306   0.746  -2.154  0.00  0.00    -0.336 OA
ATOM      6  N   UNL     1      -0.792   1.518  -0.116  0.00  0.00    -0.194 NA
ATOM      7  N   UNL     1      -0.029   1.312  -2.263  0.00  0.00    -0.061 NA
ATOM     14  C   UNL     1      -1.681   0.910  -0.859  0.00  0.00    +0.245 A 
ATOM     16  C   UNL     1       0.204   1.745  -1.021  0.00  0.00    +0.176 A 
BRANCH  16  19
ATOM     19  C   UNL     1       1.454   2.421  -0.655  0.00  0.00    +0.116 C 
BRANCH  19  21
ATOM      1 CL   UNL     1       3.529   0.828  -2.314  0.00  0.00    -0.083 Cl
ATOM      2  F   UNL     1       5.133  -0.785   2.201  0.00  0.00    -0.205 F 
ATOM     21  C   UNL     1       2.460   1.547   0.087  0.00  0.00    -0.021 A 
ATOM     23  C   UNL     1       3.423   0.800  -0.592  0.00  0.00    +0.047 A 
ATOM     24  C   UNL     1       2.400   1.506   1.480  0.00  0.00    +0.008 A 
ATOM     25  C   UNL     1       4.326   0.013   0.122  0.00  0.00    +0.058 A 
ATOM     26  C   UNL     1       3.303   0.719   2.194  0.00  0.00    +0.039 A 
ATOM     27  C   UNL     1       4.266  -0.028   1.515  0.00  0.00    +0.125 A 
ENDBRANCH  19  21
ENDBRANCH  16  19
ENDBRANCH   9  14
BRANCH  11   3
ATOM      3  O   UNL     1      -5.803   1.327   1.636  0.00  0.00    -0.390 OA
ATOM     28  H   UNL     1      -5.875   2.296   1.590  0.00  0.00    +0.210 HD
ENDBRANCH  11   3
BRANCH   5  13
ATOM     13  C   UNL     1      -2.720  -1.971   0.158  0.00  0.00    +0.122 C 
BRANCH  13  15
ATOM      8  N   UNL     1       1.030  -2.186   0.631  0.00  0.00    -0.263 NA
ATOM     15  C   UNL     1      -1.261  -2.191  -0.142  0.00  0.00    -0.015 A 
ATOM     17  C   UNL     1      -0.841  -2.584  -1.408  0.00  0.00    +0.008 A 
ATOM     18  C   UNL     1      -0.295  -2.007   0.834  0.00  0.00    +0.115 A 
ATOM     20  C   UNL     1       0.514  -2.778  -1.655  0.00  0.00    +0.020 A 
ATOM     22  C   UNL     1       1.401  -2.568  -0.612  0.00  0.00    +0.111 A 
ENDBRANCH  13  15
ENDBRANCH   5  13
TORSDOF 6
