REMARK  Name = 26744570
REMARK  5 active torsions:
REMARK  status: ('A' for Active; 'I' for Inactive)
REMARK    1  A    between atoms: O_3  and  C_14
REMARK    2  A    between atoms: N_5  and  C_8
REMARK    3  A    between atoms: C_9  and  C_18
REMARK    4  A    between atoms: C_19  and  C_20
REMARK    5  A    between atoms: C_20  and  C_21
REMARK                            x       y       z     vdW  Elec       q    Type
REMARK                         _______ _______ _______ _____ _____    ______ ____
ROOT
ATOM      4  O   UNL     1      -0.884   2.148  -1.780  0.00  0.00    -0.336 OA
ATOM      6  N   UNL     1      -0.290   1.462   0.267  0.00  0.00    -0.194 NA
ATOM      7  N   UNL     1       0.417   2.623  -1.573  0.00  0.00    -0.061 NA
ATOM     18  C   UNL     1      -1.225   1.476  -0.650  0.00  0.00    +0.245 A 
ATOM     19  C   UNL     1       0.697   2.177  -0.344  0.00  0.00    +0.176 A 
ENDROOT
BRANCH  18   9
ATOM      5  N   UNL     1      -2.680  -0.329   0.258  0.00  0.00    -0.286 NA
ATOM      9  C   UNL     1      -2.606   0.856  -0.622  0.00  0.00    +0.149 C 
ATOM     10  C   UNL     1      -4.053  -0.389   0.755  0.00  0.00    +0.116 C 
ATOM     13  C   UNL     1      -3.680   1.817  -0.080  0.00  0.00    +0.061 C 
ATOM     14  C   UNL     1      -4.334   1.067   1.074  0.00  0.00    +0.130 C 
BRANCH   5   8
ATOM      8  C   UNL     1      -2.280  -1.567  -0.408  0.00  0.00    +0.058 C 
ATOM     11  C   UNL     1      -0.837  -1.447  -0.908  0.00  0.00    +0.019 C 
ATOM     12  C   UNL     1      -2.436  -2.749   0.555  0.00  0.00    +0.019 C 
ATOM     15  C   UNL     1      -0.358  -2.752  -1.543  0.00  0.00    +0.002 C 
ATOM     16  C   UNL     1      -1.955  -4.052  -0.082  0.00  0.00    +0.002 C 
ATOM     17  C   UNL     1      -0.522  -3.934  -0.592  0.00  0.00    +0.000 C 
ENDBRANCH   5   8
BRANCH  14   3
ATOM      3  O   UNL     1      -5.722   1.335   1.123  0.00  0.00    -0.390 OA
ATOM     27  H   UNL     1      -5.830   2.292   1.254  0.00  0.00    +0.210 HD
ENDBRANCH  14   3
ENDBRANCH  18   9
BRANCH  19  20
ATOM     20  C   UNL     1       1.987   2.442   0.302  0.00  0.00    +0.116 C 
BRANCH  20  21
ATOM      1 CL   UNL     1       1.913   0.436   2.662  0.00  0.00    -0.083 Cl
ATOM      2  F   UNL     1       5.643  -1.869   0.146  0.00  0.00    -0.205 F 
ATOM     21  C   UNL     1       2.962   1.268   0.288  0.00  0.00    -0.021 A 
ATOM     22  C   UNL     1       2.988   0.326   1.316  0.00  0.00    +0.047 A 
ATOM     23  C   UNL     1       3.841   1.151  -0.788  0.00  0.00    +0.008 A 
ATOM     24  C   UNL     1       3.893  -0.734   1.268  0.00  0.00    +0.058 A 
ATOM     25  C   UNL     1       4.747   0.091  -0.836  0.00  0.00    +0.039 A 
ATOM     26  C   UNL     1       4.773  -0.852   0.192  0.00  0.00    +0.125 A 
ENDBRANCH  20  21
ENDBRANCH  19  20
TORSDOF 5
