REMARK  Name = 28960549
REMARK  6 active torsions:
REMARK  status: ('A' for Active; 'I' for Inactive)
REMARK    1  A    between atoms: O_3  and  C_12
REMARK    2  A    between atoms: N_6  and  C_11
REMARK    3  A    between atoms: N_7  and  C_13
REMARK    4  A    between atoms: N_9  and  C_24
REMARK    5  A    between atoms: C_21  and  C_22
REMARK    6  A    between atoms: C_27  and  C_30
REMARK                            x       y       z     vdW  Elec       q    Type
REMARK                         _______ _______ _______ _____ _____    ______ ____
ROOT
ATOM      1  O   UNL     1       2.692  -1.544   1.764  0.00  0.00    -0.342 OA
ATOM      2  O   UNL     1       4.257  -2.742   0.541  0.00  0.00    -0.347 OA
ATOM     11  C   UNL     1       3.144  -0.867  -0.506  0.00  0.00    +0.143 C 
ATOM     12  C   UNL     1       2.024  -1.795  -1.027  0.00  0.00    +0.159 C 
ATOM     13  C   UNL     1       1.222  -2.483   0.099  0.00  0.00    +0.136 C 
ATOM     14  C   UNL     1       3.745  -1.424   0.798  0.00  0.00    +0.270 C 
ATOM     15  C   UNL     1       2.065  -2.766   1.360  0.00  0.00    +0.170 C 
ATOM     16  C   UNL     1       3.285  -3.632   1.109  0.00  0.00    +0.196 C 
ENDROOT
BRANCH  13   7
ATOM      5  O   UNL     1      -1.373  -2.601  -1.106  0.00  0.00    -0.252 OA
ATOM      7  N   UNL     1       0.069  -1.683   0.451  0.00  0.00    -0.291 N 
ATOM      9  N   UNL     1      -2.087  -0.909   0.357  0.00  0.00    -0.269 N 
ATOM     23  C   UNL     1      -1.166  -1.806  -0.192  0.00  0.00    +0.304 C 
ATOM     31  H   UNL     1       0.185  -0.948   1.142  0.00  0.00    +0.151 HD
ATOM     35  H   UNL     1      -1.752  -0.317   1.113  0.00  0.00    +0.156 HD
BRANCH   9  24
ATOM     24  C   UNL     1      -3.439  -0.720  -0.010  0.00  0.00    +0.036 A 
ATOM     25  C   UNL     1      -4.216   0.231   0.652  0.00  0.00    +0.042 A 
ATOM     26  C   UNL     1      -3.996  -1.484  -1.036  0.00  0.00    +0.023 A 
ATOM     27  C   UNL     1      -5.550   0.417   0.290  0.00  0.00    +0.054 A 
ATOM     28  C   UNL     1      -5.330  -1.298  -1.399  0.00  0.00    +0.003 A 
ATOM     29  C   UNL     1      -6.107  -0.347  -0.736  0.00  0.00    +0.019 A 
BRANCH  27  30
ATOM     10  N   UNL     1      -6.993   2.180   1.520  0.00  0.00    -0.191 NA
ATOM     30  C   UNL     1      -6.346   1.390   0.969  0.00  0.00    +0.099 C 
ENDBRANCH  27  30
ENDBRANCH   9  24
ENDBRANCH  13   7
BRANCH  11   6
ATOM      6  N   UNL     1       2.616   0.479  -0.272  0.00  0.00    -0.293 NA
ATOM     17  C   UNL     1       3.503   1.230   0.627  0.00  0.00    +0.085 C 
ATOM     18  C   UNL     1       2.430   1.186  -1.547  0.00  0.00    +0.085 C 
ATOM     19  C   UNL     1       2.937   2.620   0.925  0.00  0.00    +0.028 C 
ATOM     20  C   UNL     1       1.828   2.575  -1.325  0.00  0.00    +0.028 C 
ATOM     21  C   UNL     1       2.680   3.401  -0.363  0.00  0.00    +0.077 C 
BRANCH  21  22
ATOM      4  O   UNL     1       1.219   4.808   0.898  0.00  0.00    -0.276 OA
ATOM      8  N   UNL     1       2.268   5.699  -0.945  0.00  0.00    -0.329 N 
ATOM     22  C   UNL     1       1.983   4.690  -0.056  0.00  0.00    +0.214 C 
ATOM     33  H   UNL     1       2.894   5.571  -1.734  0.00  0.00    +0.145 HD
ATOM     34  H   UNL     1       1.850   6.618  -0.842  0.00  0.00    +0.145 HD
ENDBRANCH  21  22
ENDBRANCH  11   6
BRANCH  12   3
ATOM      3  O   UNL     1       2.636  -2.805  -1.840  0.00  0.00    -0.388 OA
ATOM     32  H   UNL     1       1.925  -3.353  -2.214  0.00  0.00    +0.210 HD
ENDBRANCH  12   3
TORSDOF 6
