REMARK  Name = 40777113
REMARK  6 active torsions:
REMARK  status: ('A' for Active; 'I' for Inactive)
REMARK    1  A    between atoms: N_5  and  C_15
REMARK    2  A    between atoms: C_9  and  C_16
REMARK    3  A    between atoms: C_10  and  C_15
REMARK    4  A    between atoms: C_18  and  C_21
REMARK    5  A    between atoms: C_19  and  C_22
REMARK    6  A    between atoms: C_20  and  C_23
REMARK                            x       y       z     vdW  Elec       q    Type
REMARK                         _______ _______ _______ _____ _____    ______ ____
ROOT
ATOM      4  N   UNL     1       1.195   2.567   1.206  0.00  0.00    -0.297 NA
ATOM      8  C   UNL     1       0.648   2.336  -1.330  0.00  0.00    +0.002 C 
ATOM      9  C   UNL     1      -0.632   2.121  -0.476  0.00  0.00    +0.055 C 
ATOM     10  C   UNL     1       2.160   1.638   0.560  0.00  0.00    +0.074 C 
ATOM     11  C   UNL     1       1.730   1.328  -0.890  0.00  0.00    +0.024 C 
ATOM     12  C   UNL     1       1.177   3.746  -0.992  0.00  0.00    +0.019 C 
ATOM     13  C   UNL     1      -0.192   2.072   1.015  0.00  0.00    +0.094 C 
ATOM     14  C   UNL     1       1.313   3.884   0.535  0.00  0.00    +0.085 C 
ENDROOT
BRANCH   9  16
ATOM      6  N   UNL     1      -1.183   0.202  -1.888  0.00  0.00    -0.237 NA
ATOM      7  N   UNL     1      -3.174  -1.112  -1.549  0.00  0.00    -0.232 NA
ATOM     16  C   UNL     1      -1.556   0.969  -0.843  0.00  0.00    +0.050 A 
ATOM     17  C   UNL     1      -2.708   0.760  -0.111  0.00  0.00    +0.052 A 
ATOM     18  C   UNL     1      -3.486  -0.305  -0.514  0.00  0.00    +0.076 A 
ATOM     19  C   UNL     1      -2.026  -0.806  -2.183  0.00  0.00    +0.127 A 
ATOM     22  C   UNL     1      -1.649  -1.675  -3.335  0.00  0.00    +0.088 C 
BRANCH  18  21
ATOM      1 BR   UNL     1      -3.192  -2.352   1.927  0.00  0.00    -0.050 Br
ATOM     21  C   UNL     1      -4.717  -0.629   0.167  0.00  0.00    +0.014 A 
ATOM     24  C   UNL     1      -4.754  -1.506   1.251  0.00  0.00    +0.027 A 
ATOM     25  C   UNL     1      -5.893  -0.034  -0.290  0.00  0.00    +0.011 A 
ATOM     27  C   UNL     1      -5.968  -1.788   1.879  0.00  0.00    +0.016 A 
ATOM     28  C   UNL     1      -7.107  -0.317   0.337  0.00  0.00    +0.001 A 
ATOM     31  C   UNL     1      -7.144  -1.194   1.422  0.00  0.00    +0.001 A 
ENDBRANCH  18  21
ENDBRANCH   9  16
BRANCH  10  15
ATOM     15  C   UNL     1       2.376   0.362   1.376  0.00  0.00    +0.123 C 
BRANCH  15   5
ATOM      2  O   UNL     1       5.191   0.463   1.935  0.00  0.00    -0.267 OA
ATOM      5  N   UNL     1       3.393  -0.454   0.788  0.00  0.00    -0.307 N 
ATOM     20  C   UNL     1       4.743  -0.338   1.119  0.00  0.00    +0.279 C 
ATOM     32  H   UNL     1       3.116  -1.140   0.093  0.00  0.00    +0.149 HD
BRANCH  20  23
ATOM      3  O   UNL     1       5.155  -2.099  -0.515  0.00  0.00    -0.458 OA
ATOM     23  C   UNL     1       5.678  -1.241   0.399  0.00  0.00    +0.189 A 
ATOM     26  C   UNL     1       7.043  -1.390   0.477  0.00  0.00    +0.054 A 
ATOM     29  C   UNL     1       7.380  -2.405  -0.450  0.00  0.00    +0.042 A 
ATOM     30  C   UNL     1       6.197  -2.804  -1.028  0.00  0.00    +0.196 A 
ENDBRANCH  20  23
ENDBRANCH  15   5
ENDBRANCH  10  15
TORSDOF 5
