REMARK  Name = 75368621
REMARK  8 active torsions:
REMARK  status: ('A' for Active; 'I' for Inactive)
REMARK    1  A    between atoms: O_2  and  C_17
REMARK    2  A    between atoms: O_2  and  C_27
REMARK    3  A    between atoms: O_3  and  C_26
REMARK    4  A    between atoms: O_3  and  C_28
REMARK    5  A    between atoms: N_5  and  C_13
REMARK    6  A    between atoms: N_6  and  C_14
REMARK    7  A    between atoms: C_13  and  C_15
REMARK    8  A    between atoms: C_14  and  C_16
REMARK                            x       y       z     vdW  Elec       q    Type
REMARK                         _______ _______ _______ _____ _____    ______ ____
ROOT
ATOM      1  O   UNL     1       1.979   3.303   0.240  0.00  0.00    -0.252 OA
ATOM      4  N   UNL     1       0.022   2.025   0.005  0.00  0.00    -0.278 N 
ATOM      5  N   UNL     1      -2.294   0.610   0.744  0.00  0.00    -0.295 NA
ATOM      6  N   UNL     1       1.831   1.430  -1.187  0.00  0.00    -0.279 N 
ATOM      7  C   UNL     1      -0.439   0.942  -0.839  0.00  0.00    +0.109 C 
ATOM      8  C   UNL     1      -1.228  -0.075  -0.016  0.00  0.00    +0.109 C 
ATOM      9  C   UNL     1       0.844   0.402  -1.468  0.00  0.00    +0.133 C 
ATOM     10  C   UNL     1      -0.912   2.671   0.903  0.00  0.00    +0.125 C 
ATOM     11  C   UNL     1      -1.722   1.616   1.662  0.00  0.00    +0.104 C 
ATOM     12  C   UNL     1       1.355   2.373  -0.254  0.00  0.00    +0.305 C 
ENDROOT
BRANCH   5  13
ATOM     13  C   UNL     1      -3.094  -0.362   1.488  0.00  0.00    +0.123 C 
BRANCH  13  15
ATOM     15  C   UNL     1      -4.061  -1.091   0.601  0.00  0.00    +0.008 A 
ATOM     17  C   UNL     1      -5.222  -0.465   0.146  0.00  0.00    +0.124 A 
ATOM     18  C   UNL     1      -3.789  -2.408   0.232  0.00  0.00    +0.008 A 
ATOM     21  C   UNL     1      -6.110  -1.156  -0.678  0.00  0.00    +0.046 A 
ATOM     22  C   UNL     1      -4.677  -3.100  -0.592  0.00  0.00    +0.001 A 
ATOM     25  C   UNL     1      -5.838  -2.474  -1.047  0.00  0.00    +0.004 A 
BRANCH  17   2
ATOM      2  O   UNL     1      -5.503   0.822   0.496  0.00  0.00    -0.495 OA
ATOM     27  C   UNL     1      -6.711   1.382  -0.014  0.00  0.00    +0.277 C 
ENDBRANCH  17   2
ENDBRANCH  13  15
ENDBRANCH   5  13
BRANCH   6  14
ATOM     14  C   UNL     1       3.178   1.364  -1.709  0.00  0.00    +0.144 C 
BRANCH  14  16
ATOM     16  C   UNL     1       4.051   0.451  -0.896  0.00  0.00    -0.030 A 
ATOM     19  C   UNL     1       4.381  -0.813  -1.384  0.00  0.00    +0.009 A 
ATOM     20  C   UNL     1       4.531   0.867   0.345  0.00  0.00    +0.009 A 
ATOM     23  C   UNL     1       5.192  -1.662  -0.629  0.00  0.00    +0.046 A 
ATOM     24  C   UNL     1       5.341   0.019   1.100  0.00  0.00    +0.046 A 
ATOM     26  C   UNL     1       5.672  -1.245   0.612  0.00  0.00    +0.120 A 
BRANCH  26   3
ATOM      3  O   UNL     1       6.462  -2.073   1.349  0.00  0.00    -0.495 OA
ATOM     28  C   UNL     1       6.761  -3.352   0.790  0.00  0.00    +0.277 C 
ENDBRANCH  26   3
ENDBRANCH  14  16
ENDBRANCH   6  14
TORSDOF 6
