REMARK  Name = 75368475
REMARK  2 active torsions:
REMARK  status: ('A' for Active; 'I' for Inactive)
REMARK    1  A    between atoms: N_5  and  C_14
REMARK    2  A    between atoms: C_15  and  C_16
REMARK                            x       y       z     vdW  Elec       q    Type
REMARK                         _______ _______ _______ _____ _____    ______ ____
ROOT
ATOM      1  O   UNL     1      -4.641  -0.795  -0.214  0.00  0.00    -0.252 OA
ATOM      2  O   UNL     1       2.135  -2.494  -0.260  0.00  0.00    -0.268 OA
ATOM      3  N   UNL     1      -2.307  -0.537  -0.255  0.00  0.00    -0.278 N 
ATOM      4  N   UNL     1       0.350  -1.106   0.329  0.00  0.00    -0.293 N 
ATOM      5  N   UNL     1      -3.573   1.280   0.124  0.00  0.00    -0.287 N 
ATOM      8  C   UNL     1      -1.361   0.566  -0.212  0.00  0.00    +0.112 C 
ATOM      9  C   UNL     1      -0.188   0.218   0.698  0.00  0.00    +0.132 C 
ATOM     10  C   UNL     1      -2.205   1.748   0.256  0.00  0.00    +0.133 C 
ATOM     11  C   UNL     1      -1.833  -1.886  -0.515  0.00  0.00    +0.128 C 
ATOM     12  C   UNL     1      -0.631  -2.199   0.375  0.00  0.00    +0.127 C 
ATOM     13  C   UNL     1      -3.634  -0.105  -0.130  0.00  0.00    +0.305 C 
ATOM     14  C   UNL     1      -4.706   2.145   0.367  0.00  0.00    +0.133 C 
ATOM     15  C   UNL     1       1.679  -1.383   0.004  0.00  0.00    +0.267 C 
ENDROOT
BRANCH  15  16
ATOM      6  N   UNL     1       2.358   0.719  -0.927  0.00  0.00    -0.247 NA
ATOM      7  N   UNL     1       4.614   0.797   0.738  0.00  0.00    -0.259 NA
ATOM     16  C   UNL     1       2.627  -0.263  -0.043  0.00  0.00    +0.144 A 
ATOM     17  C   UNL     1       3.735  -0.224   0.774  0.00  0.00    +0.143 A 
ATOM     18  C   UNL     1       3.236   1.741  -0.963  0.00  0.00    +0.131 A 
ATOM     19  C   UNL     1       4.344   1.779  -0.145  0.00  0.00    +0.130 A 
ENDBRANCH  15  16
TORSDOF 1
