REMARK  Name = 51137113
REMARK  3 active torsions:
REMARK  status: ('A' for Active; 'I' for Inactive)
REMARK    1  A    between atoms: N_3  and  C_11
REMARK    2  A    between atoms: C_6  and  C_10
REMARK    3  A    between atoms: C_11  and  C_12
REMARK                            x       y       z     vdW  Elec       q    Type
REMARK                         _______ _______ _______ _____ _____    ______ ____
ROOT
ATOM      3  N   UNL     1      -1.039  -0.420  -0.165  0.00  0.00    -0.297 NA
ATOM      6  C   UNL     1       1.160  -0.832   0.539  0.00  0.00    +0.070 C 
ATOM      7  C   UNL     1       0.420  -0.016   1.613  0.00  0.00    +0.028 C 
ATOM      8  C   UNL     1       0.288  -0.702  -0.717  0.00  0.00    +0.096 C 
ATOM      9  C   UNL     1      -0.804   0.550   0.905  0.00  0.00    +0.085 C 
ENDROOT
BRANCH   6  10
ATOM      4  N   UNL     1       3.626  -1.299   0.491  0.00  0.00    -0.342 N 
ATOM      5  N   UNL     1       3.021   0.761  -0.084  0.00  0.00    -0.232 NA
ATOM     10  C   UNL     1       2.595  -0.420   0.305  0.00  0.00    +0.113 A 
ATOM     13  C   UNL     1       4.794  -0.642   0.203  0.00  0.00    +0.066 A 
ATOM     14  C   UNL     1       4.390   0.642  -0.153  0.00  0.00    +0.089 A 
ATOM     17  C   UNL     1       6.129  -1.047   0.223  0.00  0.00    +0.028 A 
ATOM     18  C   UNL     1       5.362   1.591  -0.513  0.00  0.00    +0.030 A 
ATOM     19  C   UNL     1       7.083  -0.090  -0.138  0.00  0.00    +0.002 A 
ATOM     20  C   UNL     1       6.709   1.206  -0.500  0.00  0.00    +0.002 A 
ATOM     24  H   UNL     1       3.545  -2.263   0.788  0.00  0.00    +0.167 HD
ENDBRANCH   6  10
BRANCH   3  11
ATOM     11  C   UNL     1      -1.965   0.077  -1.171  0.00  0.00    +0.119 C 
BRANCH  11  12
ATOM      1  F   UNL     1      -6.090   2.041   0.547  0.00  0.00    -0.202 F 
ATOM      2  F   UNL     1      -7.327  -0.397   0.495  0.00  0.00    -0.202 F 
ATOM     12  C   UNL     1      -3.398  -0.050  -0.726  0.00  0.00    -0.030 A 
ATOM     15  C   UNL     1      -4.094   1.077  -0.287  0.00  0.00    +0.046 A 
ATOM     16  C   UNL     1      -4.029  -1.293  -0.752  0.00  0.00    +0.008 A 
ATOM     21  C   UNL     1      -5.421   0.959   0.126  0.00  0.00    +0.159 A 
ATOM     22  C   UNL     1      -5.356  -1.411  -0.340  0.00  0.00    +0.041 A 
ATOM     23  C   UNL     1      -6.053  -0.284   0.099  0.00  0.00    +0.158 A 
ENDBRANCH  11  12
ENDBRANCH   3  11
TORSDOF 3
