REMARK  Name = 56775566
REMARK  6 active torsions:
REMARK  status: ('A' for Active; 'I' for Inactive)
REMARK    1  A    between atoms: N_4  and  C_6
REMARK    2  A    between atoms: N_4  and  C_10
REMARK    3  A    between atoms: C_6  and  C_9
REMARK    4  A    between atoms: C_9  and  C_11
REMARK    5  A    between atoms: C_10  and  C_12
REMARK    6  A    between atoms: C_14  and  C_17
REMARK                            x       y       z     vdW  Elec       q    Type
REMARK                         _______ _______ _______ _____ _____    ______ ____
ROOT
ATOM      2  O   UNL     1      -2.351   3.647   1.155  0.00  0.00    -0.376 OA
ATOM      6  C   UNL     1      -1.364   2.177  -0.038  0.00  0.00    +0.072 C 
ATOM      7  C   UNL     1      -2.627   3.027  -0.122  0.00  0.00    +0.184 C 
ATOM      8  C   UNL     1      -1.092   2.942   1.253  0.00  0.00    +0.184 C 
ENDROOT
BRANCH   6   4
ATOM      4  N   UNL     1      -1.740   0.810   0.297  0.00  0.00    -0.302 NA
ATOM     26  H   UNL     1      -0.976   0.198   0.577  0.00  0.00    +0.123 HD
BRANCH   4  10
ATOM     10  C   UNL     1      -2.486   0.218  -0.811  0.00  0.00    +0.118 C 
BRANCH  10  12
ATOM      1 CL   UNL     1      -1.204  -2.511  -0.141  0.00  0.00    -0.083 Cl
ATOM     12  C   UNL     1      -3.389  -0.894  -0.347  0.00  0.00    -0.015 A 
ATOM     15  C   UNL     1      -2.889  -2.156  -0.025  0.00  0.00    +0.045 A 
ATOM     16  C   UNL     1      -4.756  -0.638  -0.243  0.00  0.00    +0.006 A 
ATOM     18  C   UNL     1      -3.757  -3.162   0.401  0.00  0.00    +0.020 A 
ATOM     19  C   UNL     1      -5.623  -1.643   0.183  0.00  0.00    +0.000 A 
ATOM     20  C   UNL     1      -5.124  -2.905   0.505  0.00  0.00    +0.001 A 
ENDBRANCH  10  12
ENDBRANCH   4  10
ENDBRANCH   6   4
BRANCH   6   9
ATOM      9  C   UNL     1      -0.338   2.253  -1.177  0.00  0.00    +0.085 C 
BRANCH   9  11
ATOM      3  O   UNL     1       2.972   1.782   0.081  0.00  0.00    -0.354 OA
ATOM      5  N   UNL     1       1.869   2.576  -0.207  0.00  0.00    -0.083 NA
ATOM     11  C   UNL     1       0.973   1.744  -0.745  0.00  0.00    +0.086 A 
ATOM     13  C   UNL     1       1.451   0.424  -0.822  0.00  0.00    +0.076 A 
ATOM     14  C   UNL     1       2.711   0.502  -0.290  0.00  0.00    +0.167 A 
BRANCH  14  17
ATOM     17  C   UNL     1       3.770  -0.447  -0.050  0.00  0.00    +0.020 A 
ATOM     21  C   UNL     1       3.596  -1.788  -0.394  0.00  0.00    +0.011 A 
ATOM     22  C   UNL     1       4.968  -0.025   0.526  0.00  0.00    +0.011 A 
ATOM     23  C   UNL     1       4.620  -2.706  -0.162  0.00  0.00    +0.001 A 
ATOM     24  C   UNL     1       5.992  -0.943   0.759  0.00  0.00    +0.001 A 
ATOM     25  C   UNL     1       5.818  -2.284   0.414  0.00  0.00    +0.000 A 
ENDBRANCH  14  17
ENDBRANCH   9  11
ENDBRANCH   6   9
TORSDOF 6
