REMARK  Name = 51136816
REMARK  7 active torsions:
REMARK  status: ('A' for Active; 'I' for Inactive)
REMARK    1  A    between atoms: N_3  and  C_13
REMARK    2  A    between atoms: C_9  and  C_14
REMARK    3  A    between atoms: C_13  and  C_15
REMARK    4  A    between atoms: C_15  and  C_16
REMARK    5  A    between atoms: C_16  and  C_22
REMARK    6  A    between atoms: C_21  and  C_24
REMARK    7  A    between atoms: C_26  and  C_31
REMARK                            x       y       z     vdW  Elec       q    Type
REMARK                         _______ _______ _______ _____ _____    ______ ____
ROOT
ATOM      1  O   UNL     1      -4.530   2.133  -0.224  0.00  0.00    -0.336 OA
ATOM      4  N   UNL     1      -2.552   1.086  -0.132  0.00  0.00    -0.190 NA
ATOM      7  N   UNL     1      -3.559   3.140  -0.162  0.00  0.00    -0.056 NA
ATOM     14  C   UNL     1      -3.853   0.955  -0.201  0.00  0.00    +0.245 A 
ATOM     21  C   UNL     1      -2.419   2.444  -0.110  0.00  0.00    +0.202 A 
ENDROOT
BRANCH  21  24
ATOM      2  O   UNL     1       5.976  -1.261   1.111  0.00  0.00    -0.276 OA
ATOM      5  N   UNL     1       2.388   2.169   0.141  0.00  0.00    -0.312 N 
ATOM      6  N   UNL     1       4.739   0.481   0.198  0.00  0.00    -0.299 N 
ATOM      8  N   UNL     1       1.375   4.302   0.110  0.00  0.00    -0.240 NA
ATOM     17  C   UNL     1       2.364   0.856   0.792  0.00  0.00    +0.125 C 
ATOM     18  C   UNL     1       3.658   2.643  -0.415  0.00  0.00    +0.125 C 
ATOM     19  C   UNL     1       3.758   0.470   1.280  0.00  0.00    +0.126 C 
ATOM     20  C   UNL     1       4.525   1.467  -0.864  0.00  0.00    +0.126 C 
ATOM     23  C   UNL     1       1.241   2.957   0.088  0.00  0.00    +0.122 A 
ATOM     24  C   UNL     1      -1.131   3.075  -0.035  0.00  0.00    +0.027 A 
ATOM     25  C   UNL     1       0.023   2.301   0.017  0.00  0.00    +0.055 A 
ATOM     26  C   UNL     1       5.795  -0.430   0.218  0.00  0.00    +0.213 C 
ATOM     29  C   UNL     1      -1.034   4.462  -0.015  0.00  0.00    +0.031 A 
ATOM     30  C   UNL     1       0.232   5.021   0.058  0.00  0.00    +0.113 A 
ATOM     31  C   UNL     1       6.759  -0.359  -0.942  0.00  0.00    +0.109 C 
ENDBRANCH  21  24
BRANCH  14   9
ATOM      3  N   UNL     1      -3.874  -1.533  -0.167  0.00  0.00    -0.291 NA
ATOM      9  C   UNL     1      -4.689  -0.305  -0.260  0.00  0.00    +0.146 C 
ATOM     10  C   UNL     1      -5.688  -0.411   0.907  0.00  0.00    +0.030 C 
ATOM     11  C   UNL     1      -4.723  -2.547   0.458  0.00  0.00    +0.085 C 
ATOM     12  C   UNL     1      -5.398  -1.755   1.559  0.00  0.00    +0.017 C 
BRANCH   3  13
ATOM     13  C   UNL     1      -3.350  -1.973  -1.454  0.00  0.00    +0.085 C 
BRANCH  13  15
ATOM     15  C   UNL     1      -2.172  -2.924  -1.250  0.00  0.00    +0.020 C 
BRANCH  15  16
ATOM     16  C   UNL     1      -1.030  -2.234  -0.500  0.00  0.00    +0.036 C 
BRANCH  16  22
ATOM     22  C   UNL     1       0.126  -3.171  -0.258  0.00  0.00    -0.047 A 
ATOM     27  C   UNL     1       0.170  -3.938   0.907  0.00  0.00    +0.003 A 
ATOM     28  C   UNL     1       1.150  -3.272  -1.199  0.00  0.00    +0.003 A 
ATOM     32  C   UNL     1       1.239  -4.805   1.130  0.00  0.00    +0.000 A 
ATOM     33  C   UNL     1       2.220  -4.139  -0.975  0.00  0.00    +0.000 A 
ATOM     34  C   UNL     1       2.264  -4.906   0.189  0.00  0.00    +0.000 A 
ENDBRANCH  16  22
ENDBRANCH  15  16
ENDBRANCH  13  15
ENDBRANCH   3  13
ENDBRANCH  14   9
TORSDOF 6
