REMARK  Name = 26742374
REMARK  10 active torsions:
REMARK  status: ('A' for Active; 'I' for Inactive)
REMARK    1  A    between atoms: S_1  and  C_23
REMARK    2  A    between atoms: S_1  and  C_29
REMARK    3  A    between atoms: O_3  and  C_31
REMARK    4  A    between atoms: N_6  and  C_16
REMARK    5  A    between atoms: C_10  and  C_17
REMARK    6  A    between atoms: C_11  and  C_16
REMARK    7  A    between atoms: C_19  and  C_22
REMARK    8  A    between atoms: C_20  and  C_23
REMARK    9  A    between atoms: C_21  and  C_24
REMARK   10  A    between atoms: C_29  and  C_31
REMARK                            x       y       z     vdW  Elec       q    Type
REMARK                         _______ _______ _______ _____ _____    ______ ____
ROOT
ATOM      5  N   UNL     1      -0.918   2.152   1.525  0.00  0.00    -0.297 NA
ATOM      9  C   UNL     1      -0.653  -0.399   1.975  0.00  0.00    +0.002 C 
ATOM     10  C   UNL     1       0.737   0.263   1.762  0.00  0.00    +0.055 C 
ATOM     11  C   UNL     1      -1.829   1.382   0.637  0.00  0.00    +0.074 C 
ATOM     12  C   UNL     1      -1.540  -0.131   0.741  0.00  0.00    +0.024 C 
ATOM     13  C   UNL     1      -1.310   0.321   3.171  0.00  0.00    +0.019 C 
ATOM     14  C   UNL     1       0.486   1.728   1.302  0.00  0.00    +0.094 C 
ATOM     15  C   UNL     1      -1.280   1.840   2.928  0.00  0.00    +0.085 C 
ENDROOT
BRANCH  10  17
ATOM      7  N   UNL     1       1.351  -1.621   0.329  0.00  0.00    -0.237 NA
ATOM      8  N   UNL     1       3.518  -1.788  -0.714  0.00  0.00    -0.232 NA
ATOM     17  C   UNL     1       1.747  -0.454   0.878  0.00  0.00    +0.050 A 
ATOM     18  C   UNL     1       2.995   0.102   0.681  0.00  0.00    +0.052 A 
ATOM     19  C   UNL     1       3.847  -0.617  -0.132  0.00  0.00    +0.075 A 
ATOM     21  C   UNL     1       2.273  -2.226  -0.445  0.00  0.00    +0.127 A 
ATOM     24  C   UNL     1       1.873  -3.520  -1.069  0.00  0.00    +0.088 C 
BRANCH  19  22
ATOM     22  C   UNL     1       5.181  -0.144  -0.417  0.00  0.00    +0.000 A 
ATOM     25  C   UNL     1       5.365   1.088  -1.045  0.00  0.00    +0.010 A 
ATOM     26  C   UNL     1       6.285  -0.919  -0.063  0.00  0.00    +0.010 A 
ATOM     27  C   UNL     1       6.654   1.545  -1.319  0.00  0.00    +0.001 A 
ATOM     28  C   UNL     1       7.574  -0.462  -0.338  0.00  0.00    +0.001 A 
ATOM     30  C   UNL     1       7.759   0.770  -0.966  0.00  0.00    +0.000 A 
ENDBRANCH  19  22
ENDBRANCH  10  17
BRANCH  11  16
ATOM     16  C   UNL     1      -1.786   1.874  -0.811  0.00  0.00    +0.123 C 
BRANCH  16   6
ATOM      2  O   UNL     1      -4.530   2.660  -1.288  0.00  0.00    -0.275 OA
ATOM      6  N   UNL     1      -2.755   1.192  -1.611  0.00  0.00    -0.313 N 
ATOM     20  C   UNL     1      -4.063   1.640  -1.790  0.00  0.00    +0.223 C 
ATOM     32  H   UNL     1      -2.466   0.329  -2.063  0.00  0.00    +0.149 HD
BRANCH  20  23
ATOM     23  C   UNL     1      -4.895   0.733  -2.665  0.00  0.00    +0.165 C 
BRANCH  23   1
ATOM      1  S   UNL     1      -6.329   0.162  -1.722  0.00  0.00    -0.140 S 
BRANCH   1  29
ATOM     29  C   UNL     1      -5.524  -1.150  -0.773  0.00  0.00    +0.189 C 
BRANCH  29  31
ATOM      4  O   UNL     1      -7.724  -1.900  -0.139  0.00  0.00    -0.250 OA
ATOM     31  C   UNL     1      -6.532  -1.809   0.123  0.00  0.00    +0.315 C 
BRANCH  31   3
ATOM      3  O   UNL     1      -5.978  -2.311   1.256  0.00  0.00    -0.480 OA
ATOM     33  H   UNL     1      -6.645  -2.744   1.829  0.00  0.00    +0.295 HD
ENDBRANCH  31   3
ENDBRANCH  29  31
ENDBRANCH   1  29
ENDBRANCH  23   1
ENDBRANCH  20  23
ENDBRANCH  16   6
ENDBRANCH  11  16
TORSDOF 9
