REMARK  Name = 11885154
REMARK  2 active torsions:
REMARK  status: ('A' for Active; 'I' for Inactive)
REMARK    1  A    between atoms: N_6  and  C_21
REMARK    2  A    between atoms: C_17  and  C_19
REMARK                            x       y       z     vdW  Elec       q    Type
REMARK                         _______ _______ _______ _____ _____    ______ ____
ROOT
ATOM      2  O   UNL     1       0.580  -1.355  -1.999  0.00  0.00    -0.267 OA
ATOM      3  O   UNL     1      -3.050   0.790   1.974  0.00  0.00    -0.252 OA
ATOM      4  N   UNL     1      -1.106  -2.190  -0.621  0.00  0.00    -0.311 N 
ATOM      5  N   UNL     1      -3.771  -0.785   0.439  0.00  0.00    -0.284 N 
ATOM      6  N   UNL     1      -3.550   1.480  -0.183  0.00  0.00    -0.269 N 
ATOM      7  C   UNL     1      -3.525  -2.457  -1.411  0.00  0.00    +0.027 C 
ATOM      8  C   UNL     1      -2.917  -3.081   0.886  0.00  0.00    +0.054 C 
ATOM      9  C   UNL     1      -3.595  -3.582  -0.387  0.00  0.00    +0.018 C 
ATOM     10  C   UNL     1      -2.052  -2.187  -1.744  0.00  0.00    +0.130 C 
ATOM     11  C   UNL     1      -4.239  -1.192  -0.895  0.00  0.00    +0.114 C 
ATOM     12  C   UNL     1      -3.695  -1.869   1.427  0.00  0.00    +0.119 C 
ATOM     13  C   UNL     1      -1.473  -2.693   0.629  0.00  0.00    +0.027 A 
ATOM     14  C   UNL     1      -0.560  -2.800   1.607  0.00  0.00    +0.022 A 
ATOM     15  C   UNL     1       0.209  -1.768  -0.899  0.00  0.00    +0.259 A 
ATOM     16  C   UNL     1      -3.419   0.527   0.827  0.00  0.00    +0.306 C 
ATOM     17  C   UNL     1       1.201  -1.861   0.229  0.00  0.00    +0.047 A 
ATOM     18  C   UNL     1       0.795  -2.371   1.402  0.00  0.00    +0.015 A 
ATOM     35  H   UNL     1      -4.237   1.316  -0.911  0.00  0.00    +0.156 HD
ENDROOT
BRANCH  17  19
ATOM     19  C   UNL     1       2.589  -1.396   0.065  0.00  0.00    -0.012 A 
ATOM     20  C   UNL     1       2.922  -0.072   0.355  0.00  0.00    +0.017 A 
ATOM     22  C   UNL     1       3.571  -2.278  -0.378  0.00  0.00    +0.009 A 
ATOM     23  C   UNL     1       4.241   0.386   0.204  0.00  0.00    -0.017 A 
ATOM     24  C   UNL     1       4.886  -1.841  -0.534  0.00  0.00    +0.009 A 
ATOM     25  C   UNL     1       5.238  -0.511  -0.247  0.00  0.00    -0.018 A 
ATOM     28  C   UNL     1       4.592   1.715   0.491  0.00  0.00    +0.008 A 
ATOM     29  C   UNL     1       6.557  -0.053  -0.398  0.00  0.00    +0.008 A 
ATOM     32  C   UNL     1       5.908   2.153   0.335  0.00  0.00    +0.001 A 
ATOM     33  C   UNL     1       6.888   1.271  -0.108  0.00  0.00    +0.001 A 
ENDBRANCH  17  19
BRANCH   6  21
ATOM      1  F   UNL     1      -0.206   4.542   1.387  0.00  0.00    -0.205 F 
ATOM     21  C   UNL     1      -2.853   2.708  -0.297  0.00  0.00    +0.037 A 
ATOM     26  C   UNL     1      -1.854   3.024   0.619  0.00  0.00    +0.061 A 
ATOM     27  C   UNL     1      -3.172   3.591  -1.324  0.00  0.00    +0.023 A 
ATOM     30  C   UNL     1      -1.168   4.233   0.507  0.00  0.00    +0.125 A 
ATOM     31  C   UNL     1      -2.487   4.801  -1.437  0.00  0.00    +0.005 A 
ATOM     34  C   UNL     1      -1.485   5.122  -0.521  0.00  0.00    +0.038 A 
ENDBRANCH   6  21
TORSDOF 2
