REMARK  Name = 11867436
REMARK  10 active torsions:
REMARK  status: ('A' for Active; 'I' for Inactive)
REMARK    1  A    between atoms: O_6  and  C_14
REMARK    2  A    between atoms: O_6  and  C_19
REMARK    3  A    between atoms: N_8  and  C_13
REMARK    4  A    between atoms: N_8  and  C_17
REMARK    5  A    between atoms: N_9  and  C_25
REMARK    6  A    between atoms: N_10  and  C_24
REMARK    7  A    between atoms: N_10  and  C_29
REMARK    8  A    between atoms: N_10  and  C_30
REMARK    9  A    between atoms: C_17  and  C_18
REMARK   10  A    between atoms: C_28  and  C_33
REMARK                            x       y       z     vdW  Elec       q    Type
REMARK                         _______ _______ _______ _____ _____    ______ ____
ROOT
ATOM      4  O   UNL     1       0.366   1.591  -1.247  0.00  0.00    -0.369 OA
ATOM      5  O   UNL     1       1.102   3.741   0.795  0.00  0.00    -0.369 OA
ATOM     11  C   UNL     1       1.651   2.426   0.559  0.00  0.00    +0.170 C 
ATOM     12  C   UNL     1       0.489   1.529   0.185  0.00  0.00    +0.191 C 
ATOM     13  C   UNL     1       2.518   2.444  -0.682  0.00  0.00    +0.111 C 
ATOM     14  C   UNL     1      -0.675   2.199   0.874  0.00  0.00    +0.235 C 
ATOM     15  C   UNL     1       1.480   2.318  -1.788  0.00  0.00    +0.181 C 
ATOM     16  C   UNL     1      -0.330   3.664   0.732  0.00  0.00    +0.207 C 
ENDROOT
BRANCH  13   8
ATOM      8  N   UNL     1       3.425   1.298  -0.719  0.00  0.00    -0.305 NA
ATOM     34  H   UNL     1       3.653   1.078  -1.689  0.00  0.00    +0.123 HD
BRANCH   8  17
ATOM     17  C   UNL     1       4.662   1.595  -0.013  0.00  0.00    +0.116 C 
BRANCH  17  18
ATOM     18  C   UNL     1       5.614   0.429  -0.033  0.00  0.00    -0.033 A 
ATOM     20  C   UNL     1       6.540   0.301  -1.068  0.00  0.00    +0.007 A 
ATOM     21  C   UNL     1       5.569  -0.525   0.984  0.00  0.00    +0.007 A 
ATOM     22  C   UNL     1       7.421  -0.780  -1.086  0.00  0.00    +0.023 A 
ATOM     23  C   UNL     1       6.450  -1.606   0.966  0.00  0.00    +0.023 A 
ATOM     24  C   UNL     1       7.376  -1.733  -0.069  0.00  0.00    +0.029 A 
BRANCH  24  10
ATOM     10  N   UNL     1       8.267  -2.826  -0.087  0.00  0.00    -0.336 N 
ATOM     29  C   UNL     1       8.238  -3.815   0.972  0.00  0.00    +0.129 C 
ATOM     30  C   UNL     1       9.233  -2.968  -1.159  0.00  0.00    +0.129 C 
ENDBRANCH  24  10
ENDBRANCH  17  18
ENDBRANCH   8  17
ENDBRANCH  13   8
BRANCH  14   6
ATOM      6  O   UNL     1      -1.924   1.890   0.297  0.00  0.00    -0.442 OA
BRANCH   6  19
ATOM      7  O   UNL     1      -2.184   0.164   1.774  0.00  0.00    -0.226 OA
ATOM      9  N   UNL     1      -3.809   0.658   0.163  0.00  0.00    -0.251 N 
ATOM     19  C   UNL     1      -2.615   0.825   0.838  0.00  0.00    +0.405 C 
ATOM     35  H   UNL     1      -3.993   1.313  -0.593  0.00  0.00    +0.158 HD
BRANCH   9  25
ATOM     25  C   UNL     1      -4.811  -0.311   0.395  0.00  0.00    +0.037 A 
ATOM     26  C   UNL     1      -5.962  -0.327  -0.393  0.00  0.00    +0.035 A 
ATOM     27  C   UNL     1      -4.649  -1.252   1.412  0.00  0.00    +0.023 A 
ATOM     28  C   UNL     1      -6.951  -1.283  -0.163  0.00  0.00    +0.057 A 
ATOM     31  C   UNL     1      -5.638  -2.208   1.641  0.00  0.00    +0.002 A 
ATOM     32  C   UNL     1      -6.789  -2.224   0.854  0.00  0.00    +0.012 A 
BRANCH  28  33
ATOM      1  F   UNL     1      -8.905  -0.141  -0.938  0.00  0.00    -0.166 F 
ATOM      2  F   UNL     1      -9.064  -2.287  -0.665  0.00  0.00    -0.166 F 
ATOM      3  F   UNL     1      -7.913  -1.487  -2.328  0.00  0.00    -0.166 F 
ATOM     33  C   UNL     1      -8.183  -1.299  -1.003  0.00  0.00    +0.417 C 
ENDBRANCH  28  33
ENDBRANCH   9  25
ENDBRANCH   6  19
ENDBRANCH  14   6
TORSDOF 8
