REMARK  Name = 45783816
REMARK  7 active torsions:
REMARK  status: ('A' for Active; 'I' for Inactive)
REMARK    1  A    between atoms: N_3  and  C_12
REMARK    2  A    between atoms: N_7  and  C_23
REMARK    3  A    between atoms: N_7  and  C_24
REMARK    4  A    between atoms: N_7  and  C_25
REMARK    5  A    between atoms: C_8  and  C_13
REMARK    6  A    between atoms: C_12  and  C_14
REMARK    7  A    between atoms: C_15  and  C_17
REMARK                            x       y       z     vdW  Elec       q    Type
REMARK                         _______ _______ _______ _____ _____    ______ ____
ROOT
ATOM      2  O   UNL     1      -1.526  -1.402   1.898  0.00  0.00    -0.336 OA
ATOM      4  N   UNL     1      -0.779  -0.738  -0.107  0.00  0.00    -0.190 NA
ATOM      5  N   UNL     1      -0.133  -1.310   2.012  0.00  0.00    -0.056 NA
ATOM     13  C   UNL     1      -1.823  -1.049   0.620  0.00  0.00    +0.245 A 
ATOM     15  C   UNL     1       0.234  -0.913   0.790  0.00  0.00    +0.204 A 
ENDROOT
BRANCH  15  17
ATOM      6  N   UNL     1       3.221  -0.042  -1.246  0.00  0.00    -0.240 NA
ATOM     17  C   UNL     1       1.604  -0.684   0.433  0.00  0.00    +0.041 A 
ATOM     20  C   UNL     1       2.626  -0.867   1.358  0.00  0.00    +0.016 A 
ATOM     21  C   UNL     1       1.951  -0.274  -0.845  0.00  0.00    +0.124 A 
ATOM     22  C   UNL     1       3.945  -0.638   0.982  0.00  0.00    +0.044 A 
ATOM     23  C   UNL     1       4.188  -0.230  -0.320  0.00  0.00    +0.121 A 
BRANCH  23   7
ATOM      7  N   UNL     1       5.536   0.001  -0.687  0.00  0.00    -0.321 N 
ATOM     24  C   UNL     1       6.596  -0.189   0.279  0.00  0.00    +0.130 C 
ATOM     25  C   UNL     1       5.863   0.421  -2.032  0.00  0.00    +0.130 C 
ENDBRANCH  23   7
ENDBRANCH  15  17
BRANCH  13   8
ATOM      3  N   UNL     1      -3.603  -0.116  -0.848  0.00  0.00    -0.287 NA
ATOM      8  C   UNL     1      -3.288  -1.067   0.237  0.00  0.00    +0.146 C 
ATOM      9  C   UNL     1      -3.747  -2.436  -0.297  0.00  0.00    +0.030 C 
ATOM     10  C   UNL     1      -4.360  -2.146  -1.659  0.00  0.00    +0.017 C 
ATOM     11  C   UNL     1      -4.739  -0.682  -1.576  0.00  0.00    +0.085 C 
BRANCH   3  12
ATOM     12  C   UNL     1      -3.876   1.233  -0.368  0.00  0.00    +0.127 C 
BRANCH  12  14
ATOM      1  S   UNL     1      -2.351   2.594   1.518  0.00  0.00    -0.100 S 
ATOM     14  C   UNL     1      -2.609   1.986  -0.062  0.00  0.00    +0.004 A 
ATOM     16  C   UNL     1      -1.561   2.280  -0.907  0.00  0.00    +0.012 A 
ATOM     18  C   UNL     1      -0.533   3.014  -0.248  0.00  0.00    +0.008 A 
ATOM     19  C   UNL     1      -0.834   3.253   1.075  0.00  0.00    +0.045 A 
ENDBRANCH  12  14
ENDBRANCH   3  12
ENDBRANCH  13   8
TORSDOF 5
