REMARK  Name = 71693187
REMARK  13 active torsions:
REMARK  status: ('A' for Active; 'I' for Inactive)
REMARK    1  A    between atoms: O_1  and  C_32
REMARK    2  A    between atoms: O_1  and  C_33
REMARK    3  A    between atoms: N_3  and  C_12
REMARK    4  A    between atoms: N_3  and  C_16
REMARK    5  A    between atoms: N_4  and  C_25
REMARK    6  A    between atoms: C_7  and  C_11
REMARK    7  A    between atoms: C_8  and  C_12
REMARK    8  A    between atoms: C_10  and  C_15
REMARK    9  A    between atoms: C_11  and  C_17
REMARK   10  A    between atoms: C_11  and  C_18
REMARK   11  A    between atoms: C_13  and  C_21
REMARK   12  A    between atoms: C_15  and  C_24
REMARK   13  A    between atoms: C_30  and  C_32
REMARK                            x       y       z     vdW  Elec       q    Type
REMARK                         _______ _______ _______ _____ _____    ______ ____
ROOT
ATOM      7  C   UNL     1       3.540  -0.430  -0.542  0.00  0.00    +0.000 C 
ATOM      8  C   UNL     1       3.164  -0.565   0.952  0.00  0.00    +0.029 C 
ATOM      9  C   UNL     1       2.817   0.768  -1.173  0.00  0.00    +0.012 C 
ATOM     10  C   UNL     1       3.100   2.103  -0.450  0.00  0.00    +0.022 C 
ATOM     13  C   UNL     1       3.150   1.961   1.063  0.00  0.00    -0.073 C 
ATOM     14  C   UNL     1       3.166   0.760   1.671  0.00  0.00    -0.023 C 
ATOM     21  C   UNL     1       3.242   3.223   1.877  0.00  0.00    +0.039 C 
ENDROOT
BRANCH   7  11
ATOM     11  C   UNL     1       5.059  -0.323  -0.729  0.00  0.00    -0.013 C 
ATOM     17  C   UNL     1       5.718  -1.684  -0.527  0.00  0.00    +0.007 C 
ATOM     18  C   UNL     1       5.387   0.236  -2.110  0.00  0.00    +0.007 C 
ENDBRANCH   7  11
BRANCH   8  12
ATOM     12  C   UNL     1       1.798  -1.234   1.133  0.00  0.00    +0.089 C 
BRANCH  12   3
ATOM      3  N   UNL     1       1.768  -2.527   0.472  0.00  0.00    -0.313 NA
ATOM     34  H   UNL     1       2.496  -3.119   0.871  0.00  0.00    +0.122 HD
BRANCH   3  16
ATOM      4  N   UNL     1      -1.733  -4.729  -0.510  0.00  0.00    -0.305 NA
ATOM     16  C   UNL     1       0.465  -3.169   0.631  0.00  0.00    +0.056 C 
ATOM     19  C   UNL     1      -0.570  -2.553  -0.315  0.00  0.00    +0.034 C 
ATOM     20  C   UNL     1       0.580  -4.673   0.370  0.00  0.00    +0.034 C 
ATOM     22  C   UNL     1      -1.905  -3.296  -0.228  0.00  0.00    +0.085 C 
ATOM     23  C   UNL     1      -0.793  -5.348   0.435  0.00  0.00    +0.085 C 
ATOM     25  C   UNL     1      -3.023  -5.416  -0.472  0.00  0.00    +0.104 C 
ENDBRANCH   3  16
ENDBRANCH  12   3
ENDBRANCH   8  12
BRANCH  10  15
ATOM     15  C   UNL     1       2.072   3.141  -0.918  0.00  0.00    +0.082 C 
BRANCH  15  24
ATOM      5  N   UNL     1      -0.324   2.589  -1.382  0.00  0.00    -0.342 N 
ATOM      6  N   UNL     1       0.274   2.598   0.759  0.00  0.00    -0.232 NA
ATOM     24  C   UNL     1       0.684   2.776  -0.477  0.00  0.00    +0.109 A 
ATOM     26  C   UNL     1      -1.460   2.269  -0.683  0.00  0.00    +0.067 A 
ATOM     27  C   UNL     1      -1.061   2.281   0.650  0.00  0.00    +0.089 A 
ATOM     28  C   UNL     1      -2.762   1.979  -1.091  0.00  0.00    +0.042 A 
ATOM     29  C   UNL     1      -2.004   1.989   1.650  0.00  0.00    +0.030 A 
ATOM     30  C   UNL     1      -3.688   1.691  -0.083  0.00  0.00    +0.061 A 
ATOM     31  C   UNL     1      -3.318   1.695   1.264  0.00  0.00    +0.017 A 
ATOM     35  H   UNL     1      -0.249   2.670  -2.387  0.00  0.00    +0.167 HD
BRANCH  30  32
ATOM      2  O   UNL     1      -5.640   1.831  -1.445  0.00  0.00    -0.245 OA
ATOM     32  C   UNL     1      -5.063   1.381  -0.447  0.00  0.00    +0.339 C 
BRANCH  32   1
ATOM      1  O   UNL     1      -5.640   0.528   0.453  0.00  0.00    -0.464 OA
ATOM     33  C   UNL     1      -6.997   0.147   0.202  0.00  0.00    +0.280 C 
ENDBRANCH  32   1
ENDBRANCH  30  32
ENDBRANCH  15  24
ENDBRANCH  10  15
TORSDOF 8
