REMARK  Name = 28961481
REMARK  13 active torsions:
REMARK  status: ('A' for Active; 'I' for Inactive)
REMARK    1  A    between atoms: O_4  and  C_13
REMARK    2  A    between atoms: O_5  and  C_16
REMARK    3  A    between atoms: N_7  and  C_11
REMARK    4  A    between atoms: N_7  and  C_17
REMARK    5  A    between atoms: N_7  and  C_18
REMARK    6  A    between atoms: N_8  and  C_15
REMARK    7  A    between atoms: N_9  and  C_19
REMARK    8  A    between atoms: N_9  and  C_21
REMARK    9  A    between atoms: N_9  and  C_22
REMARK   10  A    between atoms: N_10  and  C_23
REMARK   11  A    between atoms: C_12  and  C_15
REMARK   12  A    between atoms: C_14  and  C_16
REMARK   13  A    between atoms: C_17  and  C_19
REMARK                            x       y       z     vdW  Elec       q    Type
REMARK                         _______ _______ _______ _____ _____    ______ ____
ROOT
ATOM      3  O   UNL     1       0.625  -1.520   0.926  0.00  0.00    -0.365 OA
ATOM     11  C   UNL     1       2.939  -1.184   0.478  0.00  0.00    +0.118 C 
ATOM     12  C   UNL     1       1.597  -0.474   0.699  0.00  0.00    +0.155 C 
ATOM     13  C   UNL     1       2.523  -2.550  -0.045  0.00  0.00    +0.165 C 
ATOM     14  C   UNL     1       1.271  -2.800   0.787  0.00  0.00    +0.174 C 
ENDROOT
BRANCH  13   4
ATOM      4  O   UNL     1       2.196  -2.501  -1.428  0.00  0.00    -0.388 OA
ATOM     29  H   UNL     1       2.042  -3.413  -1.727  0.00  0.00    +0.210 HD
ENDBRANCH  13   4
BRANCH  11   7
ATOM      7  N   UNL     1       3.912  -0.478  -0.337  0.00  0.00    -0.296 NA
ATOM     18  C   UNL     1       4.929  -1.401  -0.852  0.00  0.00    +0.105 C 
BRANCH   7  17
ATOM     17  C   UNL     1       4.550   0.598   0.426  0.00  0.00    +0.100 C 
BRANCH  17  19
ATOM     19  C   UNL     1       5.196   1.604  -0.522  0.00  0.00    +0.099 C 
BRANCH  19   9
ATOM      9  N   UNL     1       5.816   2.685   0.237  0.00  0.00    -0.307 NA
ATOM     21  C   UNL     1       5.979   3.874  -0.600  0.00  0.00    +0.104 C 
ATOM     22  C   UNL     1       7.109   2.260   0.775  0.00  0.00    +0.104 C 
ENDBRANCH  19   9
ENDBRANCH  17  19
ENDBRANCH   7  17
ENDBRANCH  11   7
BRANCH  12  15
ATOM     15  C   UNL     1       1.079   0.383  -0.451  0.00  0.00    +0.139 C 
BRANCH  15   8
ATOM      6  O   UNL     1      -1.522  -0.721  -0.919  0.00  0.00    -0.253 OA
ATOM      8  N   UNL     1      -0.178   0.984  -0.120  0.00  0.00    -0.297 N 
ATOM     10  N   UNL     1      -2.468   1.197   0.049  0.00  0.00    -0.267 N 
ATOM     20  C   UNL     1      -1.419   0.380  -0.382  0.00  0.00    +0.304 C 
ATOM     30  H   UNL     1      -0.170   1.890   0.338  0.00  0.00    +0.150 HD
ATOM     32  H   UNL     1      -2.211   2.084   0.476  0.00  0.00    +0.156 HD
BRANCH  10  23
ATOM      1  F   UNL     1      -4.342   3.028   0.997  0.00  0.00    -0.203 F 
ATOM      2  F   UNL     1      -7.910   0.200  -0.288  0.00  0.00    -0.205 F 
ATOM     23  C   UNL     1      -3.857   0.945  -0.036  0.00  0.00    +0.070 A 
ATOM     24  C   UNL     1      -4.769   1.882   0.448  0.00  0.00    +0.147 A 
ATOM     25  C   UNL     1      -4.314  -0.244  -0.605  0.00  0.00    +0.029 A 
ATOM     26  C   UNL     1      -6.139   1.631   0.363  0.00  0.00    +0.078 A 
ATOM     27  C   UNL     1      -5.683  -0.495  -0.690  0.00  0.00    +0.040 A 
ATOM     28  C   UNL     1      -6.596   0.442  -0.206  0.00  0.00    +0.126 A 
ENDBRANCH  10  23
ENDBRANCH  15   8
ENDBRANCH  12  15
BRANCH  14  16
ATOM     16  C   UNL     1       0.286  -3.797   0.203  0.00  0.00    +0.190 C 
BRANCH  16   5
ATOM      5  O   UNL     1      -0.813  -3.930   1.091  0.00  0.00    -0.392 OA
ATOM     31  H   UNL     1      -1.425  -4.573   0.695  0.00  0.00    +0.210 HD
ENDBRANCH  16   5
ENDBRANCH  14  16
TORSDOF 10
