REMARK  Name = 40481380
REMARK  6 active torsions:
REMARK  status: ('A' for Active; 'I' for Inactive)
REMARK    1  A    between atoms: O_3  and  C_10
REMARK    2  A    between atoms: O_3  and  C_13
REMARK    3  A    between atoms: N_5  and  C_9
REMARK    4  A    between atoms: N_6  and  C_16
REMARK    5  A    between atoms: C_13  and  C_15
REMARK    6  A    between atoms: C_16  and  C_19
REMARK                            x       y       z     vdW  Elec       q    Type
REMARK                         _______ _______ _______ _____ _____    ______ ____
ROOT
ATOM      1  O   UNL     1      -1.483  -1.252   0.986  0.00  0.00    -0.369 OA
ATOM      2  O   UNL     1      -0.529  -2.216  -1.764  0.00  0.00    -0.369 OA
ATOM      7  C   UNL     1       0.061  -1.306  -0.812  0.00  0.00    +0.172 C 
ATOM      8  C   UNL     1      -1.077  -0.526  -0.186  0.00  0.00    +0.180 C 
ATOM      9  C   UNL     1       0.652  -2.077   0.345  0.00  0.00    +0.131 C 
ATOM     10  C   UNL     1      -2.133  -0.568  -1.264  0.00  0.00    +0.175 C 
ATOM     11  C   UNL     1      -0.565  -2.331   1.217  0.00  0.00    +0.185 C 
ATOM     12  C   UNL     1      -1.936  -1.947  -1.851  0.00  0.00    +0.194 C 
ENDROOT
BRANCH   9   5
ATOM      4  O   UNL     1       3.506  -2.108  -0.081  0.00  0.00    -0.253 OA
ATOM      5  N   UNL     1       1.644  -1.296   1.043  0.00  0.00    -0.292 N 
ATOM      6  N   UNL     1       3.738  -0.514   1.589  0.00  0.00    -0.295 N 
ATOM     14  C   UNL     1       3.009  -1.374   0.771  0.00  0.00    +0.300 C 
ATOM     28  H   UNL     1       1.329  -0.608   1.721  0.00  0.00    +0.151 HD
ATOM     29  H   UNL     1       3.238   0.072   2.250  0.00  0.00    +0.151 HD
BRANCH   6  16
ATOM     16  C   UNL     1       5.176  -0.397   1.516  0.00  0.00    +0.141 C 
BRANCH  16  19
ATOM     19  C   UNL     1       5.604   0.660   0.540  0.00  0.00    -0.030 A 
ATOM     23  C   UNL     1       5.826   0.327  -0.796  0.00  0.00    +0.005 A 
ATOM     24  C   UNL     1       5.781   1.976   0.969  0.00  0.00    +0.005 A 
ATOM     25  C   UNL     1       6.225   1.309  -1.703  0.00  0.00    +0.000 A 
ATOM     26  C   UNL     1       6.180   2.958   0.062  0.00  0.00    +0.000 A 
ATOM     27  C   UNL     1       6.402   2.624  -1.274  0.00  0.00    +0.000 A 
ENDBRANCH  16  19
ENDBRANCH   6  16
ENDBRANCH   9   5
BRANCH  10   3
ATOM      3  O   UNL     1      -3.443  -0.380  -0.777  0.00  0.00    -0.367 OA
BRANCH   3  13
ATOM     13  C   UNL     1      -3.773   1.001  -0.652  0.00  0.00    +0.195 C 
BRANCH  13  15
ATOM     15  C   UNL     1      -5.174   1.125  -0.131  0.00  0.00    -0.022 A 
ATOM     17  C   UNL     1      -6.247   1.183  -1.021  0.00  0.00    +0.006 A 
ATOM     18  C   UNL     1      -5.405   1.180   1.244  0.00  0.00    +0.006 A 
ATOM     20  C   UNL     1      -7.550   1.298  -0.536  0.00  0.00    +0.000 A 
ATOM     21  C   UNL     1      -6.708   1.295   1.728  0.00  0.00    +0.000 A 
ATOM     22  C   UNL     1      -7.780   1.354   0.838  0.00  0.00    +0.000 A 
ENDBRANCH  13  15
ENDBRANCH   3  13
ENDBRANCH  10   3
TORSDOF 6
