REMARK  Name = 11885228
REMARK  6 active torsions:
REMARK  status: ('A' for Active; 'I' for Inactive)
REMARK    1  A    between atoms: N_6  and  C_24
REMARK    2  A    between atoms: N_6  and  C_30
REMARK    3  A    between atoms: N_6  and  C_31
REMARK    4  A    between atoms: C_16  and  C_20
REMARK    5  A    between atoms: C_17  and  C_19
REMARK    6  A    between atoms: C_21  and  C_24
REMARK                            x       y       z     vdW  Elec       q    Type
REMARK                         _______ _______ _______ _____ _____    ______ ____
ROOT
ATOM      2  O   UNL     1      -1.359  -0.853   1.643  0.00  0.00    -0.267 OA
ATOM      3  O   UNL     1       3.540   0.399   2.346  0.00  0.00    -0.269 OA
ATOM      4  N   UNL     1       0.347  -1.395   0.148  0.00  0.00    -0.311 N 
ATOM      5  N   UNL     1       3.460  -0.939   0.429  0.00  0.00    -0.296 N 
ATOM      7  C   UNL     1       2.204  -3.065   0.723  0.00  0.00    +0.027 C 
ATOM      8  C   UNL     1       2.203  -1.936  -1.465  0.00  0.00    +0.054 C 
ATOM      9  C   UNL     1       2.264  -3.302  -0.782  0.00  0.00    +0.018 C 
ATOM     10  C   UNL     1       0.853  -2.424   1.068  0.00  0.00    +0.130 C 
ATOM     11  C   UNL     1       3.391  -2.195   1.176  0.00  0.00    +0.113 C 
ATOM     12  C   UNL     1       3.418  -1.088  -1.035  0.00  0.00    +0.117 C 
ATOM     13  C   UNL     1       0.923  -1.204  -1.110  0.00  0.00    +0.027 A 
ATOM     14  C   UNL     1       0.370  -0.346  -1.982  0.00  0.00    +0.022 A 
ATOM     15  C   UNL     1      -0.802  -0.690   0.556  0.00  0.00    +0.259 A 
ATOM     16  C   UNL     1       3.504   0.272   1.123  0.00  0.00    +0.253 C 
ATOM     17  C   UNL     1      -1.370   0.299  -0.425  0.00  0.00    +0.047 A 
ATOM     18  C   UNL     1      -0.791   0.419  -1.628  0.00  0.00    +0.015 A 
ENDROOT
BRANCH  17  19
ATOM     19  C   UNL     1      -2.529   1.138  -0.076  0.00  0.00    -0.008 A 
ATOM     21  C   UNL     1      -3.836   0.721  -0.340  0.00  0.00    -0.026 A 
ATOM     22  C   UNL     1      -2.306   2.376   0.531  0.00  0.00    +0.009 A 
ATOM     25  C   UNL     1      -4.913   1.538   0.002  0.00  0.00    +0.005 A 
ATOM     27  C   UNL     1      -3.384   3.193   0.872  0.00  0.00    +0.001 A 
ATOM     29  C   UNL     1      -4.688   2.774   0.608  0.00  0.00    +0.000 A 
BRANCH  21  24
ATOM     24  C   UNL     1      -4.116  -0.596  -0.989  0.00  0.00    +0.119 C 
BRANCH  24   6
ATOM      6  N   UNL     1      -4.278  -1.672  -0.011  0.00  0.00    -0.304 NA
ATOM     30  C   UNL     1      -4.550  -2.940  -0.687  0.00  0.00    +0.104 C 
ATOM     31  C   UNL     1      -5.354  -1.351   0.927  0.00  0.00    +0.104 C 
ENDBRANCH  24   6
ENDBRANCH  21  24
ENDBRANCH  17  19
BRANCH  16  20
ATOM      1  S   UNL     1       4.966   2.198  -0.162  0.00  0.00    -0.092 S 
ATOM     20  C   UNL     1       3.483   1.515   0.344  0.00  0.00    +0.074 A 
ATOM     23  C   UNL     1       2.399   2.253  -0.064  0.00  0.00    +0.021 A 
ATOM     26  C   UNL     1       2.791   3.404  -0.807  0.00  0.00    +0.008 A 
ATOM     28  C   UNL     1       4.159   3.495  -0.936  0.00  0.00    +0.046 A 
ENDBRANCH  16  20
TORSDOF 4
