REMARK  Name = 25338564
REMARK  7 active torsions:
REMARK  status: ('A' for Active; 'I' for Inactive)
REMARK    1  A    between atoms: O_4  and  C_26
REMARK    2  A    between atoms: O_4  and  C_30
REMARK    3  A    between atoms: N_5  and  C_15
REMARK    4  A    between atoms: N_6  and  C_10
REMARK    5  A    between atoms: N_9  and  C_19
REMARK    6  A    between atoms: C_11  and  C_14
REMARK    7  A    between atoms: C_17  and  C_18
REMARK                            x       y       z     vdW  Elec       q    Type
REMARK                         _______ _______ _______ _____ _____    ______ ____
ROOT
ATOM      5  N   UNL     1      -0.632   3.591   1.142  0.00  0.00    -0.293 NA
ATOM     10  C   UNL     1       1.349   3.307  -0.054  0.00  0.00    +0.090 C 
ATOM     11  C   UNL     1      -1.085   3.404  -0.250  0.00  0.00    +0.147 C 
ATOM     12  C   UNL     1       0.200   3.063  -1.032  0.00  0.00    +0.052 C 
ATOM     13  C   UNL     1       0.724   4.143   1.052  0.00  0.00    +0.107 C 
ATOM     15  C   UNL     1      -1.517   4.447   1.923  0.00  0.00    +0.105 C 
ENDROOT
BRANCH  10   6
ATOM      3  O   UNL     1       3.534   1.803  -1.133  0.00  0.00    -0.253 OA
ATOM      6  N   UNL     1       1.881   2.068   0.461  0.00  0.00    -0.295 N 
ATOM      9  N   UNL     1       3.248   0.228   0.584  0.00  0.00    -0.269 N 
ATOM     16  C   UNL     1       2.955   1.394  -0.129  0.00  0.00    +0.304 C 
ATOM     31  H   UNL     1       1.408   1.629   1.245  0.00  0.00    +0.151 HD
ATOM     32  H   UNL     1       2.670   0.034   1.398  0.00  0.00    +0.156 HD
BRANCH   9  19
ATOM      1 CL   UNL     1       7.479  -3.763  -0.546  0.00  0.00    -0.084 Cl
ATOM     19  C   UNL     1       4.258  -0.724   0.314  0.00  0.00    +0.035 A 
ATOM     22  C   UNL     1       4.405  -1.838   1.141  0.00  0.00    +0.025 A 
ATOM     23  C   UNL     1       5.107  -0.550  -0.779  0.00  0.00    +0.025 A 
ATOM     27  C   UNL     1       5.401  -2.778   0.875  0.00  0.00    +0.022 A 
ATOM     28  C   UNL     1       6.103  -1.490  -1.045  0.00  0.00    +0.022 A 
ATOM     29  C   UNL     1       6.250  -2.603  -0.218  0.00  0.00    +0.041 A 
ENDBRANCH   9  19
ENDBRANCH  10   6
BRANCH  11  14
ATOM      2  O   UNL     1      -3.324   2.741  -0.966  0.00  0.00    -0.336 OA
ATOM      7  N   UNL     1      -2.126   1.081  -0.058  0.00  0.00    -0.190 NA
ATOM      8  N   UNL     1      -4.145   1.606  -0.996  0.00  0.00    -0.056 NA
ATOM     14  C   UNL     1      -2.155   2.345  -0.399  0.00  0.00    +0.245 A 
ATOM     17  C   UNL     1      -3.368   0.669  -0.444  0.00  0.00    +0.202 A 
BRANCH  17  18
ATOM     18  C   UNL     1      -3.802  -0.686  -0.264  0.00  0.00    +0.023 A 
ATOM     20  C   UNL     1      -2.947  -1.622   0.318  0.00  0.00    +0.015 A 
ATOM     21  C   UNL     1      -5.080  -1.068  -0.672  0.00  0.00    +0.015 A 
ATOM     24  C   UNL     1      -3.369  -2.940   0.491  0.00  0.00    +0.046 A 
ATOM     25  C   UNL     1      -5.502  -2.386  -0.500  0.00  0.00    +0.046 A 
ATOM     26  C   UNL     1      -4.646  -3.322   0.082  0.00  0.00    +0.120 A 
BRANCH  26   4
ATOM      4  O   UNL     1      -5.059  -4.608   0.251  0.00  0.00    -0.495 OA
ATOM     30  C   UNL     1      -4.134  -5.513   0.853  0.00  0.00    +0.277 C 
ENDBRANCH  26   4
ENDBRANCH  17  18
ENDBRANCH  11  14
TORSDOF 5
