REMARK  Name = 71694036
REMARK  7 active torsions:
REMARK  status: ('A' for Active; 'I' for Inactive)
REMARK    1  A    between atoms: O_4  and  C_9
REMARK    2  A    between atoms: O_5  and  C_11
REMARK    3  A    between atoms: N_6  and  C_7
REMARK    4  A    between atoms: N_6  and  C_13
REMARK    5  A    between atoms: C_8  and  C_12
REMARK    6  A    between atoms: C_13  and  C_16
REMARK    7  A    between atoms: C_22  and  C_25
REMARK                            x       y       z     vdW  Elec       q    Type
REMARK                         _______ _______ _______ _____ _____    ______ ____
ROOT
ATOM      7  C   UNL     1       1.784  -1.073  -0.049  0.00  0.00    +0.092 C 
ATOM      8  C   UNL     1       2.684  -0.198  -0.952  0.00  0.00    +0.041 C 
ATOM      9  C   UNL     1       2.316  -2.485  -0.291  0.00  0.00    +0.160 C 
ATOM     10  C   UNL     1       4.010  -0.990  -1.106  0.00  0.00    +0.043 C 
ATOM     11  C   UNL     1       3.828  -2.277  -0.299  0.00  0.00    +0.145 C 
ENDROOT
BRANCH   8  12
ATOM     12  C   UNL     1       2.861   1.212  -0.430  0.00  0.00    -0.043 A 
ATOM     14  C   UNL     1       1.963   2.212  -0.804  0.00  0.00    +0.004 A 
ATOM     15  C   UNL     1       3.922   1.511   0.424  0.00  0.00    +0.004 A 
ATOM     17  C   UNL     1       2.127   3.511  -0.323  0.00  0.00    +0.000 A 
ATOM     18  C   UNL     1       4.086   2.810   0.905  0.00  0.00    +0.000 A 
ATOM     19  C   UNL     1       3.188   3.810   0.531  0.00  0.00    +0.000 A 
ENDBRANCH   8  12
BRANCH   9   4
ATOM      4  O   UNL     1       1.908  -3.379   0.727  0.00  0.00    -0.388 OA
ATOM     27  H   UNL     1       2.361  -4.225   0.570  0.00  0.00    +0.210 HD
ENDBRANCH   9   4
BRANCH  11   5
ATOM      5  O   UNL     1       4.303  -2.076   1.029  0.00  0.00    -0.389 OA
ATOM     28  H   UNL     1       5.257  -1.893   0.972  0.00  0.00    +0.210 HD
ENDBRANCH  11   5
BRANCH   7   6
ATOM      6  N   UNL     1       0.374  -0.958  -0.402  0.00  0.00    -0.306 NA
ATOM     26  H   UNL     1       0.158   0.016  -0.615  0.00  0.00    +0.123 HD
BRANCH   6  13
ATOM     13  C   UNL     1      -0.474  -1.394   0.698  0.00  0.00    +0.116 C 
BRANCH  13  16
ATOM     16  C   UNL     1      -1.936  -1.291   0.353  0.00  0.00    -0.033 A 
ATOM     20  C   UNL     1      -2.568  -0.048   0.353  0.00  0.00    +0.017 A 
ATOM     21  C   UNL     1      -2.660  -2.441   0.035  0.00  0.00    +0.005 A 
ATOM     22  C   UNL     1      -3.922   0.047   0.034  0.00  0.00    +0.055 A 
ATOM     23  C   UNL     1      -4.014  -2.346  -0.284  0.00  0.00    +0.001 A 
ATOM     24  C   UNL     1      -4.646  -1.102  -0.285  0.00  0.00    +0.012 A 
BRANCH  22  25
ATOM      1  F   UNL     1      -4.054   2.267  -0.847  0.00  0.00    -0.166 F 
ATOM      2  F   UNL     1      -4.564   2.008   1.245  0.00  0.00    -0.166 F 
ATOM      3  F   UNL     1      -5.919   1.294  -0.298  0.00  0.00    -0.166 F 
ATOM     25  C   UNL     1      -4.598   1.377   0.034  0.00  0.00    +0.417 C 
ENDBRANCH  22  25
ENDBRANCH  13  16
ENDBRANCH   6  13
ENDBRANCH   7   6
TORSDOF 7
