REMARK  Name = 7143829
REMARK  7 active torsions:
REMARK  status: ('A' for Active; 'I' for Inactive)
REMARK    1  A    between atoms: S_1  and  C_27
REMARK    2  A    between atoms: S_1  and  C_28
REMARK    3  A    between atoms: N_6  and  C_19
REMARK    4  A    between atoms: N_6  and  C_23
REMARK    5  A    between atoms: N_6  and  C_24
REMARK    6  A    between atoms: C_16  and  C_19
REMARK    7  A    between atoms: C_17  and  C_20
REMARK                            x       y       z     vdW  Elec       q    Type
REMARK                         _______ _______ _______ _____ _____    ______ ____
ROOT
ATOM      2  O   UNL     1       0.767  -0.998  -1.815  0.00  0.00    -0.267 OA
ATOM      3  O   UNL     1      -3.842   2.475  -1.039  0.00  0.00    -0.274 OA
ATOM      4  N   UNL     1      -3.741   0.364  -0.074  0.00  0.00    -0.299 N 
ATOM      5  N   UNL     1      -1.085  -1.369  -0.448  0.00  0.00    -0.311 N 
ATOM      7  C   UNL     1      -3.438  -1.739  -1.387  0.00  0.00    +0.027 C 
ATOM      8  C   UNL     1      -3.078  -1.757   1.045  0.00  0.00    +0.054 C 
ATOM      9  C   UNL     1      -3.667  -2.551  -0.119  0.00  0.00    +0.018 C 
ATOM     10  C   UNL     1      -4.129  -0.368  -1.282  0.00  0.00    +0.113 C 
ATOM     11  C   UNL     1      -1.930  -1.607  -1.627  0.00  0.00    +0.130 C 
ATOM     12  C   UNL     1      -3.814  -0.409   1.175  0.00  0.00    +0.117 C 
ATOM     13  C   UNL     1      -1.593  -1.514   0.845  0.00  0.00    +0.027 A 
ATOM     14  C   UNL     1      -0.776  -1.411   1.905  0.00  0.00    +0.022 A 
ATOM     15  C   UNL     1       0.276  -1.098  -0.689  0.00  0.00    +0.259 A 
ATOM     16  C   UNL     1      -3.417   1.718  -0.163  0.00  0.00    +0.230 C 
ATOM     17  C   UNL     1       1.160  -0.951   0.520  0.00  0.00    +0.047 A 
ATOM     18  C   UNL     1       0.619  -1.119   1.736  0.00  0.00    +0.015 A 
ENDROOT
BRANCH  17  20
ATOM     20  C   UNL     1       2.589  -0.621   0.385  0.00  0.00    -0.013 A 
ATOM     21  C   UNL     1       3.534  -1.642   0.276  0.00  0.00    +0.010 A 
ATOM     22  C   UNL     1       3.000   0.713   0.365  0.00  0.00    +0.010 A 
ATOM     25  C   UNL     1       4.888  -1.330   0.149  0.00  0.00    +0.015 A 
ATOM     26  C   UNL     1       4.353   1.025   0.238  0.00  0.00    +0.015 A 
ATOM     27  C   UNL     1       5.297   0.004   0.130  0.00  0.00    +0.008 A 
BRANCH  27   1
ATOM      1  S   UNL     1       7.026   0.402  -0.032  0.00  0.00    -0.129 S 
ATOM     28  C   UNL     1       7.040   1.375  -1.565  0.00  0.00    +0.090 C 
ENDBRANCH  27   1
ENDBRANCH  17  20
BRANCH  16  19
ATOM     19  C   UNL     1      -2.482   2.259   0.889  0.00  0.00    +0.180 C 
BRANCH  19   6
ATOM      6  N   UNL     1      -1.743   3.332   0.260  0.00  0.00    -0.300 NA
ATOM     23  C   UNL     1      -0.982   2.841  -0.896  0.00  0.00    +0.105 C 
ATOM     24  C   UNL     1      -0.835   3.977   1.216  0.00  0.00    +0.105 C 
ENDBRANCH  19   6
ENDBRANCH  16  19
TORSDOF 4
