REMARK  Name = 45361469
REMARK  10 active torsions:
REMARK  status: ('A' for Active; 'I' for Inactive)
REMARK    1  A    between atoms: O_3  and  C_11
REMARK    2  A    between atoms: N_6  and  C_15
REMARK    3  A    between atoms: N_7  and  C_30
REMARK    4  A    between atoms: C_8  and  C_18
REMARK    5  A    between atoms: C_10  and  C_20
REMARK    6  A    between atoms: C_14  and  C_19
REMARK    7  A    between atoms: C_19  and  C_21
REMARK    8  A    between atoms: C_19  and  C_22
REMARK    9  A    between atoms: C_23  and  C_24
REMARK   10  A    between atoms: C_30  and  C_31
REMARK                            x       y       z     vdW  Elec       q    Type
REMARK                         _______ _______ _______ _____ _____    ______ ____
ROOT
ATOM      8  C   UNL     1       0.325  -0.049   1.444  0.00  0.00    -0.027 C 
ATOM      9  C   UNL     1       0.775   0.757   0.180  0.00  0.00    +0.028 C 
ATOM     10  C   UNL     1       2.303   1.112   0.258  0.00  0.00    +0.012 C 
ATOM     11  C   UNL     1      -0.178   1.957  -0.091  0.00  0.00    +0.122 C 
ATOM     12  C   UNL     1      -1.152  -0.480   1.283  0.00  0.00    +0.007 C 
ATOM     13  C   UNL     1       1.180  -1.333   1.553  0.00  0.00    +0.009 C 
ATOM     14  C   UNL     1      -1.665   1.535  -0.148  0.00  0.00    +0.029 C 
ATOM     15  C   UNL     1       3.147  -0.179   0.443  0.00  0.00    +0.076 C 
ATOM     16  C   UNL     1      -2.093   0.696   1.056  0.00  0.00    +0.007 C 
ATOM     17  C   UNL     1       2.675  -1.052   1.606  0.00  0.00    +0.023 C 
ATOM     18  C   UNL     1       0.465   0.770   2.752  0.00  0.00    +0.011 C 
ATOM     20  C   UNL     1       2.819   1.882  -0.970  0.00  0.00    +0.010 C 
ENDROOT
BRANCH  15   6
ATOM      5  O   UNL     1       5.423  -1.783  -0.382  0.00  0.00    -0.276 OA
ATOM      6  N   UNL     1       4.551   0.120   0.635  0.00  0.00    -0.312 N 
ATOM     23  C   UNL     1       5.567  -0.713   0.203  0.00  0.00    +0.216 C 
ATOM     37  H   UNL     1       4.785   0.960   1.157  0.00  0.00    +0.149 HD
BRANCH  23  24
ATOM     24  C   UNL     1       6.926  -0.152   0.507  0.00  0.00    +0.075 C 
ATOM     25  C   UNL     1       7.937  -1.272   0.764  0.00  0.00    +0.013 C 
ATOM     26  C   UNL     1       7.365   0.798  -0.609  0.00  0.00    +0.013 C 
ATOM     27  C   UNL     1       8.406  -1.971  -0.512  0.00  0.00    +0.001 C 
ATOM     28  C   UNL     1       7.823   0.069  -1.870  0.00  0.00    +0.001 C 
ATOM     29  C   UNL     1       8.889  -0.976  -1.561  0.00  0.00    +0.000 C 
ENDBRANCH  23  24
ENDBRANCH  15   6
BRANCH  11   3
ATOM      3  O   UNL     1       0.131   2.533  -1.361  0.00  0.00    -0.391 OA
ATOM     38  H   UNL     1       0.015   1.848  -2.041  0.00  0.00    +0.210 HD
ENDBRANCH  11   3
BRANCH  14  19
ATOM     19  C   UNL     1      -2.595   2.746  -0.285  0.00  0.00    +0.077 C 
ATOM     21  C   UNL     1      -2.406   3.690   0.897  0.00  0.00    +0.017 C 
BRANCH  19  22
ATOM      4  O   UNL     1      -4.917   2.627   0.394  0.00  0.00    -0.276 OA
ATOM      7  N   UNL     1      -4.246   1.433  -1.478  0.00  0.00    -0.311 N 
ATOM     22  C   UNL     1      -4.043   2.279  -0.398  0.00  0.00    +0.216 C 
ATOM     39  H   UNL     1      -3.483   1.235  -2.117  0.00  0.00    +0.149 HD
BRANCH   7  30
ATOM     30  C   UNL     1      -5.535   0.860  -1.790  0.00  0.00    +0.139 C 
BRANCH  30  31
ATOM      1  F   UNL     1      -7.583  -1.855   1.706  0.00  0.00    -0.205 F 
ATOM      2  F   UNL     1      -4.673  -3.925  -1.403  0.00  0.00    -0.205 F 
ATOM     31  C   UNL     1      -5.743  -0.461  -1.106  0.00  0.00    -0.025 A 
ATOM     32  C   UNL     1      -5.097  -1.602  -1.581  0.00  0.00    +0.043 A 
ATOM     33  C   UNL     1      -6.583  -0.546   0.005  0.00  0.00    +0.043 A 
ATOM     34  C   UNL     1      -6.777  -1.773   0.640  0.00  0.00    +0.126 A 
ATOM     35  C   UNL     1      -5.292  -2.829  -0.946  0.00  0.00    +0.126 A 
ATOM     36  C   UNL     1      -6.131  -2.914   0.164  0.00  0.00    +0.076 A 
ENDBRANCH  30  31
ENDBRANCH   7  30
ENDBRANCH  19  22
ENDBRANCH  14  19
TORSDOF 7
