REMARK  Name = 45783381
REMARK  10 active torsions:
REMARK  status: ('A' for Active; 'I' for Inactive)
REMARK    1  A    between atoms: O_3  and  C_22
REMARK    2  A    between atoms: O_4  and  C_28
REMARK    3  A    between atoms: O_4  and  C_29
REMARK    4  A    between atoms: N_5  and  C_14
REMARK    5  A    between atoms: N_8  and  C_26
REMARK    6  A    between atoms: C_10  and  C_15
REMARK    7  A    between atoms: C_14  and  C_16
REMARK    8  A    between atoms: C_18  and  C_21
REMARK    9  A    between atoms: C_19  and  C_22
REMARK   10  A    between atoms: C_26  and  C_28
REMARK                            x       y       z     vdW  Elec       q    Type
REMARK                         _______ _______ _______ _____ _____    ______ ____
ROOT
ATOM      1  O   UNL     1       0.586   1.302  -2.050  0.00  0.00    -0.336 OA
ATOM      6  N   UNL     1      -0.228  -0.550  -1.089  0.00  0.00    -0.190 NA
ATOM      7  N   UNL     1      -0.774   1.548  -1.820  0.00  0.00    -0.056 NA
ATOM     15  C   UNL     1       0.824   0.046  -1.590  0.00  0.00    +0.245 A 
ATOM     18  C   UNL     1      -1.184   0.410  -1.252  0.00  0.00    +0.205 A 
ENDROOT
BRANCH  18  21
ATOM      8  N   UNL     1      -1.843  -1.277   0.936  0.00  0.00    -0.326 N 
ATOM      9  N   UNL     1      -4.149  -0.837   0.641  0.00  0.00    -0.240 NA
ATOM     21  C   UNL     1      -2.541   0.200  -0.837  0.00  0.00    +0.062 A 
ATOM     23  C   UNL     1      -2.880  -0.620   0.227  0.00  0.00    +0.130 A 
ATOM     24  C   UNL     1      -3.570   0.837  -1.522  0.00  0.00    +0.016 A 
ATOM     25  C   UNL     1      -4.888   0.639  -1.126  0.00  0.00    +0.020 A 
ATOM     27  C   UNL     1      -5.122  -0.200  -0.048  0.00  0.00    +0.113 A 
ATOM     30  H   UNL     1      -0.959  -0.787   1.017  0.00  0.00    +0.148 HD
BRANCH   8  26
ATOM     26  C   UNL     1      -2.074  -2.429   1.745  0.00  0.00    +0.131 C 
BRANCH  26  28
ATOM     28  C   UNL     1      -0.776  -2.876   2.396  0.00  0.00    +0.178 C 
BRANCH  28   4
ATOM      4  O   UNL     1       0.162  -3.229   1.387  0.00  0.00    -0.381 OA
ATOM     29  C   UNL     1       1.393  -3.661   1.950  0.00  0.00    +0.194 C 
ENDBRANCH  28   4
ENDBRANCH  26  28
ENDBRANCH   8  26
ENDBRANCH  18  21
BRANCH  15  10
ATOM      5  N   UNL     1       2.828  -0.865  -0.428  0.00  0.00    -0.284 NA
ATOM     10  C   UNL     1       2.244  -0.464  -1.724  0.00  0.00    +0.146 C 
ATOM     11  C   UNL     1       2.343  -1.724  -2.604  0.00  0.00    +0.030 C 
ATOM     12  C   UNL     1       3.049  -2.758  -1.740  0.00  0.00    +0.017 C 
ATOM     13  C   UNL     1       3.796  -1.921  -0.721  0.00  0.00    +0.085 C 
BRANCH   5  14
ATOM     14  C   UNL     1       3.430   0.246   0.298  0.00  0.00    +0.159 C 
BRANCH  14  16
ATOM      2  O   UNL     1       2.346   2.393   0.671  0.00  0.00    -0.461 OA
ATOM     16  C   UNL     1       2.396   1.078   1.009  0.00  0.00    +0.119 A 
ATOM     17  C   UNL     1       1.451   0.788   1.966  0.00  0.00    +0.046 A 
ATOM     19  C   UNL     1       1.358   2.949   1.420  0.00  0.00    +0.131 A 
ATOM     20  C   UNL     1       0.777   2.004   2.233  0.00  0.00    +0.047 A 
BRANCH  19  22
ATOM     22  C   UNL     1       1.119   4.385   1.218  0.00  0.00    +0.230 C 
BRANCH  22   3
ATOM      3  O   UNL     1      -0.072   4.586   0.454  0.00  0.00    -0.387 OA
ATOM     31  H   UNL     1      -0.187   5.547   0.356  0.00  0.00    +0.210 HD
ENDBRANCH  22   3
ENDBRANCH  19  22
ENDBRANCH  14  16
ENDBRANCH   5  14
ENDBRANCH  15  10
TORSDOF 9
