REMARK  Name = 11942509
REMARK  11 active torsions:
REMARK  status: ('A' for Active; 'I' for Inactive)
REMARK    1  A    between atoms: N_4  and  C_16
REMARK    2  A    between atoms: N_5  and  C_19
REMARK    3  A    between atoms: N_8  and  C_21
REMARK    4  A    between atoms: C_10  and  C_16
REMARK    5  A    between atoms: C_11  and  C_17
REMARK    6  A    between atoms: C_19  and  C_21
REMARK    7  A    between atoms: C_20  and  C_22
REMARK    8  A    between atoms: C_22  and  C_23
REMARK    9  A    between atoms: C_23  and  C_24
REMARK   10  A    between atoms: C_24  and  C_26
REMARK   11  A    between atoms: C_25  and  C_27
REMARK                            x       y       z     vdW  Elec       q    Type
REMARK                         _______ _______ _______ _____ _____    ______ ____
ROOT
ATOM      3  N   UNL     1       0.936   2.781  -1.144  0.00  0.00    -0.297 NA
ATOM      9  C   UNL     1       1.376   2.251   1.365  0.00  0.00    +0.005 C 
ATOM     10  C   UNL     1      -0.147   1.913  -0.612  0.00  0.00    +0.078 C 
ATOM     11  C   UNL     1       2.611   1.927   0.502  0.00  0.00    +0.092 C 
ATOM     12  C   UNL     1       0.167   1.458   0.830  0.00  0.00    +0.025 C 
ATOM     13  C   UNL     1       1.070   3.745   1.160  0.00  0.00    +0.020 C 
ATOM     14  C   UNL     1       2.254   2.118  -0.983  0.00  0.00    +0.097 C 
ATOM     15  C   UNL     1       0.949   4.034  -0.348  0.00  0.00    +0.085 C 
ENDROOT
BRANCH  11  17
ATOM      1  O   UNL     1       2.561  -0.202   1.579  0.00  0.00    -0.275 OA
ATOM      5  N   UNL     1       4.263   0.252   0.058  0.00  0.00    -0.314 N 
ATOM     17  C   UNL     1       3.118   0.544   0.779  0.00  0.00    +0.218 C 
ATOM     28  H   UNL     1       4.647   0.949  -0.573  0.00  0.00    +0.149 HD
BRANCH   5  19
ATOM     19  C   UNL     1       4.963  -1.008   0.162  0.00  0.00    +0.123 C 
BRANCH  19  21
ATOM     21  C   UNL     1       4.451  -2.032  -0.836  0.00  0.00    +0.123 C 
BRANCH  21   8
ATOM      2  O   UNL     1       3.244  -4.059   0.856  0.00  0.00    -0.276 OA
ATOM      8  N   UNL     1       3.050  -2.303  -0.661  0.00  0.00    -0.314 N 
ATOM     25  C   UNL     1       2.562  -3.298   0.175  0.00  0.00    +0.210 C 
ATOM     27  C   UNL     1       1.058  -3.349   0.192  0.00  0.00    +0.109 C 
ATOM     29  H   UNL     1       2.392  -1.714  -1.164  0.00  0.00    +0.149 HD
ENDBRANCH  21   8
ENDBRANCH  19  21
ENDBRANCH   5  19
ENDBRANCH  11  17
BRANCH  10  16
ATOM     16  C   UNL     1      -0.447   0.726  -1.530  0.00  0.00    +0.164 C 
BRANCH  16   4
ATOM      4  N   UNL     1      -1.601  -0.032  -1.075  0.00  0.00    -0.250 N 
ATOM      6  N   UNL     1      -1.442  -1.055  -0.229  0.00  0.00    -0.065 NA
ATOM      7  N   UNL     1      -2.651  -1.553   0.003  0.00  0.00    -0.135 NA
ATOM     18  C   UNL     1      -2.896   0.164  -1.414  0.00  0.00    +0.133 A 
ATOM     20  C   UNL     1      -3.553  -0.818  -0.716  0.00  0.00    +0.083 A 
BRANCH  20  22
ATOM     22  C   UNL     1      -4.990  -1.119  -0.673  0.00  0.00    +0.059 C 
BRANCH  22  23
ATOM     23  C   UNL     1      -5.742  -0.361   0.442  0.00  0.00    +0.006 C 
BRANCH  23  24
ATOM     24  C   UNL     1      -7.226  -0.725   0.494  0.00  0.00    -0.003 C 
ATOM     26  C   UNL     1      -7.938   0.002   1.623  0.00  0.00    +0.004 C 
ENDBRANCH  23  24
ENDBRANCH  22  23
ENDBRANCH  20  22
ENDBRANCH  16   4
ENDBRANCH  10  16
TORSDOF 9
