REMARK  Name = 11882471
REMARK  9 active torsions:
REMARK  status: ('A' for Active; 'I' for Inactive)
REMARK    1  A    between atoms: N_8  and  C_14
REMARK    2  A    between atoms: N_9  and  C_21
REMARK    3  A    between atoms: C_15  and  C_19
REMARK    4  A    between atoms: C_20  and  C_23
REMARK    5  A    between atoms: C_21  and  C_24
REMARK    6  A    between atoms: C_21  and  C_25
REMARK    7  A    between atoms: C_22  and  C_26
REMARK    8  A    between atoms: C_24  and  C_28
REMARK    9  A    between atoms: C_29  and  C_32
REMARK                            x       y       z     vdW  Elec       q    Type
REMARK                         _______ _______ _______ _____ _____    ______ ____
ROOT
ATOM      4  O   UNL     1      -0.763   3.942   1.180  0.00  0.00    -0.268 OA
ATOM      7  N   UNL     1      -1.439   2.001   0.101  0.00  0.00    -0.285 N 
ATOM     14  C   UNL     1      -1.465  -0.888  -0.362  0.00  0.00    +0.077 C 
ATOM     15  C   UNL     1      -0.451   1.156   0.784  0.00  0.00    +0.164 C 
ATOM     16  C   UNL     1      -0.879  -0.304   0.925  0.00  0.00    +0.054 C 
ATOM     17  C   UNL     1      -2.575   0.019  -0.887  0.00  0.00    +0.041 C 
ATOM     18  C   UNL     1      -2.070   1.441  -1.107  0.00  0.00    +0.111 C 
ATOM     20  C   UNL     1      -1.629   3.326   0.556  0.00  0.00    +0.266 C 
ENDROOT
BRANCH  20  23
ATOM      1  S   UNL     1      -4.708   5.671  -0.245  0.00  0.00    -0.080 S 
ATOM     10  N   UNL     1      -4.053   3.202   0.150  0.00  0.00    -0.240 NA
ATOM     23  C   UNL     1      -2.908   3.964   0.262  0.00  0.00    +0.133 A 
ATOM     27  C   UNL     1      -3.061   5.320   0.080  0.00  0.00    +0.080 A 
ATOM     29  C   UNL     1      -5.064   3.998  -0.116  0.00  0.00    +0.076 A 
ATOM     32  C   UNL     1      -6.459   3.543  -0.305  0.00  0.00    +0.073 C 
ENDBRANCH  20  23
BRANCH  15  19
ATOM      3  O   UNL     1       0.904   1.972  -1.006  0.00  0.00    -0.274 OA
ATOM      9  N   UNL     1       1.868   0.582   0.594  0.00  0.00    -0.302 N 
ATOM     19  C   UNL     1       0.832   1.300   0.019  0.00  0.00    +0.234 C 
ATOM     38  H   UNL     1       1.705   0.067   1.453  0.00  0.00    +0.150 HD
BRANCH   9  21
ATOM     21  C   UNL     1       3.201   0.536   0.038  0.00  0.00    +0.163 C 
BRANCH  21  25
ATOM      6  O   UNL     1       2.585  -1.635  -0.864  0.00  0.00    -0.274 OA
ATOM     11  N   UNL     1       3.986  -0.292  -2.093  0.00  0.00    -0.328 N 
ATOM     25  C   UNL     1       3.220  -0.590  -0.986  0.00  0.00    +0.231 C 
ATOM     39  H   UNL     1       4.498   0.580  -2.186  0.00  0.00    +0.145 HD
ATOM     40  H   UNL     1       4.072  -0.953  -2.858  0.00  0.00    +0.145 HD
ENDBRANCH  21  25
BRANCH  21  24
ATOM     24  C   UNL     1       4.271   0.301   1.111  0.00  0.00    +0.074 C 
BRANCH  24  28
ATOM      2  S   UNL     1       6.901  -0.406   0.668  0.00  0.00    -0.102 S 
ATOM     28  C   UNL     1       5.644   0.735   0.657  0.00  0.00    -0.008 A 
ATOM     31  C   UNL     1       6.021   1.967   0.226  0.00  0.00    +0.011 A 
ATOM     33  C   UNL     1       7.404   1.989  -0.115  0.00  0.00    +0.008 A 
ATOM     34  C   UNL     1       8.003   0.764   0.077  0.00  0.00    +0.045 A 
ENDBRANCH  24  28
ENDBRANCH  21  24
ENDBRANCH   9  21
ENDBRANCH  15  19
BRANCH  14   8
ATOM      5  O   UNL     1       0.033  -3.265  -0.612  0.00  0.00    -0.268 OA
ATOM      8  N   UNL     1      -1.960  -2.226  -0.137  0.00  0.00    -0.307 N 
ATOM     22  C   UNL     1      -1.152  -3.352  -0.282  0.00  0.00    +0.264 C 
ATOM     37  H   UNL     1      -2.916  -2.341   0.190  0.00  0.00    +0.149 HD
BRANCH  22  26
ATOM     12  N   UNL     1      -3.076  -4.585   0.389  0.00  0.00    -0.247 NA
ATOM     13  N   UNL     1      -1.666  -7.000   0.173  0.00  0.00    -0.259 NA
ATOM     26  C   UNL     1      -1.792  -4.642   0.013  0.00  0.00    +0.143 A 
ATOM     30  C   UNL     1      -1.091  -5.811  -0.096  0.00  0.00    +0.143 A 
ATOM     35  C   UNL     1      -3.651  -5.774   0.658  0.00  0.00    +0.131 A 
ATOM     36  C   UNL     1      -2.959  -6.960   0.552  0.00  0.00    +0.130 A 
ENDBRANCH  22  26
ENDBRANCH  14   8
TORSDOF 8
