REMARK  Name = 11912972
REMARK  4 active torsions:
REMARK  status: ('A' for Active; 'I' for Inactive)
REMARK    1  A    between atoms: N_7  and  C_13
REMARK    2  A    between atoms: N_8  and  C_14
REMARK    3  A    between atoms: C_17  and  C_19
REMARK    4  A    between atoms: C_22  and  C_28
REMARK                            x       y       z     vdW  Elec       q    Type
REMARK                         _______ _______ _______ _____ _____    ______ ____
ROOT
ATOM      1  O   UNL     1       0.612   1.740   1.599  0.00  0.00    -0.370 OA
ATOM      2  O   UNL     1       0.559   3.869  -0.654  0.00  0.00    -0.370 OA
ATOM     11  C   UNL     1      -0.072   2.584  -0.513  0.00  0.00    +0.171 C 
ATOM     12  C   UNL     1       0.915   1.676   0.194  0.00  0.00    +0.171 C 
ATOM     13  C   UNL     1      -1.243   2.675   0.441  0.00  0.00    +0.130 C 
ATOM     14  C   UNL     1       2.258   2.310  -0.079  0.00  0.00    +0.130 C 
ATOM     15  C   UNL     1      -0.555   2.554   1.792  0.00  0.00    +0.185 C 
ATOM     16  C   UNL     1       1.914   3.784  -0.188  0.00  0.00    +0.185 C 
ENDROOT
BRANCH  14   8
ATOM      8  N   UNL     1       2.789   1.824  -1.334  0.00  0.00    -0.306 N 
ATOM      9  N   UNL     1       3.727  -0.077  -0.328  0.00  0.00    -0.211 NA
ATOM     10  N   UNL     1       3.951   0.308  -2.697  0.00  0.00    -0.223 NA
ATOM     18  C   UNL     1       3.511   0.650  -1.456  0.00  0.00    +0.216 A 
ATOM     22  C   UNL     1       4.433  -1.216  -0.485  0.00  0.00    +0.111 A 
ATOM     23  C   UNL     1       4.650  -0.842  -2.780  0.00  0.00    +0.116 A 
ATOM     26  C   UNL     1       4.925  -1.653  -1.698  0.00  0.00    +0.051 A 
ATOM     34  H   UNL     1       2.589   2.331  -2.189  0.00  0.00    +0.149 HD
BRANCH  22  28
ATOM      6  O   UNL     1       4.109  -1.418   1.846  0.00  0.00    -0.461 OA
ATOM     28  C   UNL     1       4.646  -1.964   0.726  0.00  0.00    +0.153 A 
ATOM     30  C   UNL     1       5.290  -3.141   1.018  0.00  0.00    +0.051 A 
ATOM     31  C   UNL     1       5.140  -3.333   2.412  0.00  0.00    +0.042 A 
ATOM     32  C   UNL     1       4.414  -2.258   2.869  0.00  0.00    +0.196 A 
ENDBRANCH  22  28
ENDBRANCH  14   8
BRANCH  13   7
ATOM      3  O   UNL     1      -4.048   2.576   1.098  0.00  0.00    -0.270 OA
ATOM      7  N   UNL     1      -2.152   1.547   0.247  0.00  0.00    -0.304 N 
ATOM     17  C   UNL     1      -3.493   1.601   0.599  0.00  0.00    +0.245 C 
ATOM     33  H   UNL     1      -1.736   0.672  -0.055  0.00  0.00    +0.149 HD
BRANCH  17  19
ATOM      4  O   UNL     1      -4.402  -2.610  -1.744  0.00  0.00    -0.453 OA
ATOM      5  O   UNL     1      -6.341  -3.070  -0.390  0.00  0.00    -0.453 OA
ATOM     19  C   UNL     1      -4.277   0.361   0.363  0.00  0.00    +0.040 A 
ATOM     20  C   UNL     1      -3.869  -0.501  -0.637  0.00  0.00    +0.062 A 
ATOM     21  C   UNL     1      -5.393   0.119   1.158  0.00  0.00    +0.017 A 
ATOM     24  C   UNL     1      -4.629  -1.638  -0.819  0.00  0.00    +0.167 A 
ATOM     25  C   UNL     1      -6.145  -1.040   0.953  0.00  0.00    +0.050 A 
ATOM     27  C   UNL     1      -5.736  -1.901  -0.046  0.00  0.00    +0.166 A 
ATOM     29  C   UNL     1      -5.490  -3.514  -1.466  0.00  0.00    +0.466 C 
ENDBRANCH  17  19
ENDBRANCH  13   7
TORSDOF 4
