REMARK  Name = 11883096
REMARK  11 active torsions:
REMARK  status: ('A' for Active; 'I' for Inactive)
REMARK    1  A    between atoms: O_2  and  C_16
REMARK    2  A    between atoms: O_3  and  C_21
REMARK    3  A    between atoms: N_8  and  C_29
REMARK    4  A    between atoms: N_10  and  C_33
REMARK    5  A    between atoms: C_11  and  C_19
REMARK    6  A    between atoms: C_13  and  C_21
REMARK    7  A    between atoms: C_13  and  C_22
REMARK    8  A    between atoms: C_14  and  C_24
REMARK    9  A    between atoms: C_24  and  C_25
REMARK   10  A    between atoms: C_27  and  C_28
REMARK   11  A    between atoms: C_29  and  C_33
REMARK                            x       y       z     vdW  Elec       q    Type
REMARK                         _______ _______ _______ _____ _____    ______ ____
ROOT
ATOM      1  S   UNL     1      -1.393   3.297   0.200  0.00  0.00    -0.057 S 
ATOM      5  O   UNL     1       2.915   1.557   0.282  0.00  0.00    -0.275 OA
ATOM      7  N   UNL     1       0.001   1.118   0.176  0.00  0.00    -0.229 NA
ATOM      9  N   UNL     1       1.226   3.191   0.282  0.00  0.00    -0.264 N 
ATOM     11  C   UNL     1      -3.308  -0.848   0.409  0.00  0.00    -0.019 C 
ATOM     12  C   UNL     1      -4.117   0.266  -0.390  0.00  0.00    +0.011 C 
ATOM     13  C   UNL     1      -5.676   0.061  -0.524  0.00  0.00    +0.021 C 
ATOM     14  C   UNL     1      -1.759  -0.685   0.050  0.00  0.00    +0.054 C 
ATOM     15  C   UNL     1      -3.771  -2.253  -0.054  0.00  0.00    +0.010 C 
ATOM     16  C   UNL     1      -5.965  -1.406  -0.949  0.00  0.00    +0.123 C 
ATOM     17  C   UNL     1      -3.710   1.699   0.062  0.00  0.00    +0.049 C 
ATOM     18  C   UNL     1      -5.282  -2.436  -0.055  0.00  0.00    +0.032 C 
ATOM     19  C   UNL     1      -3.495  -0.744   1.942  0.00  0.00    +0.012 C 
ATOM     20  C   UNL     1      -1.333   0.759   0.132  0.00  0.00    +0.058 A 
ATOM     22  C   UNL     1      -6.213   0.984  -1.654  0.00  0.00    +0.016 C 
ATOM     23  C   UNL     1      -2.224   1.813   0.117  0.00  0.00    +0.015 A 
ATOM     26  C   UNL     1       0.089   2.430   0.221  0.00  0.00    +0.165 A 
ATOM     28  C   UNL     1       2.556   2.737   0.309  0.00  0.00    +0.222 C 
ATOM     41  H   UNL     1       1.069   4.195   0.311  0.00  0.00    +0.157 HD
ENDROOT
BRANCH  28  27
ATOM     27  C   UNL     1       3.588   3.881   0.385  0.00  0.00    +0.075 C 
ATOM     30  C   UNL     1       3.744   4.779  -0.860  0.00  0.00    +0.013 C 
ATOM     31  C   UNL     1       5.075   3.510   0.210  0.00  0.00    +0.013 C 
ATOM     32  C   UNL     1       5.247   4.860  -0.519  0.00  0.00    +0.001 C 
ENDBRANCH  28  27
BRANCH  16   2
ATOM      2  O   UNL     1      -7.369  -1.661  -0.953  0.00  0.00    -0.391 OA
ATOM     38  H   UNL     1      -7.502  -2.571  -1.268  0.00  0.00    +0.210 HD
ENDBRANCH  16   2
BRANCH  13  21
ATOM     21  C   UNL     1      -6.482   0.438   0.739  0.00  0.00    +0.165 C 
BRANCH  21   3
ATOM      3  O   UNL     1      -7.846   0.213   0.463  0.00  0.00    -0.394 OA
ATOM     39  H   UNL     1      -8.348   0.462   1.257  0.00  0.00    +0.209 HD
ENDBRANCH  21   3
ENDBRANCH  13  21
BRANCH  14  24
ATOM     24  C   UNL     1      -0.819  -1.594   0.853  0.00  0.00    +0.106 C 
BRANCH  24  25
ATOM      4  O   UNL     1       0.706  -1.462  -1.021  0.00  0.00    -0.276 OA
ATOM      8  N   UNL     1       1.297  -2.703   0.852  0.00  0.00    -0.314 N 
ATOM     25  C   UNL     1       0.459  -1.890   0.103  0.00  0.00    +0.214 C 
ATOM     40  H   UNL     1       1.004  -2.999   1.779  0.00  0.00    +0.149 HD
BRANCH   8  29
ATOM     29  C   UNL     1       2.589  -3.151   0.385  0.00  0.00    +0.119 C 
BRANCH  29  33
ATOM     33  C   UNL     1       3.686  -2.173   0.777  0.00  0.00    +0.103 C 
BRANCH  33  10
ATOM      6  O   UNL     1       7.519  -2.217  -0.931  0.00  0.00    -0.377 OA
ATOM     10  N   UNL     1       4.981  -2.639   0.286  0.00  0.00    -0.297 NA
ATOM     34  C   UNL     1       6.080  -1.982   1.008  0.00  0.00    +0.112 C 
ATOM     35  C   UNL     1       5.110  -2.396  -1.157  0.00  0.00    +0.112 C 
ATOM     36  C   UNL     1       7.420  -2.474   0.470  0.00  0.00    +0.175 C 
ATOM     37  C   UNL     1       6.473  -2.880  -1.644  0.00  0.00    +0.175 C 
ENDBRANCH  33  10
ENDBRANCH  29  33
ENDBRANCH   8  29
ENDBRANCH  24  25
ENDBRANCH  14  24
TORSDOF 9
