REMARK  Name = 71694340
REMARK  7 active torsions:
REMARK  status: ('A' for Active; 'I' for Inactive)
REMARK    1  A    between atoms: N_6  and  C_22
REMARK    2  A    between atoms: N_6  and  C_24
REMARK    3  A    between atoms: N_8  and  C_28
REMARK    4  A    between atoms: C_10  and  C_15
REMARK    5  A    between atoms: C_15  and  C_18
REMARK    6  A    between atoms: C_22  and  C_26
REMARK    7  A    between atoms: C_26  and  C_34
REMARK                            x       y       z     vdW  Elec       q    Type
REMARK                         _______ _______ _______ _____ _____    ______ ____
ROOT
ATOM      1  O   UNL     1      -0.156   2.403   2.799  0.00  0.00    -0.274 OA
ATOM      3  O   UNL     1      -1.951  -1.660  -0.104  0.00  0.00    -0.488 OA
ATOM      5  N   UNL     1       0.951   0.410   2.400  0.00  0.00    -0.300 N 
ATOM      7  N   UNL     1      -2.171  -0.185   2.394  0.00  0.00    -0.304 NA
ATOM     10  C   UNL     1       2.176  -0.693  -0.004  0.00  0.00    +0.008 C 
ATOM     11  C   UNL     1       0.940  -1.331   0.698  0.00  0.00    +0.032 C 
ATOM     12  C   UNL     1       2.231   0.815   0.339  0.00  0.00    +0.023 C 
ATOM     13  C   UNL     1       0.964  -1.045   2.212  0.00  0.00    +0.115 C 
ATOM     14  C   UNL     1       2.128   1.082   1.843  0.00  0.00    +0.108 C 
ATOM     16  C   UNL     1       0.765  -2.800   0.422  0.00  0.00    -0.023 C 
ATOM     17  C   UNL     1      -0.137   1.167   2.835  0.00  0.00    +0.229 C 
ATOM     19  C   UNL     1      -0.275  -3.432  -0.148  0.00  0.00    +0.010 C 
ATOM     20  C   UNL     1      -1.340   0.447   3.414  0.00  0.00    +0.178 C 
ATOM     21  C   UNL     1      -1.606  -2.929  -0.646  0.00  0.00    +0.256 C 
ATOM     23  C   UNL     1      -2.607   0.698   1.315  0.00  0.00    +0.120 C 
ATOM     25  C   UNL     1      -3.569   0.000   0.368  0.00  0.00    +0.010 A 
ATOM     27  C   UNL     1      -3.212  -1.171  -0.340  0.00  0.00    +0.125 A 
ATOM     28  C   UNL     1      -5.752  -0.041  -0.705  0.00  0.00    +0.030 A 
ATOM     29  C   UNL     1      -4.845   0.553   0.171  0.00  0.00    +0.031 A 
ATOM     32  C   UNL     1      -4.128  -1.754  -1.223  0.00  0.00    +0.048 A 
ATOM     33  C   UNL     1      -5.393  -1.190  -1.401  0.00  0.00    +0.027 A 
ATOM     41  H   UNL     1      -2.988  -0.593   2.850  0.00  0.00    +0.123 HD
ENDROOT
BRANCH  28   8
ATOM      4  O   UNL     1      -9.671   1.402  -1.191  0.00  0.00    -0.377 OA
ATOM      8  N   UNL     1      -7.019   0.522  -0.888  0.00  0.00    -0.326 N 
ATOM     30  C   UNL     1      -7.705   0.377  -2.176  0.00  0.00    +0.133 C 
ATOM     31  C   UNL     1      -7.902   0.637   0.281  0.00  0.00    +0.133 C 
ATOM     35  C   UNL     1      -8.784   1.445  -2.309  0.00  0.00    +0.178 C 
ATOM     36  C   UNL     1      -8.970   1.692   0.018  0.00  0.00    +0.178 C 
ENDBRANCH  28   8
BRANCH  10  15
ATOM     15  C   UNL     1       3.514  -1.368   0.319  0.00  0.00    +0.100 C 
BRANCH  15  18
ATOM      2  O   UNL     1       4.326  -0.342  -1.690  0.00  0.00    -0.276 OA
ATOM      6  N   UNL     1       5.829  -1.645  -0.497  0.00  0.00    -0.304 N 
ATOM     18  C   UNL     1       4.577  -1.062  -0.720  0.00  0.00    +0.216 C 
ATOM     24  C   UNL     1       6.102  -2.493   0.656  0.00  0.00    +0.132 C 
BRANCH   6  22
ATOM     22  C   UNL     1       6.957  -1.448  -1.404  0.00  0.00    +0.113 C 
BRANCH  22  26
ATOM     26  C   UNL     1       7.806  -0.235  -1.029  0.00  0.00    +0.074 C 
BRANCH  26  34
ATOM      9  N   UNL     1       6.435   1.399   0.147  0.00  0.00    -0.260 NA
ATOM     34  C   UNL     1       7.020   1.053  -1.021  0.00  0.00    +0.043 A 
ATOM     37  C   UNL     1       6.938   1.804  -2.183  0.00  0.00    +0.023 A 
ATOM     38  C   UNL     1       6.208   2.987  -2.142  0.00  0.00    +0.003 A 
ATOM     39  C   UNL     1       5.733   2.554   0.148  0.00  0.00    +0.111 A 
ATOM     40  C   UNL     1       5.591   3.376  -0.958  0.00  0.00    +0.020 A 
ENDBRANCH  26  34
ENDBRANCH  22  26
ENDBRANCH   6  22
ENDBRANCH  15  18
ENDBRANCH  10  15
TORSDOF 6
