REMARK  Name = 11882546
REMARK  12 active torsions:
REMARK  status: ('A' for Active; 'I' for Inactive)
REMARK    1  A    between atoms: O_1  and  C_12
REMARK    2  A    between atoms: O_2  and  C_13
REMARK    3  A    between atoms: O_6  and  C_25
REMARK    4  A    between atoms: N_8  and  C_14
REMARK    5  A    between atoms: N_9  and  C_19
REMARK    6  A    between atoms: N_10  and  C_24
REMARK    7  A    between atoms: C_16  and  C_18
REMARK    8  A    between atoms: C_19  and  C_21
REMARK    9  A    between atoms: C_19  and  C_23
REMARK   10  A    between atoms: C_21  and  C_22
REMARK   11  A    between atoms: C_22  and  C_25
REMARK   12  A    between atoms: C_30  and  C_31
REMARK                            x       y       z     vdW  Elec       q    Type
REMARK                         _______ _______ _______ _____ _____    ______ ____
ROOT
ATOM     12  C   UNL     1      -0.580  -1.931  -0.799  0.00  0.00    +0.167 C 
ATOM     13  C   UNL     1       0.782  -2.594  -0.564  0.00  0.00    +0.149 C 
ATOM     14  C   UNL     1      -0.948  -0.973   0.350  0.00  0.00    +0.129 C 
ATOM     15  C   UNL     1       1.901  -1.559  -0.354  0.00  0.00    +0.074 C 
ATOM     16  C   UNL     1       1.469  -0.371   0.457  0.00  0.00    +0.015 C 
ATOM     17  C   UNL     1       0.197  -0.100   0.787  0.00  0.00    +0.006 C 
ENDROOT
BRANCH  14   8
ATOM      4  O   UNL     1      -3.722  -1.567   0.748  0.00  0.00    -0.252 OA
ATOM      8  N   UNL     1      -2.069  -0.132   0.004  0.00  0.00    -0.290 N 
ATOM     10  N   UNL     1      -4.264   0.510  -0.203  0.00  0.00    -0.269 N 
ATOM     20  C   UNL     1      -3.400  -0.499   0.233  0.00  0.00    +0.304 C 
ATOM     32  H   UNL     1      -1.889   0.744  -0.477  0.00  0.00    +0.151 HD
ATOM     36  H   UNL     1      -3.832   1.336  -0.608  0.00  0.00    +0.156 HD
BRANCH  10  24
ATOM     24  C   UNL     1      -5.677   0.525  -0.149  0.00  0.00    +0.035 A 
ATOM     26  C   UNL     1      -6.362   1.626  -0.637  0.00  0.00    +0.023 A 
ATOM     27  C   UNL     1      -6.348  -0.561   0.390  0.00  0.00    +0.023 A 
ATOM     28  C   UNL     1      -7.756   1.642  -0.584  0.00  0.00    +0.005 A 
ATOM     29  C   UNL     1      -7.742  -0.545   0.442  0.00  0.00    +0.005 A 
ATOM     30  C   UNL     1      -8.446   0.556  -0.045  0.00  0.00    -0.050 A 
ATOM     31  C   UNL     1      -9.936   0.572   0.011  0.00  0.00    +0.044 C 
ENDBRANCH  10  24
ENDBRANCH  14   8
BRANCH  16  18
ATOM      3  O   UNL     1       2.361   1.163   1.998  0.00  0.00    -0.271 OA
ATOM      9  N   UNL     1       3.596   0.625   0.095  0.00  0.00    -0.300 N 
ATOM     18  C   UNL     1       2.504   0.548   0.942  0.00  0.00    +0.241 C 
ATOM     35  H   UNL     1       3.584   0.156  -0.804  0.00  0.00    +0.150 HD
BRANCH   9  19
ATOM     19  C   UNL     1       4.742   1.466   0.359  0.00  0.00    +0.159 C 
BRANCH  19  23
ATOM      5  O   UNL     1       3.766   2.964  -1.280  0.00  0.00    -0.274 OA
ATOM     11  N   UNL     1       4.954   3.876   0.461  0.00  0.00    -0.328 N 
ATOM     23  C   UNL     1       4.416   2.823  -0.246  0.00  0.00    +0.231 C 
ATOM     37  H   UNL     1       5.504   3.742   1.304  0.00  0.00    +0.145 HD
ATOM     38  H   UNL     1       4.817   4.834   0.155  0.00  0.00    +0.145 HD
ENDBRANCH  19  23
BRANCH  19  21
ATOM     21  C   UNL     1       6.011   0.868  -0.254  0.00  0.00    +0.043 C 
BRANCH  21  22
ATOM     22  C   UNL     1       6.387  -0.484   0.355  0.00  0.00    +0.123 C 
BRANCH  22  25
ATOM      7  O   UNL     1       8.346  -0.484  -1.092  0.00  0.00    -0.251 OA
ATOM     25  C   UNL     1       7.661  -1.037  -0.242  0.00  0.00    +0.305 C 
BRANCH  25   6
ATOM      6  O   UNL     1       7.974  -2.247   0.291  0.00  0.00    -0.481 OA
ATOM     39  H   UNL     1       8.802  -2.611  -0.089  0.00  0.00    +0.295 HD
ENDBRANCH  25   6
ENDBRANCH  22  25
ENDBRANCH  21  22
ENDBRANCH  19  21
ENDBRANCH   9  19
ENDBRANCH  16  18
BRANCH  12   1
ATOM      1  O   UNL     1      -0.532  -1.206  -2.031  0.00  0.00    -0.387 OA
ATOM     33  H   UNL     1      -0.325  -1.842  -2.736  0.00  0.00    +0.210 HD
ENDBRANCH  12   1
BRANCH  13   2
ATOM      2  O   UNL     1       0.713  -3.474   0.556  0.00  0.00    -0.389 OA
ATOM     34  H   UNL     1       0.011  -4.122   0.376  0.00  0.00    +0.210 HD
ENDBRANCH  13   2
TORSDOF 11
