REMARK  Name = 11887598
REMARK  8 active torsions:
REMARK  status: ('A' for Active; 'I' for Inactive)
REMARK    1  A    between atoms: S_1  and  N_7
REMARK    2  A    between atoms: S_1  and  C_27
REMARK    3  A    between atoms: N_8  and  C_19
REMARK    4  A    between atoms: C_12  and  C_15
REMARK    5  A    between atoms: C_15  and  C_19
REMARK    6  A    between atoms: C_19  and  C_25
REMARK    7  A    between atoms: C_20  and  C_23
REMARK    8  A    between atoms: C_26  and  C_28
REMARK                            x       y       z     vdW  Elec       q    Type
REMARK                         _______ _______ _______ _____ _____    ______ ____
ROOT
ATOM      6  O   UNL     1      -3.211  -1.627   2.060  0.00  0.00    -0.270 OA
ATOM      7  N   UNL     1      -0.298   1.328  -0.849  0.00  0.00    -0.162 NA
ATOM      9  N   UNL     1      -2.435  -0.107   0.462  0.00  0.00    -0.294 N 
ATOM     20  C   UNL     1      -0.007   0.461   0.326  0.00  0.00    +0.183 C 
ATOM     21  C   UNL     1      -1.224   0.221   1.215  0.00  0.00    +0.138 C 
ATOM     22  C   UNL     1      -1.703   1.802  -0.947  0.00  0.00    +0.129 C 
ATOM     24  C   UNL     1      -2.642   0.614  -0.799  0.00  0.00    +0.125 C 
ATOM     26  C   UNL     1      -3.355  -1.009   1.007  0.00  0.00    +0.248 C 
ENDROOT
BRANCH  26  28
ATOM     11  N   UNL     1      -6.905  -0.639  -0.133  0.00  0.00    -0.263 NA
ATOM     28  C   UNL     1      -4.606  -1.247   0.270  0.00  0.00    +0.055 A 
ATOM     33  C   UNL     1      -4.689  -2.252  -0.682  0.00  0.00    +0.016 A 
ATOM     34  C   UNL     1      -5.727  -0.474   0.508  0.00  0.00    +0.123 A 
ATOM     36  C   UNL     1      -5.885  -2.453  -1.363  0.00  0.00    +0.020 A 
ATOM     37  C   UNL     1      -6.954  -1.628  -1.054  0.00  0.00    +0.111 A 
ENDBRANCH  26  28
BRANCH  20  23
ATOM      2  O   UNL     1       0.086  -1.229  -1.353  0.00  0.00    -0.274 OA
ATOM      8  N   UNL     1       1.418  -1.447   0.544  0.00  0.00    -0.303 N 
ATOM     23  C   UNL     1       0.493  -0.816  -0.270  0.00  0.00    +0.234 C 
ATOM     38  H   UNL     1       1.617  -1.056   1.460  0.00  0.00    +0.149 HD
BRANCH   8  19
ATOM     19  C   UNL     1       2.036  -2.709   0.207  0.00  0.00    +0.159 C 
BRANCH  19  25
ATOM      5  O   UNL     1       0.448  -3.792   1.694  0.00  0.00    -0.274 OA
ATOM     10  N   UNL     1       1.162  -4.936  -0.165  0.00  0.00    -0.328 N 
ATOM     25  C   UNL     1       1.124  -3.838   0.670  0.00  0.00    +0.231 C 
ATOM     39  H   UNL     1       0.606  -5.760   0.035  0.00  0.00    +0.145 HD
ATOM     40  H   UNL     1       1.741  -4.969  -0.997  0.00  0.00    +0.145 HD
ENDBRANCH  19  25
BRANCH  19  15
ATOM     15  C   UNL     1       3.457  -2.827   0.768  0.00  0.00    +0.035 C 
BRANCH  15  12
ATOM     12  C   UNL     1       4.390  -1.692   0.351  0.00  0.00    -0.009 C 
ATOM     13  C   UNL     1       5.774  -1.865   0.992  0.00  0.00    +0.003 C 
ATOM     14  C   UNL     1       4.502  -1.616  -1.177  0.00  0.00    +0.003 C 
ATOM     16  C   UNL     1       6.742  -0.770   0.548  0.00  0.00    +0.000 C 
ATOM     17  C   UNL     1       5.472  -0.522  -1.618  0.00  0.00    +0.000 C 
ATOM     18  C   UNL     1       6.844  -0.692  -0.972  0.00  0.00    +0.000 C 
ENDBRANCH  15  12
ENDBRANCH  19  15
ENDBRANCH   8  19
ENDBRANCH  20  23
BRANCH   7   1
ATOM      1  S   UNL     1       0.910   2.452  -1.296  0.00  0.00    +0.062 S 
ATOM      3  O   UNL     1       0.614   2.965  -2.617  0.00  0.00    -0.153 OA
ATOM      4  O   UNL     1       2.210   1.893  -0.989  0.00  0.00    -0.153 OA
BRANCH   1  27
ATOM     27  C   UNL     1       0.583   3.738  -0.132  0.00  0.00    +0.106 A 
ATOM     29  C   UNL     1       1.223   3.720   1.096  0.00  0.00    +0.028 A 
ATOM     30  C   UNL     1      -0.310   4.743  -0.466  0.00  0.00    +0.028 A 
ATOM     31  C   UNL     1       0.963   4.735   2.016  0.00  0.00    +0.002 A 
ATOM     32  C   UNL     1      -0.570   5.759   0.454  0.00  0.00    +0.002 A 
ATOM     35  C   UNL     1       0.067   5.755   1.696  0.00  0.00    +0.000 A 
ENDBRANCH   1  27
ENDBRANCH   7   1
TORSDOF 8
