REMARK  Name = 75536643
REMARK  8 active torsions:
REMARK  status: ('A' for Active; 'I' for Inactive)
REMARK    1  A    between atoms: O_3  and  C_9
REMARK    2  A    between atoms: O_5  and  C_16
REMARK    3  A    between atoms: N_6  and  C_8
REMARK    4  A    between atoms: N_6  and  C_13
REMARK    5  A    between atoms: N_7  and  C_12
REMARK    6  A    between atoms: C_10  and  C_12
REMARK    7  A    between atoms: C_13  and  C_14
REMARK    8  A    between atoms: C_15  and  C_18
REMARK                            x       y       z     vdW  Elec       q    Type
REMARK                         _______ _______ _______ _____ _____    ______ ____
ROOT
ATOM      2  O   UNL     1       0.282   0.763  -0.004  0.00  0.00    -0.371 OA
ATOM      8  C   UNL     1      -1.782  -0.371   0.311  0.00  0.00    +0.111 C 
ATOM      9  C   UNL     1      -0.903  -1.192  -0.614  0.00  0.00    +0.164 C 
ATOM     10  C   UNL     1       0.475  -0.635  -0.281  0.00  0.00    +0.165 C 
ATOM     11  C   UNL     1      -1.119   0.995   0.222  0.00  0.00    +0.181 C 
ENDROOT
BRANCH   9   3
ATOM      3  O   UNL     1      -0.986  -2.580  -0.357  0.00  0.00    -0.388 OA
ATOM     28  H   UNL     1      -0.759  -2.732   0.576  0.00  0.00    +0.210 HD
ENDBRANCH   9   3
BRANCH   8   6
ATOM      6  N   UNL     1      -3.181  -0.348  -0.081  0.00  0.00    -0.305 NA
ATOM     27  H   UNL     1      -3.477  -1.296  -0.315  0.00  0.00    +0.123 HD
BRANCH   6  13
ATOM     13  C   UNL     1      -4.021   0.156   0.998  0.00  0.00    +0.120 C 
BRANCH  13  14
ATOM     14  C   UNL     1      -5.474   0.202   0.604  0.00  0.00    +0.008 A 
ATOM     16  C   UNL     1      -5.952   1.209  -0.235  0.00  0.00    +0.121 A 
ATOM     17  C   UNL     1      -6.343  -0.776   1.086  0.00  0.00    +0.008 A 
ATOM     19  C   UNL     1      -7.301   1.237  -0.591  0.00  0.00    +0.046 A 
ATOM     20  C   UNL     1      -7.691  -0.747   0.730  0.00  0.00    +0.001 A 
ATOM     21  C   UNL     1      -8.170   0.259  -0.108  0.00  0.00    +0.004 A 
BRANCH  16   5
ATOM      5  O   UNL     1      -5.117   2.171  -0.716  0.00  0.00    -0.506 OA
ATOM     30  H   UNL     1      -5.625   2.781  -1.279  0.00  0.00    +0.292 HD
ENDBRANCH  16   5
ENDBRANCH  13  14
ENDBRANCH   6  13
ENDBRANCH   8   6
BRANCH  10  12
ATOM     12  C   UNL     1       1.478  -0.801  -1.408  0.00  0.00    +0.138 C 
BRANCH  12   7
ATOM      4  O   UNL     1       3.634  -2.197  -0.123  0.00  0.00    -0.270 OA
ATOM      7  N   UNL     1       2.758  -0.259  -1.051  0.00  0.00    -0.309 N 
ATOM     15  C   UNL     1       3.748  -1.013  -0.428  0.00  0.00    +0.244 C 
ATOM     29  H   UNL     1       2.892   0.733  -1.212  0.00  0.00    +0.149 HD
BRANCH  15  18
ATOM      1  F   UNL     1       8.513   1.688   0.807  0.00  0.00    -0.205 F 
ATOM     18  C   UNL     1       5.008  -0.298  -0.101  0.00  0.00    +0.037 A 
ATOM     22  C   UNL     1       5.800  -0.731   0.964  0.00  0.00    +0.016 A 
ATOM     23  C   UNL     1       5.401   0.806  -0.858  0.00  0.00    +0.016 A 
ATOM     24  C   UNL     1       6.983  -0.060   1.271  0.00  0.00    +0.039 A 
ATOM     25  C   UNL     1       6.585   1.477  -0.551  0.00  0.00    +0.039 A 
ATOM     26  C   UNL     1       7.376   1.044   0.514  0.00  0.00    +0.123 A 
ENDBRANCH  15  18
ENDBRANCH  12   7
ENDBRANCH  10  12
TORSDOF 8
