REMARK  Name = 51136744
REMARK  11 active torsions:
REMARK  status: ('A' for Active; 'I' for Inactive)
REMARK    1  A    between atoms: O_2  and  C_17
REMARK    2  A    between atoms: O_4  and  C_26
REMARK    3  A    between atoms: O_4  and  C_29
REMARK    4  A    between atoms: C_7  and  C_12
REMARK    5  A    between atoms: C_8  and  C_13
REMARK    6  A    between atoms: C_12  and  C_15
REMARK    7  A    between atoms: C_13  and  C_17
REMARK    8  A    between atoms: C_14  and  C_16
REMARK    9  A    between atoms: C_16  and  C_19
REMARK   10  A    between atoms: C_16  and  C_20
REMARK   11  A    between atoms: C_16  and  C_21
REMARK                            x       y       z     vdW  Elec       q    Type
REMARK                         _______ _______ _______ _____ _____    ______ ____
ROOT
ATOM      1  O   UNL     1      -1.990  -3.100   0.597  0.00  0.00    -0.275 OA
ATOM      5  N   UNL     1      -2.621  -0.884   0.287  0.00  0.00    -0.301 N 
ATOM      7  C   UNL     1      -0.705   0.685   0.229  0.00  0.00    +0.016 C 
ATOM      8  C   UNL     1      -1.631   1.807  -0.304  0.00  0.00    +0.006 C 
ATOM      9  C   UNL     1      -1.484  -0.356   1.046  0.00  0.00    +0.112 C 
ATOM     10  C   UNL     1      -2.816   1.176  -1.057  0.00  0.00    +0.023 C 
ATOM     11  C   UNL     1      -3.552   0.128  -0.224  0.00  0.00    +0.108 C 
ATOM     14  C   UNL     1      -2.785  -2.264   0.159  0.00  0.00    +0.221 C 
ENDROOT
BRANCH  14  16
ATOM     16  C   UNL     1      -4.021  -2.734  -0.566  0.00  0.00    +0.039 C 
ATOM     19  C   UNL     1      -3.978  -2.163  -1.984  0.00  0.00    +0.020 C 
ATOM     20  C   UNL     1      -5.255  -2.224   0.180  0.00  0.00    +0.020 C 
ATOM     21  C   UNL     1      -4.018  -4.264  -0.605  0.00  0.00    +0.020 C 
ENDBRANCH  14  16
BRANCH   7  12
ATOM     12  C   UNL     1       0.482   1.219   1.030  0.00  0.00    +0.061 C 
BRANCH  12  15
ATOM      6  N   UNL     1       1.609  -0.662   2.008  0.00  0.00    -0.287 NA
ATOM     15  C   UNL     1       1.593   0.197   1.043  0.00  0.00    +0.044 C 
ATOM     18  C   UNL     1       2.609   0.232  -0.039  0.00  0.00    +0.003 A 
ATOM     22  C   UNL     1       3.810  -0.449   0.200  0.00  0.00    +0.005 A 
ATOM     23  C   UNL     1       3.994  -1.144   1.517  0.00  0.00    +0.062 C 
ATOM     24  C   UNL     1       2.653  -1.693   1.987  0.00  0.00    +0.146 C 
ATOM     25  C   UNL     1       2.410   0.914  -1.241  0.00  0.00    +0.010 A 
ATOM     26  C   UNL     1       4.823  -0.421  -0.762  0.00  0.00    +0.124 A 
ATOM     27  C   UNL     1       3.421   0.923  -2.203  0.00  0.00    +0.004 A 
ATOM     28  C   UNL     1       4.626   0.260  -1.963  0.00  0.00    +0.046 A 
BRANCH  26   4
ATOM      4  O   UNL     1       6.012  -1.054  -0.554  0.00  0.00    -0.495 OA
ATOM     29  C   UNL     1       7.047  -0.298   0.072  0.00  0.00    +0.277 C 
ENDBRANCH  26   4
ENDBRANCH  12  15
ENDBRANCH   7  12
BRANCH   8  13
ATOM     13  C   UNL     1      -2.123   2.777   0.777  0.00  0.00    +0.124 C 
BRANCH  13  17
ATOM      3  O   UNL     1      -2.559   4.392  -0.996  0.00  0.00    -0.251 OA
ATOM     17  C   UNL     1      -2.565   4.087   0.188  0.00  0.00    +0.305 C 
BRANCH  17   2
ATOM      2  O   UNL     1      -2.986   4.916   1.178  0.00  0.00    -0.481 OA
ATOM     30  H   UNL     1      -3.283   5.783   0.827  0.00  0.00    +0.295 HD
ENDBRANCH  17   2
ENDBRANCH  13  17
ENDBRANCH   8  13
TORSDOF 7
