REMARK  Name = 25389533
REMARK  9 active torsions:
REMARK  status: ('A' for Active; 'I' for Inactive)
REMARK    1  A    between atoms: O_1  and  C_16
REMARK    2  A    between atoms: O_1  and  C_21
REMARK    3  A    between atoms: O_3  and  C_36
REMARK    4  A    between atoms: O_3  and  C_37
REMARK    5  A    between atoms: N_5  and  C_19
REMARK    6  A    between atoms: N_7  and  C_27
REMARK    7  A    between atoms: C_9  and  C_15
REMARK    8  A    between atoms: C_10  and  C_16
REMARK    9  A    between atoms: C_18  and  C_20
REMARK                            x       y       z     vdW  Elec       q    Type
REMARK                         _______ _______ _______ _____ _____    ______ ____
ROOT
ATOM      4  N   UNL     1       0.132   4.521   1.280  0.00  0.00    -0.296 NA
ATOM      8  C   UNL     1      -0.914   4.177  -1.080  0.00  0.00    +0.002 C 
ATOM      9  C   UNL     1      -1.902   3.713   0.026  0.00  0.00    +0.055 C 
ATOM     10  C   UNL     1       1.090   3.803   0.400  0.00  0.00    +0.095 C 
ATOM     11  C   UNL     1       0.415   3.408  -0.931  0.00  0.00    +0.026 C 
ATOM     12  C   UNL     1      -0.609   5.666  -0.808  0.00  0.00    +0.019 C 
ATOM     13  C   UNL     1      -1.137   3.759   1.380  0.00  0.00    +0.094 C 
ATOM     14  C   UNL     1      -0.164   5.833   0.655  0.00  0.00    +0.085 C 
ENDROOT
BRANCH   9  15
ATOM      5  N   UNL     1      -3.846   2.311  -0.809  0.00  0.00    -0.270 N 
ATOM      6  N   UNL     1      -4.331   1.060  -0.884  0.00  0.00    -0.171 NA
ATOM     15  C   UNL     1      -2.641   2.398  -0.176  0.00  0.00    +0.044 A 
ATOM     17  C   UNL     1      -2.316   1.115   0.190  0.00  0.00    +0.053 A 
ATOM     18  C   UNL     1      -3.392   0.334  -0.272  0.00  0.00    +0.093 A 
ATOM     19  C   UNL     1      -4.608   3.399  -1.377  0.00  0.00    +0.172 C 
BRANCH  18  20
ATOM     20  C   UNL     1      -3.541  -1.092  -0.138  0.00  0.00    +0.003 A 
ATOM     22  C   UNL     1      -4.815  -1.654  -0.048  0.00  0.00    +0.018 A 
ATOM     23  C   UNL     1      -2.415  -1.909  -0.100  0.00  0.00    +0.011 A 
ATOM     24  C   UNL     1      -4.978  -3.043   0.083  0.00  0.00    -0.017 A 
ATOM     25  C   UNL     1      -2.558  -3.290   0.029  0.00  0.00    +0.009 A 
ATOM     26  C   UNL     1      -3.832  -3.873   0.122  0.00  0.00    -0.018 A 
ATOM     28  C   UNL     1      -6.252  -3.626   0.175  0.00  0.00    +0.008 A 
ATOM     29  C   UNL     1      -3.995  -5.262   0.252  0.00  0.00    +0.008 A 
ATOM     32  C   UNL     1      -6.395  -5.008   0.304  0.00  0.00    +0.001 A 
ATOM     33  C   UNL     1      -5.268  -5.824   0.343  0.00  0.00    +0.001 A 
ENDBRANCH  18  20
ENDBRANCH   9  15
BRANCH  10  16
ATOM     16  C   UNL     1       1.730   2.599   1.094  0.00  0.00    +0.252 C 
BRANCH  16   1
ATOM      1  O   UNL     1       2.700   2.046   0.226  0.00  0.00    -0.449 OA
BRANCH   1  21
ATOM      2  O   UNL     1       3.185   0.447   1.787  0.00  0.00    -0.226 OA
ATOM      7  N   UNL     1       4.289   0.532  -0.275  0.00  0.00    -0.251 N 
ATOM     21  C   UNL     1       3.386   0.944   0.686  0.00  0.00    +0.405 C 
ATOM     38  H   UNL     1       4.311   1.076  -1.135  0.00  0.00    +0.158 HD
BRANCH   7  27
ATOM     27  C   UNL     1       5.190  -0.555  -0.214  0.00  0.00    +0.037 A 
ATOM     30  C   UNL     1       6.034  -0.823  -1.292  0.00  0.00    +0.027 A 
ATOM     31  C   UNL     1       5.235  -1.361   0.923  0.00  0.00    +0.027 A 
ATOM     34  C   UNL     1       6.923  -1.896  -1.232  0.00  0.00    +0.047 A 
ATOM     35  C   UNL     1       6.124  -2.434   0.983  0.00  0.00    +0.047 A 
ATOM     36  C   UNL     1       6.968  -2.701  -0.094  0.00  0.00    +0.120 A 
BRANCH  36   3
ATOM      3  O   UNL     1       7.836  -3.749  -0.036  0.00  0.00    -0.495 OA
ATOM     37  C   UNL     1       8.670  -3.964  -1.173  0.00  0.00    +0.277 C 
ENDBRANCH  36   3
ENDBRANCH   7  27
ENDBRANCH   1  21
ENDBRANCH  16   1
ENDBRANCH  10  16
TORSDOF 7
