REMARK  Name = 44716812
REMARK  9 active torsions:
REMARK  status: ('A' for Active; 'I' for Inactive)
REMARK    1  A    between atoms: O_3  and  C_14
REMARK    2  A    between atoms: O_3  and  C_18
REMARK    3  A    between atoms: O_5  and  C_30
REMARK    4  A    between atoms: O_5  and  C_34
REMARK    5  A    between atoms: O_6  and  C_33
REMARK    6  A    between atoms: O_6  and  C_35
REMARK    7  A    between atoms: N_7  and  C_13
REMARK    8  A    between atoms: N_10  and  C_22
REMARK    9  A    between atoms: C_19  and  C_23
REMARK                            x       y       z     vdW  Elec       q    Type
REMARK                         _______ _______ _______ _____ _____    ______ ____
ROOT
ATOM      1  O   UNL     1      -0.683   2.352  -1.199  0.00  0.00    -0.368 OA
ATOM      2  O   UNL     1      -2.240  -0.191  -1.920  0.00  0.00    -0.368 OA
ATOM     11  C   UNL     1      -2.167   0.572  -0.697  0.00  0.00    +0.173 C 
ATOM     12  C   UNL     1      -0.738   1.061  -0.571  0.00  0.00    +0.192 C 
ATOM     13  C   UNL     1      -2.977   1.840  -0.829  0.00  0.00    +0.130 C 
ATOM     14  C   UNL     1       0.033   0.025  -1.353  0.00  0.00    +0.235 C 
ATOM     15  C   UNL     1      -2.013   2.767  -1.548  0.00  0.00    +0.185 C 
ATOM     16  C   UNL     1      -0.923  -0.301  -2.478  0.00  0.00    +0.207 C 
ENDROOT
BRANCH  13   7
ATOM      7  N   UNL     1      -3.300   2.367   0.479  0.00  0.00    -0.306 N 
ATOM      8  N   UNL     1      -5.182   1.018   0.666  0.00  0.00    -0.214 NA
ATOM      9  N   UNL     1      -4.561   2.547   2.422  0.00  0.00    -0.223 NA
ATOM     17  C   UNL     1      -4.396   1.960   1.221  0.00  0.00    +0.216 A 
ATOM     19  C   UNL     1      -6.238   0.642   1.418  0.00  0.00    +0.076 A 
ATOM     20  C   UNL     1      -5.635   2.124   3.120  0.00  0.00    +0.116 A 
ATOM     21  C   UNL     1      -6.517   1.166   2.664  0.00  0.00    +0.048 A 
ATOM     41  H   UNL     1      -2.676   3.037   0.914  0.00  0.00    +0.149 HD
BRANCH  19  23
ATOM     23  C   UNL     1      -7.083  -0.368   0.827  0.00  0.00    +0.001 A 
ATOM     26  C   UNL     1      -8.429  -0.097   0.584  0.00  0.00    +0.013 A 
ATOM     27  C   UNL     1      -6.552  -1.615   0.498  0.00  0.00    +0.013 A 
ATOM     31  C   UNL     1      -9.245  -1.073   0.012  0.00  0.00    +0.046 A 
ATOM     32  C   UNL     1      -7.368  -2.591  -0.074  0.00  0.00    +0.046 A 
ATOM     33  C   UNL     1      -8.715  -2.320  -0.316  0.00  0.00    +0.120 A 
BRANCH  33   6
ATOM      6  O   UNL     1      -9.511  -3.273  -0.874  0.00  0.00    -0.495 OA
ATOM     35  C   UNL     1      -8.903  -4.526  -1.186  0.00  0.00    +0.277 C 
ENDBRANCH  33   6
ENDBRANCH  19  23
ENDBRANCH  13   7
BRANCH  14   3
ATOM      3  O   UNL     1       1.275   0.491  -1.831  0.00  0.00    -0.442 OA
BRANCH   3  18
ATOM      4  O   UNL     1       2.306  -0.329   0.038  0.00  0.00    -0.226 OA
ATOM     10  N   UNL     1       3.506   0.770  -1.645  0.00  0.00    -0.251 N 
ATOM     18  C   UNL     1       2.378   0.255  -1.036  0.00  0.00    +0.405 C 
ATOM     42  H   UNL     1       3.364   1.224  -2.544  0.00  0.00    +0.158 HD
BRANCH  10  22
ATOM     22  C   UNL     1       4.838   0.745  -1.173  0.00  0.00    +0.037 A 
ATOM     24  C   UNL     1       5.858   1.321  -1.930  0.00  0.00    +0.027 A 
ATOM     25  C   UNL     1       5.132   0.145   0.052  0.00  0.00    +0.027 A 
ATOM     28  C   UNL     1       7.172   1.297  -1.463  0.00  0.00    +0.048 A 
ATOM     29  C   UNL     1       6.446   0.121   0.519  0.00  0.00    +0.048 A 
ATOM     30  C   UNL     1       7.466   0.697  -0.239  0.00  0.00    +0.129 A 
BRANCH  30   5
ATOM      5  O   UNL     1       8.748   0.676   0.217  0.00  0.00    -0.456 OA
BRANCH   5  34
ATOM     34  C   UNL     1       9.225  -0.514   0.742  0.00  0.00    +0.128 A 
ATOM     36  C   UNL     1       8.982  -1.716   0.077  0.00  0.00    +0.046 A 
ATOM     37  C   UNL     1       9.946  -0.510   1.936  0.00  0.00    +0.046 A 
ATOM     38  C   UNL     1       9.461  -2.915   0.606  0.00  0.00    +0.004 A 
ATOM     39  C   UNL     1      10.425  -1.709   2.465  0.00  0.00    +0.004 A 
ATOM     40  C   UNL     1      10.182  -2.911   1.800  0.00  0.00    +0.000 A 
ENDBRANCH   5  34
ENDBRANCH  30   5
ENDBRANCH  10  22
ENDBRANCH   3  18
ENDBRANCH  14   3
TORSDOF 8
