REMARK  Name = 45360392
REMARK  9 active torsions:
REMARK  status: ('A' for Active; 'I' for Inactive)
REMARK    1  A    between atoms: O_4  and  C_14
REMARK    2  A    between atoms: O_8  and  C_27
REMARK    3  A    between atoms: O_8  and  C_31
REMARK    4  A    between atoms: N_10  and  C_13
REMARK    5  A    between atoms: N_11  and  C_24
REMARK    6  A    between atoms: N_12  and  C_28
REMARK    7  A    between atoms: C_20  and  C_23
REMARK    8  A    between atoms: C_24  and  C_27
REMARK    9  A    between atoms: C_36  and  C_39
REMARK                            x       y       z     vdW  Elec       q    Type
REMARK                         _______ _______ _______ _____ _____    ______ ____
ROOT
ATOM      5  O   UNL     1      -3.897   2.952   1.032  0.00  0.00    -0.252 OA
ATOM      9  N   UNL     1      -4.962   1.103   0.143  0.00  0.00    -0.284 N 
ATOM     12  N   UNL     1      -2.702   1.552  -0.385  0.00  0.00    -0.269 N 
ATOM     13  C   UNL     1      -4.537  -1.379   0.193  0.00  0.00    +0.119 C 
ATOM     14  C   UNL     1      -4.962  -1.422   1.672  0.00  0.00    +0.136 C 
ATOM     15  C   UNL     1      -6.356  -0.865   1.980  0.00  0.00    +0.035 C 
ATOM     16  C   UNL     1      -4.989  -0.156  -0.614  0.00  0.00    +0.134 C 
ATOM     17  C   UNL     1      -6.378   0.657   2.140  0.00  0.00    +0.022 C 
ATOM     18  C   UNL     1      -6.208   1.431   0.838  0.00  0.00    +0.109 C 
ATOM     19  C   UNL     1      -3.841   1.950   0.314  0.00  0.00    +0.307 C 
ATOM     42  H   UNL     1      -2.747   0.699  -0.931  0.00  0.00    +0.156 HD
ENDROOT
BRANCH  12  28
ATOM     28  C   UNL     1      -1.434   2.184  -0.418  0.00  0.00    +0.035 A 
ATOM     34  C   UNL     1      -0.402   1.639  -1.181  0.00  0.00    +0.035 A 
ATOM     35  C   UNL     1      -1.219   3.353   0.312  0.00  0.00    +0.023 A 
ATOM     36  C   UNL     1       0.846   2.262  -1.213  0.00  0.00    +0.057 A 
ATOM     37  C   UNL     1       0.029   3.976   0.280  0.00  0.00    +0.002 A 
ATOM     38  C   UNL     1       1.061   3.430  -0.483  0.00  0.00    +0.012 A 
BRANCH  36  39
ATOM      1  F   UNL     1       2.295   0.410  -1.655  0.00  0.00    -0.166 F 
ATOM      2  F   UNL     1       3.102   2.407  -1.950  0.00  0.00    -0.166 F 
ATOM      3  F   UNL     1       1.661   1.592  -3.360  0.00  0.00    -0.166 F 
ATOM     39  C   UNL     1       1.951   1.678  -2.028  0.00  0.00    +0.417 C 
ENDBRANCH  36  39
ENDBRANCH  12  28
BRANCH  13  10
ATOM      7  O   UNL     1      -3.078  -2.726  -1.881  0.00  0.00    -0.270 OA
ATOM     10  N   UNL     1      -3.098  -1.541   0.112  0.00  0.00    -0.305 N 
ATOM     20  C   UNL     1      -2.490  -2.210  -0.934  0.00  0.00    +0.244 C 
ATOM     40  H   UNL     1      -2.537  -1.046   0.797  0.00  0.00    +0.149 HD
BRANCH  20  23
ATOM     23  C   UNL     1      -1.010  -2.313  -0.856  0.00  0.00    +0.037 A 
ATOM     29  C   UNL     1      -0.257  -2.433  -2.024  0.00  0.00    +0.016 A 
ATOM     30  C   UNL     1      -0.373  -2.291   0.385  0.00  0.00    +0.016 A 
ATOM     31  C   UNL     1       1.769  -2.510  -0.711  0.00  0.00    +0.121 A 
ATOM     32  C   UNL     1       1.133  -2.531  -1.952  0.00  0.00    +0.046 A 
ATOM     33  C   UNL     1       1.016  -2.390   0.458  0.00  0.00    +0.046 A 
BRANCH  31   8
ATOM      8  O   UNL     1       3.125  -2.606  -0.639  0.00  0.00    -0.491 OA
BRANCH   8  27
ATOM     27  C   UNL     1       3.765  -1.954   0.457  0.00  0.00    +0.244 C 
BRANCH  27  24
ATOM     24  C   UNL     1       5.164  -1.541   0.031  0.00  0.00    +0.125 C 
BRANCH  24  11
ATOM      6  O   UNL     1       7.543   1.198   2.142  0.00  0.00    -0.377 OA
ATOM     11  N   UNL     1       5.853  -0.852   1.121  0.00  0.00    -0.295 NA
ATOM     21  C   UNL     1       5.392   0.538   1.233  0.00  0.00    +0.112 C 
ATOM     22  C   UNL     1       7.309  -0.885   0.921  0.00  0.00    +0.112 C 
ATOM     25  C   UNL     1       6.133   1.240   2.368  0.00  0.00    +0.175 C 
ATOM     26  C   UNL     1       8.004  -0.151   2.064  0.00  0.00    +0.175 C 
ENDBRANCH  24  11
ENDBRANCH  27  24
ENDBRANCH   8  27
ENDBRANCH  31   8
ENDBRANCH  20  23
ENDBRANCH  13  10
BRANCH  14   4
ATOM      4  O   UNL     1      -4.958  -2.794   2.088  0.00  0.00    -0.390 OA
ATOM     41  H   UNL     1      -5.098  -2.811   3.051  0.00  0.00    +0.210 HD
ENDBRANCH  14   4
TORSDOF 9
