REMARK  Name = 75537101
REMARK  5 active torsions:
REMARK  status: ('A' for Active; 'I' for Inactive)
REMARK    1  A    between atoms: O_2  and  C_17
REMARK    2  A    between atoms: O_2  and  C_20
REMARK    3  A    between atoms: N_4  and  C_12
REMARK    4  A    between atoms: N_5  and  C_13
REMARK    5  A    between atoms: C_12  and  C_14
REMARK                            x       y       z     vdW  Elec       q    Type
REMARK                         _______ _______ _______ _____ _____    ______ ____
ROOT
ATOM      1  O   UNL     1       5.292   0.480   0.009  0.00  0.00    -0.252 OA
ATOM      3  N   UNL     1       2.954   0.507  -0.221  0.00  0.00    -0.278 N 
ATOM      4  N   UNL     1       0.278   1.237   0.249  0.00  0.00    -0.295 NA
ATOM      5  N   UNL     1       3.997  -1.481  -0.191  0.00  0.00    -0.287 N 
ATOM      6  C   UNL     1       1.906  -0.456  -0.486  0.00  0.00    +0.109 C 
ATOM      7  C   UNL     1       0.689  -0.174   0.394  0.00  0.00    +0.109 C 
ATOM      8  C   UNL     1       2.581  -1.804  -0.236  0.00  0.00    +0.132 C 
ATOM      9  C   UNL     1       2.628   1.918  -0.191  0.00  0.00    +0.125 C 
ATOM     10  C   UNL     1       1.370   2.147   0.651  0.00  0.00    +0.104 C 
ATOM     11  C   UNL     1       4.217  -0.091  -0.122  0.00  0.00    +0.305 C 
ATOM     13  C   UNL     1       5.013  -2.505  -0.078  0.00  0.00    +0.133 C 
ENDROOT
BRANCH   4  12
ATOM     12  C   UNL     1      -0.923   1.502   1.041  0.00  0.00    +0.119 C 
BRANCH  12  14
ATOM     14  C   UNL     1      -2.163   0.970   0.373  0.00  0.00    -0.030 A 
ATOM     15  C   UNL     1      -2.755  -0.205   0.836  0.00  0.00    +0.050 A 
ATOM     16  C   UNL     1      -2.720   1.652  -0.709  0.00  0.00    +0.005 A 
ATOM     17  C   UNL     1      -3.904  -0.699   0.217  0.00  0.00    +0.120 A 
ATOM     18  C   UNL     1      -3.868   1.159  -1.328  0.00  0.00    +0.004 A 
ATOM     19  C   UNL     1      -4.460  -0.016  -0.865  0.00  0.00    +0.045 A 
BRANCH  17   2
ATOM      2  O   UNL     1      -4.480  -1.846   0.668  0.00  0.00    -0.495 OA
ATOM     20  C   UNL     1      -5.652  -2.294  -0.011  0.00  0.00    +0.277 C 
ENDBRANCH  17   2
ENDBRANCH  12  14
ENDBRANCH   4  12
TORSDOF 3
