REMARK  Name = 45783395
REMARK  14 active torsions:
REMARK  status: ('A' for Active; 'I' for Inactive)
REMARK    1  A    between atoms: O_2  and  C_21
REMARK    2  A    between atoms: O_2  and  C_28
REMARK    3  A    between atoms: O_3  and  C_22
REMARK    4  A    between atoms: O_3  and  C_29
REMARK    5  A    between atoms: O_4  and  C_23
REMARK    6  A    between atoms: O_4  and  C_32
REMARK    7  A    between atoms: O_5  and  C_33
REMARK    8  A    between atoms: O_5  and  C_34
REMARK    9  A    between atoms: N_6  and  C_15
REMARK   10  A    between atoms: N_9  and  C_30
REMARK   11  A    between atoms: C_11  and  C_16
REMARK   12  A    between atoms: C_15  and  C_17
REMARK   13  A    between atoms: C_20  and  C_24
REMARK   14  A    between atoms: C_30  and  C_33
REMARK                            x       y       z     vdW  Elec       q    Type
REMARK                         _______ _______ _______ _____ _____    ______ ____
ROOT
ATOM      6  N   UNL     1      -2.682  -1.698   0.216  0.00  0.00    -0.287 NA
ATOM     11  C   UNL     1      -2.172  -1.768   1.600  0.00  0.00    +0.146 C 
ATOM     12  C   UNL     1      -2.146  -3.272   1.931  0.00  0.00    +0.030 C 
ATOM     13  C   UNL     1      -2.715  -3.961   0.699  0.00  0.00    +0.017 C 
ATOM     14  C   UNL     1      -3.532  -2.874   0.028  0.00  0.00    +0.085 C 
ENDROOT
BRANCH  11  16
ATOM      1  O   UNL     1      -0.729  -0.109   2.667  0.00  0.00    -0.336 OA
ATOM      7  N   UNL     1       0.306  -1.366   1.129  0.00  0.00    -0.190 NA
ATOM      8  N   UNL     1       0.599   0.335   2.630  0.00  0.00    -0.056 NA
ATOM     16  C   UNL     1      -0.816  -1.112   1.754  0.00  0.00    +0.245 A 
ATOM     20  C   UNL     1       1.145  -0.454   1.700  0.00  0.00    +0.205 A 
BRANCH  20  24
ATOM      9  N   UNL     1       2.030  -1.105  -0.919  0.00  0.00    -0.326 N 
ATOM     10  N   UNL     1       4.266  -0.590  -0.341  0.00  0.00    -0.240 NA
ATOM     24  C   UNL     1       2.524  -0.358   1.319  0.00  0.00    +0.062 A 
ATOM     25  C   UNL     1       2.973  -0.671   0.047  0.00  0.00    +0.130 A 
ATOM     26  C   UNL     1       3.462   0.066   2.255  0.00  0.00    +0.016 A 
ATOM     27  C   UNL     1       4.801   0.162   1.893  0.00  0.00    +0.020 A 
ATOM     31  C   UNL     1       5.149  -0.174   0.595  0.00  0.00    +0.113 A 
ATOM     35  H   UNL     1       1.096  -0.715  -0.858  0.00  0.00    +0.148 HD
BRANCH   9  30
ATOM     30  C   UNL     1       2.404  -1.832  -2.087  0.00  0.00    +0.131 C 
BRANCH  30  33
ATOM     33  C   UNL     1       1.177  -2.120  -2.936  0.00  0.00    +0.178 C 
BRANCH  33   5
ATOM      5  O   UNL     1       0.266  -2.921  -2.194  0.00  0.00    -0.381 OA
ATOM     34  C   UNL     1      -0.898  -3.221  -2.951  0.00  0.00    +0.194 C 
ENDBRANCH  33   5
ENDBRANCH  30  33
ENDBRANCH   9  30
ENDBRANCH  20  24
ENDBRANCH  11  16
BRANCH   6  15
ATOM     15  C   UNL     1      -3.392  -0.458  -0.072  0.00  0.00    +0.120 C 
BRANCH  15  17
ATOM     17  C   UNL     1      -2.444   0.678  -0.353  0.00  0.00    -0.026 A 
ATOM     18  C   UNL     1      -2.483   1.829   0.434  0.00  0.00    +0.054 A 
ATOM     19  C   UNL     1      -1.527   0.579  -1.399  0.00  0.00    +0.054 A 
ATOM     21  C   UNL     1      -0.649   1.631  -1.659  0.00  0.00    +0.165 A 
ATOM     22  C   UNL     1      -1.605   2.881   0.174  0.00  0.00    +0.165 A 
ATOM     23  C   UNL     1      -0.688   2.782  -0.873  0.00  0.00    +0.204 A 
BRANCH  21   2
ATOM      2  O   UNL     1       0.242   1.521  -2.684  0.00  0.00    -0.491 OA
ATOM     28  C   UNL     1      -0.184   1.982  -3.965  0.00  0.00    +0.277 C 
ENDBRANCH  21   2
BRANCH  22   3
ATOM      3  O   UNL     1      -1.655   4.001   0.948  0.00  0.00    -0.491 OA
ATOM     29  C   UNL     1      -2.621   4.021   1.997  0.00  0.00    +0.277 C 
ENDBRANCH  22   3
BRANCH  23   4
ATOM      4  O   UNL     1       0.169   3.811  -1.128  0.00  0.00    -0.488 OA
ATOM     32  C   UNL     1       1.427   3.787  -0.455  0.00  0.00    +0.277 C 
ENDBRANCH  23   4
ENDBRANCH  15  17
ENDBRANCH   6  15
TORSDOF 10
