REMARK  Name = 11912504
REMARK  10 active torsions:
REMARK  status: ('A' for Active; 'I' for Inactive)
REMARK    1  A    between atoms: O_4  and  C_28
REMARK    2  A    between atoms: O_4  and  C_31
REMARK    3  A    between atoms: N_6  and  C_19
REMARK    4  A    between atoms: N_7  and  C_23
REMARK    5  A    between atoms: N_8  and  C_20
REMARK    6  A    between atoms: C_9  and  C_15
REMARK    7  A    between atoms: C_10  and  C_14
REMARK    8  A    between atoms: C_14  and  C_16
REMARK    9  A    between atoms: C_15  and  C_17
REMARK   10  A    between atoms: C_19  and  C_20
REMARK                            x       y       z     vdW  Elec       q    Type
REMARK                         _______ _______ _______ _____ _____    ______ ____
ROOT
ATOM      2  O   UNL     1      -3.381  -1.186   1.843  0.00  0.00    -0.252 OA
ATOM      5  N   UNL     1      -2.067   0.676   1.455  0.00  0.00    -0.285 N 
ATOM      7  N   UNL     1      -4.367   0.706   0.932  0.00  0.00    -0.269 N 
ATOM      9  C   UNL     1       0.494   1.438   0.344  0.00  0.00    +0.004 C 
ATOM     10  C   UNL     1      -0.814   2.144  -0.100  0.00  0.00    +0.010 C 
ATOM     11  C   UNL     1       0.226   0.015   0.868  0.00  0.00    +0.023 C 
ATOM     12  C   UNL     1      -1.850   2.068   1.034  0.00  0.00    +0.113 C 
ATOM     13  C   UNL     1      -0.860   0.008   1.943  0.00  0.00    +0.109 C 
ATOM     18  C   UNL     1      -3.294  -0.021   1.447  0.00  0.00    +0.306 C 
ATOM     33  H   UNL     1      -4.356   1.715   1.026  0.00  0.00    +0.156 HD
ENDROOT
BRANCH   7  23
ATOM     23  C   UNL     1      -5.505   0.199   0.257  0.00  0.00    +0.038 A 
ATOM     26  C   UNL     1      -5.636  -1.174   0.047  0.00  0.00    +0.069 A 
ATOM     27  C   UNL     1      -6.493   1.071  -0.197  0.00  0.00    +0.023 A 
ATOM     28  C   UNL     1      -6.756  -1.674  -0.618  0.00  0.00    +0.122 A 
ATOM     29  C   UNL     1      -7.613   0.572  -0.862  0.00  0.00    +0.005 A 
ATOM     30  C   UNL     1      -7.744  -0.801  -1.072  0.00  0.00    +0.046 A 
BRANCH  28   4
ATOM      4  O   UNL     1      -6.884  -3.013  -0.823  0.00  0.00    -0.495 OA
ATOM     31  C   UNL     1      -5.837  -3.849  -0.333  0.00  0.00    +0.277 C 
ENDBRANCH  28   4
ENDBRANCH   7  23
BRANCH  10  14
ATOM     14  C   UNL     1      -1.406   1.600  -1.405  0.00  0.00    +0.002 C 
ATOM     16  C   UNL     1      -2.624   2.395  -1.827  0.00  0.00    +0.004 C 
ENDBRANCH  10  14
BRANCH   9  15
ATOM     15  C   UNL     1       1.566   1.418  -0.745  0.00  0.00    +0.099 C 
BRANCH  15  17
ATOM      1  O   UNL     1       3.194   1.158   1.025  0.00  0.00    -0.276 OA
ATOM      6  N   UNL     1       3.910   1.216  -1.185  0.00  0.00    -0.314 N 
ATOM     17  C   UNL     1       2.958   1.249  -0.177  0.00  0.00    +0.213 C 
ATOM     32  H   UNL     1       3.611   1.291  -2.153  0.00  0.00    +0.149 HD
BRANCH   6  19
ATOM     19  C   UNL     1       5.325   1.065  -0.930  0.00  0.00    +0.119 C 
BRANCH  19  20
ATOM     20  C   UNL     1       5.729  -0.401  -0.914  0.00  0.00    +0.103 C 
BRANCH  20   8
ATOM      3  O   UNL     1       9.387  -1.756   0.636  0.00  0.00    -0.377 OA
ATOM      8  N   UNL     1       7.160  -0.531  -0.645  0.00  0.00    -0.297 NA
ATOM     21  C   UNL     1       7.446  -0.308   0.779  0.00  0.00    +0.112 C 
ATOM     22  C   UNL     1       7.650  -1.854  -1.056  0.00  0.00    +0.112 C 
ATOM     24  C   UNL     1       8.942  -0.460   1.036  0.00  0.00    +0.175 C 
ATOM     25  C   UNL     1       9.142  -1.970  -0.755  0.00  0.00    +0.175 C 
ENDBRANCH  20   8
ENDBRANCH  19  20
ENDBRANCH   6  19
ENDBRANCH  15  17
ENDBRANCH   9  15
TORSDOF 8
