REMARK  Name = 75537135
REMARK  8 active torsions:
REMARK  status: ('A' for Active; 'I' for Inactive)
REMARK    1  A    between atoms: O_2  and  C_17
REMARK    2  A    between atoms: O_2  and  C_23
REMARK    3  A    between atoms: O_3  and  C_24
REMARK    4  A    between atoms: N_6  and  C_14
REMARK    5  A    between atoms: N_7  and  C_15
REMARK    6  A    between atoms: C_14  and  C_16
REMARK    7  A    between atoms: C_15  and  C_17
REMARK    8  A    between atoms: C_22  and  C_24
REMARK                            x       y       z     vdW  Elec       q    Type
REMARK                         _______ _______ _______ _____ _____    ______ ____
ROOT
ATOM      1  O   UNL     1       4.694   1.444  -0.827  0.00  0.00    -0.252 OA
ATOM      5  N   UNL     1       2.372   1.137  -0.636  0.00  0.00    -0.278 N 
ATOM      6  N   UNL     1      -0.234   1.395   0.389  0.00  0.00    -0.295 NA
ATOM      7  N   UNL     1       3.652  -0.661  -1.053  0.00  0.00    -0.281 N 
ATOM      8  C   UNL     1       1.428   0.058  -0.837  0.00  0.00    +0.109 C 
ATOM      9  C   UNL     1       0.378   0.056   0.273  0.00  0.00    +0.109 C 
ATOM     10  C   UNL     1       2.309  -1.189  -0.889  0.00  0.00    +0.133 C 
ATOM     11  C   UNL     1       1.877   2.470  -0.364  0.00  0.00    +0.125 C 
ATOM     12  C   UNL     1       0.786   2.414   0.709  0.00  0.00    +0.104 C 
ATOM     13  C   UNL     1       3.698   0.732  -0.841  0.00  0.00    +0.305 C 
ENDROOT
BRANCH   6  14
ATOM     14  C   UNL     1      -1.284   1.389   1.408  0.00  0.00    +0.119 C 
BRANCH  14  16
ATOM     16  C   UNL     1      -2.549   0.747   0.905  0.00  0.00    -0.033 A 
ATOM     18  C   UNL     1      -3.388   1.446   0.037  0.00  0.00    +0.006 A 
ATOM     19  C   UNL     1      -2.883  -0.547   1.306  0.00  0.00    +0.006 A 
ATOM     20  C   UNL     1      -4.561   0.852  -0.429  0.00  0.00    +0.015 A 
ATOM     21  C   UNL     1      -4.055  -1.141   0.840  0.00  0.00    +0.015 A 
ATOM     22  C   UNL     1      -4.894  -0.442  -0.028  0.00  0.00    +0.059 A 
BRANCH  22  24
ATOM      4  O   UNL     1      -6.929  -0.538  -1.283  0.00  0.00    -0.245 OA
ATOM     24  C   UNL     1      -6.116  -1.063  -0.515  0.00  0.00    +0.337 C 
BRANCH  24   3
ATOM      3  O   UNL     1      -6.290  -2.322  -0.028  0.00  0.00    -0.477 OA
ATOM     25  H   UNL     1      -7.116  -2.732  -0.362  0.00  0.00    +0.295 HD
ENDBRANCH  24   3
ENDBRANCH  22  24
ENDBRANCH  14  16
ENDBRANCH   6  14
BRANCH   7  15
ATOM     15  C   UNL     1       4.796  -1.523  -1.256  0.00  0.00    +0.137 C 
BRANCH  15  17
ATOM     17  C   UNL     1       5.294  -2.107   0.053  0.00  0.00    +0.178 C 
BRANCH  17   2
ATOM      2  O   UNL     1       5.708  -1.053   0.913  0.00  0.00    -0.381 OA
ATOM     23  C   UNL     1       6.189  -1.552   2.154  0.00  0.00    +0.194 C 
ENDBRANCH  17   2
ENDBRANCH  15  17
ENDBRANCH   7  15
TORSDOF 7
