REMARK  Name = 45783651
REMARK  5 active torsions:
REMARK  status: ('A' for Active; 'I' for Inactive)
REMARK    1  A    between atoms: N_3  and  C_10
REMARK    2  A    between atoms: N_8  and  C_27
REMARK    3  A    between atoms: C_11  and  C_19
REMARK    4  A    between atoms: C_20  and  C_21
REMARK    5  A    between atoms: C_22  and  C_23
REMARK                            x       y       z     vdW  Elec       q    Type
REMARK                         _______ _______ _______ _____ _____    ______ ____
ROOT
ATOM      1  O   UNL     1       0.995   2.576   1.765  0.00  0.00    -0.336 OA
ATOM      5  N   UNL     1       0.455   1.488  -0.116  0.00  0.00    -0.190 NA
ATOM      6  N   UNL     1      -0.352   2.216   1.897  0.00  0.00    -0.056 NA
ATOM     19  C   UNL     1       1.393   2.110   0.553  0.00  0.00    +0.245 A 
ATOM     22  C   UNL     1      -0.597   1.578   0.748  0.00  0.00    +0.204 A 
ENDROOT
BRANCH  22  23
ATOM      7  N   UNL     1      -4.172   0.615   1.087  0.00  0.00    -0.237 NA
ATOM     23  C   UNL     1      -1.881   1.021   0.433  0.00  0.00    +0.041 A 
ATOM     24  C   UNL     1      -2.101   0.364  -0.773  0.00  0.00    +0.017 A 
ATOM     25  C   UNL     1      -2.939   1.118   1.321  0.00  0.00    +0.124 A 
ATOM     26  C   UNL     1      -3.356  -0.167  -1.050  0.00  0.00    +0.047 A 
ATOM     27  C   UNL     1      -4.349  -0.016  -0.095  0.00  0.00    +0.139 A 
BRANCH  27   8
ATOM      8  N   UNL     1      -5.602  -0.544  -0.366  0.00  0.00    -0.290 N 
ATOM      9  N   UNL     1      -7.738  -1.083  -0.086  0.00  0.00    -0.244 NA
ATOM     28  C   UNL     1      -5.971  -1.212  -1.500  0.00  0.00    +0.114 A 
ATOM     29  C   UNL     1      -6.695  -0.491   0.453  0.00  0.00    +0.205 A 
ATOM     30  C   UNL     1      -7.293  -1.535  -1.304  0.00  0.00    +0.130 A 
ENDBRANCH  27   8
ENDBRANCH  22  23
BRANCH  19  11
ATOM      3  N   UNL     1       3.366   1.363  -0.767  0.00  0.00    -0.288 NA
ATOM     11  C   UNL     1       2.833   2.375   0.168  0.00  0.00    +0.146 C 
ATOM     12  C   UNL     1       4.381   2.040  -1.574  0.00  0.00    +0.085 C 
ATOM     13  C   UNL     1       3.015   3.717  -0.564  0.00  0.00    +0.030 C 
ATOM     16  C   UNL     1       3.712   3.367  -1.871  0.00  0.00    +0.017 C 
BRANCH   3  10
ATOM      2  O   UNL     1       3.925  -4.758  -0.623  0.00  0.00    -0.276 OA
ATOM      4  N   UNL     1       3.840  -2.672   0.396  0.00  0.00    -0.302 N 
ATOM     10  C   UNL     1       3.897   0.181  -0.093  0.00  0.00    +0.060 C 
ATOM     14  C   UNL     1       2.810  -0.463   0.776  0.00  0.00    +0.038 C 
ATOM     15  C   UNL     1       4.421  -0.824  -1.128  0.00  0.00    +0.038 C 
ATOM     17  C   UNL     1       3.315  -1.756   1.417  0.00  0.00    +0.109 C 
ATOM     18  C   UNL     1       4.894  -2.108  -0.450  0.00  0.00    +0.109 C 
ATOM     20  C   UNL     1       3.443  -3.997   0.220  0.00  0.00    +0.212 C 
ATOM     21  C   UNL     1       2.350  -4.502   1.128  0.00  0.00    +0.109 C 
ENDBRANCH   3  10
ENDBRANCH  19  11
TORSDOF 4
