REMARK  Name = 75537104
REMARK  3 active torsions:
REMARK  status: ('A' for Active; 'I' for Inactive)
REMARK    1  A    between atoms: N_3  and  C_12
REMARK    2  A    between atoms: N_4  and  C_13
REMARK    3  A    between atoms: C_12  and  C_14
REMARK                            x       y       z     vdW  Elec       q    Type
REMARK                         _______ _______ _______ _____ _____    ______ ____
ROOT
ATOM      1  O   UNL     1       4.619   0.966  -0.110  0.00  0.00    -0.252 OA
ATOM      2  N   UNL     1       2.303   0.615  -0.280  0.00  0.00    -0.278 N 
ATOM      3  N   UNL     1      -0.447   0.966   0.194  0.00  0.00    -0.293 NA
ATOM      4  N   UNL     1       3.641  -1.181  -0.106  0.00  0.00    -0.287 N 
ATOM      6  C   UNL     1       1.413  -0.517  -0.434  0.00  0.00    +0.109 C 
ATOM      7  C   UNL     1       0.178  -0.347   0.450  0.00  0.00    +0.109 C 
ATOM      8  C   UNL     1       2.291  -1.718  -0.086  0.00  0.00    +0.132 C 
ATOM      9  C   UNL     1       1.764   1.956  -0.364  0.00  0.00    +0.125 C 
ATOM     10  C   UNL     1       0.496   2.064   0.488  0.00  0.00    +0.104 C 
ATOM     11  C   UNL     1       3.644   0.228  -0.164  0.00  0.00    +0.305 C 
ATOM     13  C   UNL     1       4.804  -2.022   0.068  0.00  0.00    +0.133 C 
ENDROOT
BRANCH   3  12
ATOM     12  C   UNL     1      -1.665   1.114   0.991  0.00  0.00    +0.140 C 
BRANCH  12  14
ATOM      5  N   UNL     1      -3.145  -0.816   1.019  0.00  0.00    -0.259 NA
ATOM     14  C   UNL     1      -2.816   0.342   0.405  0.00  0.00    +0.055 A 
ATOM     15  C   UNL     1      -3.470   0.842  -0.710  0.00  0.00    +0.024 A 
ATOM     16  C   UNL     1      -4.530   0.105  -1.227  0.00  0.00    +0.003 A 
ATOM     17  C   UNL     1      -4.180  -1.505   0.488  0.00  0.00    +0.111 A 
ATOM     18  C   UNL     1      -4.899  -1.092  -0.622  0.00  0.00    +0.020 A 
ENDBRANCH  12  14
ENDBRANCH   3  12
TORSDOF 2
