REMARK  Name = 7144173
REMARK  3 active torsions:
REMARK  status: ('A' for Active; 'I' for Inactive)
REMARK    1  A    between atoms: S_1  and  N_6
REMARK    2  A    between atoms: S_1  and  C_20
REMARK    3  A    between atoms: C_15  and  C_19
REMARK                            x       y       z     vdW  Elec       q    Type
REMARK                         _______ _______ _______ _____ _____    ______ ____
ROOT
ATOM      5  O   UNL     1      -3.276   3.331   0.912  0.00  0.00    -0.268 OA
ATOM      6  N   UNL     1      -2.387  -1.421  -0.128  0.00  0.00    -0.180 NA
ATOM      7  N   UNL     1      -1.983   1.699  -0.162  0.00  0.00    -0.311 N 
ATOM      8  C   UNL     1      -2.989   0.163  -1.953  0.00  0.00    +0.025 C 
ATOM      9  C   UNL     1      -0.636  -0.094  -1.299  0.00  0.00    +0.053 C 
ATOM     10  C   UNL     1      -1.569   0.103  -2.491  0.00  0.00    +0.017 C 
ATOM     11  C   UNL     1      -3.353  -1.141  -1.226  0.00  0.00    +0.114 C 
ATOM     12  C   UNL     1      -0.972  -1.427  -0.602  0.00  0.00    +0.118 C 
ATOM     13  C   UNL     1      -3.115   1.387  -1.046  0.00  0.00    +0.130 C 
ATOM     14  C   UNL     1      -0.727   1.075  -0.309  0.00  0.00    +0.035 A 
ATOM     15  C   UNL     1       0.332   1.505   0.428  0.00  0.00    +0.009 A 
ATOM     16  C   UNL     1      -2.206   2.743   0.754  0.00  0.00    +0.252 A 
ATOM     17  C   UNL     1       0.135   2.576   1.389  0.00  0.00    +0.016 A 
ATOM     18  C   UNL     1      -1.047   3.163   1.572  0.00  0.00    +0.071 A 
ENDROOT
BRANCH  15  19
ATOM      2  S   UNL     1       2.727   1.549  -0.854  0.00  0.00    -0.088 S 
ATOM     19  C   UNL     1       1.629   0.902   0.277  0.00  0.00    +0.022 A 
ATOM     21  C   UNL     1       2.151  -0.181   0.943  0.00  0.00    +0.024 A 
ATOM     22  C   UNL     1       3.487  -0.501   0.526  0.00  0.00    -0.010 A 
ATOM     23  C   UNL     1       3.932   0.378  -0.466  0.00  0.00    +0.020 A 
ATOM     24  C   UNL     1       4.365  -1.525   0.957  0.00  0.00    +0.009 A 
ATOM     25  C   UNL     1       5.217   0.260  -1.032  0.00  0.00    +0.015 A 
ATOM     26  C   UNL     1       5.640  -1.644   0.398  0.00  0.00    +0.001 A 
ATOM     27  C   UNL     1       6.059  -0.760  -0.586  0.00  0.00    +0.001 A 
ENDBRANCH  15  19
BRANCH   6   1
ATOM      1  S   UNL     1      -2.818  -2.692   0.933  0.00  0.00    +0.029 S 
ATOM      3  O   UNL     1      -4.246  -2.647   1.160  0.00  0.00    -0.158 OA
ATOM      4  O   UNL     1      -1.875  -2.725   2.030  0.00  0.00    -0.158 OA
ATOM     20  C   UNL     1      -2.475  -4.075  -0.125  0.00  0.00    +0.215 C 
ENDBRANCH   6   1
TORSDOF 2
