REMARK  Name = 45360872
REMARK  7 active torsions:
REMARK  status: ('A' for Active; 'I' for Inactive)
REMARK    1  A    between atoms: N_3  and  C_17
REMARK    2  A    between atoms: N_4  and  C_18
REMARK    3  A    between atoms: N_7  and  C_28
REMARK    4  A    between atoms: C_13  and  C_16
REMARK    5  A    between atoms: C_16  and  C_19
REMARK    6  A    between atoms: C_17  and  C_20
REMARK    7  A    between atoms: C_19  and  C_21
REMARK                            x       y       z     vdW  Elec       q    Type
REMARK                         _______ _______ _______ _____ _____    ______ ____
ROOT
ATOM      1  O   UNL     1       0.234   0.652   1.446  0.00  0.00    -0.274 OA
ATOM      3  N   UNL     1      -1.492  -0.975   0.155  0.00  0.00    -0.283 NA
ATOM      4  N   UNL     1       1.874  -1.989  -0.861  0.00  0.00    -0.296 NA
ATOM      5  N   UNL     1       1.792  -0.977   1.839  0.00  0.00    -0.312 N 
ATOM      9  C   UNL     1       0.432  -2.228  -0.632  0.00  0.00    +0.084 C 
ATOM     10  C   UNL     1      -0.235  -1.589   0.622  0.00  0.00    +0.161 C 
ATOM     11  C   UNL     1      -0.474  -1.723  -1.770  0.00  0.00    +0.036 C 
ATOM     12  C   UNL     1      -1.834  -1.609  -1.113  0.00  0.00    +0.087 C 
ATOM     13  C   UNL     1       2.767  -2.548   0.192  0.00  0.00    +0.074 C 
ATOM     14  C   UNL     1       0.597  -0.516   1.320  0.00  0.00    +0.232 C 
ATOM     15  C   UNL     1       2.284  -2.325   1.638  0.00  0.00    +0.123 C 
ATOM     18  C   UNL     1       2.281  -2.479  -2.189  0.00  0.00    +0.105 C 
ATOM     33  H   UNL     1       2.355  -0.331   2.384  0.00  0.00    +0.149 HD
ENDROOT
BRANCH  13  16
ATOM     16  C   UNL     1       4.182  -1.942   0.077  0.00  0.00    +0.029 C 
BRANCH  16  19
ATOM     19  C   UNL     1       4.145  -0.430  -0.032  0.00  0.00    +0.097 C 
BRANCH  19  21
ATOM      2  O   UNL     1       6.520  -0.595  -0.088  0.00  0.00    -0.276 OA
ATOM      6  N   UNL     1       5.606   1.522  -0.219  0.00  0.00    -0.301 N 
ATOM     21  C   UNL     1       5.536   0.145  -0.117  0.00  0.00    +0.216 C 
ATOM     22  C   UNL     1       6.874   2.232  -0.302  0.00  0.00    +0.108 C 
ATOM     23  C   UNL     1       4.482   2.453  -0.262  0.00  0.00    +0.108 C 
ATOM     24  C   UNL     1       6.493   3.643  -0.724  0.00  0.00    +0.020 C 
ATOM     25  C   UNL     1       5.118   3.825  -0.094  0.00  0.00    +0.020 C 
ENDBRANCH  19  21
ENDBRANCH  16  19
ENDBRANCH  13  16
BRANCH   3  17
ATOM     17  C   UNL     1      -2.576  -1.068   1.125  0.00  0.00    +0.159 C 
BRANCH  17  20
ATOM      7  N   UNL     1      -3.980   0.957   0.619  0.00  0.00    -0.330 N 
ATOM      8  N   UNL     1      -4.896  -1.016   0.161  0.00  0.00    -0.231 NA
ATOM     20  C   UNL     1      -3.832  -0.403   0.628  0.00  0.00    +0.125 A 
ATOM     26  C   UNL     1      -5.223   1.239   0.113  0.00  0.00    +0.069 A 
ATOM     27  C   UNL     1      -5.774  -0.009  -0.165  0.00  0.00    +0.089 A 
ATOM     28  C   UNL     1      -3.004   1.926   1.063  0.00  0.00    +0.150 C 
ATOM     29  C   UNL     1      -5.891   2.441  -0.118  0.00  0.00    +0.028 A 
ATOM     30  C   UNL     1      -7.069  -0.080  -0.707  0.00  0.00    +0.030 A 
ATOM     31  C   UNL     1      -7.178   2.352  -0.658  0.00  0.00    +0.002 A 
ATOM     32  C   UNL     1      -7.759   1.115  -0.947  0.00  0.00    +0.002 A 
ENDBRANCH  17  20
ENDBRANCH   3  17
TORSDOF 5
