REMARK  Name = 11884359
REMARK  6 active torsions:
REMARK  status: ('A' for Active; 'I' for Inactive)
REMARK    1  A    between atoms: S_1  and  N_8
REMARK    2  A    between atoms: S_1  and  C_16
REMARK    3  A    between atoms: O_4  and  C_13
REMARK    4  A    between atoms: N_8  and  C_12
REMARK    5  A    between atoms: N_9  and  C_21
REMARK    6  A    between atoms: C_22  and  C_23
REMARK                            x       y       z     vdW  Elec       q    Type
REMARK                         _______ _______ _______ _____ _____    ______ ____
ROOT
ATOM      1  S   UNL     1       0.816  -2.867   0.101  0.00  0.00    +0.059 S 
ATOM      5  O   UNL     1       0.817  -3.311   1.482  0.00  0.00    -0.153 OA
ATOM      6  O   UNL     1       0.803  -3.837  -0.977  0.00  0.00    -0.153 OA
ENDROOT
BRANCH   1  16
ATOM     16  C   UNL     1      -0.589  -1.818  -0.133  0.00  0.00    +0.105 A 
ATOM     17  C   UNL     1      -1.122  -1.151   0.956  0.00  0.00    +0.030 A 
ATOM     18  C   UNL     1      -1.129  -1.685  -1.400  0.00  0.00    +0.030 A 
ATOM     19  C   UNL     1      -2.230  -0.324   0.772  0.00  0.00    +0.025 A 
ATOM     20  C   UNL     1      -2.236  -0.857  -1.584  0.00  0.00    +0.025 A 
ATOM     21  C   UNL     1      -2.787  -0.177  -0.498  0.00  0.00    +0.033 A 
BRANCH  21   9
ATOM      7  O   UNL     1      -4.331   1.491   1.477  0.00  0.00    -0.276 OA
ATOM      9  N   UNL     1      -3.895   0.651  -0.682  0.00  0.00    -0.286 N 
ATOM     22  C   UNL     1      -4.579   1.407   0.278  0.00  0.00    +0.214 C 
ATOM     23  C   UNL     1      -5.729   2.172  -0.327  0.00  0.00    +0.109 C 
ATOM     26  H   UNL     1      -4.243   0.705  -1.638  0.00  0.00    +0.155 HD
ENDBRANCH  21   9
ENDBRANCH   1  16
BRANCH   1   8
ATOM      8  N   UNL     1       2.103  -1.787  -0.147  0.00  0.00    -0.182 NA
ATOM     24  H   UNL     1       2.530  -1.732  -1.081  0.00  0.00    +0.148 HD
BRANCH   8  12
ATOM      2  O   UNL     1       3.970   0.708  -0.268  0.00  0.00    -0.370 OA
ATOM      3  O   UNL     1       1.388   1.622   1.087  0.00  0.00    -0.370 OA
ATOM     10  C   UNL     1       1.629   0.616   0.079  0.00  0.00    +0.170 C 
ATOM     11  C   UNL     1       2.720   1.155  -0.823  0.00  0.00    +0.179 C 
ATOM     12  C   UNL     1       2.245  -0.613   0.712  0.00  0.00    +0.133 C 
ATOM     13  C   UNL     1       2.551   2.648  -0.684  0.00  0.00    +0.171 C 
ATOM     14  C   UNL     1       3.711  -0.213   0.804  0.00  0.00    +0.183 C 
ATOM     15  C   UNL     1       2.157   2.791   0.769  0.00  0.00    +0.194 C 
BRANCH  13   4
ATOM      4  O   UNL     1       3.717   3.378  -0.992  0.00  0.00    -0.387 OA
ATOM     25  H   UNL     1       4.445   3.021  -0.456  0.00  0.00    +0.210 HD
ENDBRANCH  13   4
ENDBRANCH   8  12
ENDBRANCH   1   8
TORSDOF 5
