REMARK  Name = 7113393
REMARK  15 active torsions:
REMARK  status: ('A' for Active; 'I' for Inactive)
REMARK    1  A    between atoms: S_1  and  N_9
REMARK    2  A    between atoms: S_1  and  C_19
REMARK    3  A    between atoms: O_6  and  C_25
REMARK    4  A    between atoms: O_6  and  C_40
REMARK    5  A    between atoms: O_8  and  C_39
REMARK    6  A    between atoms: O_8  and  C_43
REMARK    7  A    between atoms: N_11  and  C_20
REMARK    8  A    between atoms: N_12  and  C_34
REMARK    9  A    between atoms: N_12  and  C_41
REMARK   10  A    between atoms: N_12  and  C_42
REMARK   11  A    between atoms: C_13  and  C_17
REMARK   12  A    between atoms: C_18  and  C_21
REMARK   13  A    between atoms: C_20  and  C_22
REMARK   14  A    between atoms: C_20  and  C_25
REMARK   15  A    between atoms: C_22  and  C_28
REMARK                            x       y       z     vdW  Elec       q    Type
REMARK                         _______ _______ _______ _____ _____    ______ ____
ROOT
ATOM      5  O   UNL     1      -1.457  -1.890  -1.524  0.00  0.00    -0.270 OA
ATOM      9  N   UNL     1      -0.433   2.477   0.834  0.00  0.00    -0.162 NA
ATOM     10  N   UNL     1      -1.627   0.161  -0.412  0.00  0.00    -0.294 N 
ATOM     13  C   UNL     1       0.425   1.466   0.156  0.00  0.00    +0.183 C 
ATOM     14  C   UNL     1      -0.326   0.638  -0.883  0.00  0.00    +0.138 C 
ATOM     15  C   UNL     1      -1.850   2.501   0.385  0.00  0.00    +0.129 C 
ATOM     16  C   UNL     1      -2.408   1.086   0.416  0.00  0.00    +0.125 C 
ATOM     18  C   UNL     1      -2.087  -1.093  -0.831  0.00  0.00    +0.247 C 
ENDROOT
BRANCH  18  21
ATOM     21  C   UNL     1      -3.437  -1.505  -0.416  0.00  0.00    +0.037 A 
ATOM     26  C   UNL     1      -3.616  -2.203   0.778  0.00  0.00    +0.015 A 
ATOM     27  C   UNL     1      -4.537  -1.198  -1.217  0.00  0.00    +0.015 A 
ATOM     32  C   UNL     1      -4.896  -2.594   1.172  0.00  0.00    +0.024 A 
ATOM     33  C   UNL     1      -5.817  -1.589  -0.823  0.00  0.00    +0.024 A 
ATOM     34  C   UNL     1      -5.996  -2.287   0.371  0.00  0.00    +0.029 A 
BRANCH  34  12
ATOM     12  N   UNL     1      -7.290  -2.684   0.768  0.00  0.00    -0.336 N 
ATOM     41  C   UNL     1      -7.485  -3.422   2.001  0.00  0.00    +0.129 C 
ATOM     42  C   UNL     1      -8.440  -2.372  -0.057  0.00  0.00    +0.129 C 
ENDBRANCH  34  12
ENDBRANCH  18  21
BRANCH  13  17
ATOM      4  O   UNL     1       0.263   0.366   2.264  0.00  0.00    -0.274 OA
ATOM     11  N   UNL     1       2.231   0.170   1.037  0.00  0.00    -0.301 N 
ATOM     17  C   UNL     1       0.939   0.609   1.268  0.00  0.00    +0.234 C 
ATOM     44  H   UNL     1       2.691   0.415   0.164  0.00  0.00    +0.150 HD
BRANCH  11  20
ATOM     20  C   UNL     1       2.965  -0.655   1.970  0.00  0.00    +0.186 C 
BRANCH  20  25
ATOM      7  O   UNL     1       4.963   0.468   1.204  0.00  0.00    -0.249 OA
ATOM     25  C   UNL     1       4.453  -0.333   1.982  0.00  0.00    +0.328 C 
BRANCH  25   6
ATOM      6  O   UNL     1       5.126  -1.044   2.929  0.00  0.00    -0.467 OA
ATOM     40  C   UNL     1       6.537  -0.814   2.994  0.00  0.00    +0.280 C 
ENDBRANCH  25   6
ENDBRANCH  20  25
BRANCH  20  22
ATOM     22  C   UNL     1       2.701  -2.147   1.723  0.00  0.00    +0.069 C 
BRANCH  22  28
ATOM     28  C   UNL     1       3.177  -2.660   0.382  0.00  0.00    -0.045 A 
ATOM     35  C   UNL     1       4.470  -3.166   0.249  0.00  0.00    +0.007 A 
ATOM     36  C   UNL     1       2.324  -2.627  -0.721  0.00  0.00    +0.007 A 
ATOM     37  C   UNL     1       4.910  -3.639  -0.988  0.00  0.00    +0.046 A 
ATOM     38  C   UNL     1       2.764  -3.099  -1.957  0.00  0.00    +0.046 A 
ATOM     39  C   UNL     1       4.056  -3.606  -2.091  0.00  0.00    +0.120 A 
BRANCH  39   8
ATOM      8  O   UNL     1       4.486  -4.066  -3.297  0.00  0.00    -0.495 OA
ATOM     43  C   UNL     1       3.562  -4.002  -4.383  0.00  0.00    +0.277 C 
ENDBRANCH  39   8
ENDBRANCH  22  28
ENDBRANCH  20  22
ENDBRANCH  11  20
ENDBRANCH  13  17
BRANCH   9   1
ATOM      1  S   UNL     1       0.279   3.995   1.167  0.00  0.00    +0.062 S 
ATOM      2  O   UNL     1       1.691   3.809   1.426  0.00  0.00    -0.153 OA
ATOM      3  O   UNL     1      -0.561   4.715   2.100  0.00  0.00    -0.153 OA
BRANCH   1  19
ATOM     19  C   UNL     1       0.118   4.765  -0.414  0.00  0.00    +0.106 A 
ATOM     23  C   UNL     1       1.133   4.632  -1.361  0.00  0.00    +0.028 A 
ATOM     24  C   UNL     1      -1.025   5.505  -0.716  0.00  0.00    +0.028 A 
ATOM     29  C   UNL     1       1.006   5.239  -2.610  0.00  0.00    +0.002 A 
ATOM     30  C   UNL     1      -1.153   6.112  -1.965  0.00  0.00    +0.002 A 
ATOM     31  C   UNL     1      -0.137   5.979  -2.912  0.00  0.00    +0.000 A 
ENDBRANCH   1  19
ENDBRANCH   9   1
TORSDOF 11
