REMARK  Name = 71693937
REMARK  8 active torsions:
REMARK  status: ('A' for Active; 'I' for Inactive)
REMARK    1  A    between atoms: O_4  and  C_11
REMARK    2  A    between atoms: O_5  and  C_13
REMARK    3  A    between atoms: O_7  and  C_27
REMARK    4  A    between atoms: O_7  and  C_28
REMARK    5  A    between atoms: N_8  and  C_10
REMARK    6  A    between atoms: C_9  and  C_14
REMARK    7  A    between atoms: C_17  and  C_21
REMARK    8  A    between atoms: C_20  and  C_22
REMARK                            x       y       z     vdW  Elec       q    Type
REMARK                         _______ _______ _______ _____ _____    ______ ____
ROOT
ATOM      9  C   UNL     1       1.046   1.782   1.019  0.00  0.00    +0.044 C 
ATOM     10  C   UNL     1       0.080   2.124  -0.137  0.00  0.00    +0.112 C 
ATOM     11  C   UNL     1      -0.099   3.637  -0.016  0.00  0.00    +0.164 C 
ATOM     12  C   UNL     1       1.806   3.096   1.337  0.00  0.00    +0.044 C 
ATOM     13  C   UNL     1       1.304   4.125   0.325  0.00  0.00    +0.145 C 
ENDROOT
BRANCH   9  14
ATOM     14  C   UNL     1       1.943   0.601   0.713  0.00  0.00    -0.042 A 
ATOM     15  C   UNL     1       1.903  -0.533   1.524  0.00  0.00    +0.004 A 
ATOM     16  C   UNL     1       2.807   0.647  -0.381  0.00  0.00    +0.004 A 
ATOM     18  C   UNL     1       2.728  -1.621   1.242  0.00  0.00    +0.012 A 
ATOM     19  C   UNL     1       3.632  -0.442  -0.663  0.00  0.00    +0.012 A 
ATOM     20  C   UNL     1       3.593  -1.576   0.148  0.00  0.00    +0.055 A 
BRANCH  20  22
ATOM      1  F   UNL     1       5.805  -2.442  -0.129  0.00  0.00    -0.166 F 
ATOM      2  F   UNL     1       4.255  -3.284  -1.390  0.00  0.00    -0.166 F 
ATOM      3  F   UNL     1       4.310  -3.767   0.730  0.00  0.00    -0.166 F 
ATOM     22  C   UNL     1       4.473  -2.741  -0.156  0.00  0.00    +0.417 C 
ENDBRANCH  20  22
ENDBRANCH   9  14
BRANCH  10   8
ATOM      6  O   UNL     1      -0.599  -0.392  -1.343  0.00  0.00    -0.270 OA
ATOM      8  N   UNL     1      -1.174   1.423  -0.019  0.00  0.00    -0.305 N 
ATOM     17  C   UNL     1      -1.411   0.205  -0.642  0.00  0.00    +0.244 C 
ATOM     29  H   UNL     1      -1.901   1.871   0.528  0.00  0.00    +0.149 HD
BRANCH  17  21
ATOM     21  C   UNL     1      -2.764  -0.376  -0.443  0.00  0.00    +0.037 A 
ATOM     23  C   UNL     1      -3.304  -1.230  -1.404  0.00  0.00    +0.016 A 
ATOM     24  C   UNL     1      -3.494  -0.066   0.705  0.00  0.00    +0.016 A 
ATOM     25  C   UNL     1      -4.575  -1.774  -1.218  0.00  0.00    +0.046 A 
ATOM     26  C   UNL     1      -4.765  -0.611   0.891  0.00  0.00    +0.046 A 
ATOM     27  C   UNL     1      -5.305  -1.464  -0.071  0.00  0.00    +0.120 A 
BRANCH  27   7
ATOM      7  O   UNL     1      -6.545  -1.996   0.111  0.00  0.00    -0.495 OA
ATOM     28  C   UNL     1      -7.237  -1.637   1.306  0.00  0.00    +0.277 C 
ENDBRANCH  27   7
ENDBRANCH  17  21
ENDBRANCH  10   8
BRANCH  11   4
ATOM      4  O   UNL     1      -0.564   4.220  -1.219  0.00  0.00    -0.387 OA
ATOM     30  H   UNL     1      -0.561   5.184  -1.096  0.00  0.00    +0.210 HD
ENDBRANCH  11   4
BRANCH  13   5
ATOM      5  O   UNL     1       2.150   4.089  -0.820  0.00  0.00    -0.389 OA
ATOM     31  H   UNL     1       3.036   4.371  -0.537  0.00  0.00    +0.210 HD
ENDBRANCH  13   5
TORSDOF 7
