REMARK  Name = 11912458
REMARK  10 active torsions:
REMARK  status: ('A' for Active; 'I' for Inactive)
REMARK    1  A    between atoms: S_1  and  N_6
REMARK    2  A    between atoms: S_1  and  C_17
REMARK    3  A    between atoms: O_5  and  C_23
REMARK    4  A    between atoms: O_5  and  C_26
REMARK    5  A    between atoms: N_7  and  C_20
REMARK    6  A    between atoms: C_8  and  C_13
REMARK    7  A    between atoms: C_9  and  C_14
REMARK    8  A    between atoms: C_13  and  C_15
REMARK    9  A    between atoms: C_14  and  C_16
REMARK   10  A    between atoms: C_20  and  C_24
REMARK                            x       y       z     vdW  Elec       q    Type
REMARK                         _______ _______ _______ _____ _____    ______ ____
ROOT
ATOM      6  N   UNL     1       0.793   1.568   0.612  0.00  0.00    -0.176 NA
ATOM      8  C   UNL     1      -0.945   1.793  -1.150  0.00  0.00    +0.008 C 
ATOM      9  C   UNL     1      -1.735   0.639  -0.487  0.00  0.00    +0.003 C 
ATOM     10  C   UNL     1      -1.404   0.519   1.009  0.00  0.00    +0.021 C 
ATOM     11  C   UNL     1       0.556   1.632  -0.861  0.00  0.00    +0.113 C 
ATOM     12  C   UNL     1       0.100   0.407   1.240  0.00  0.00    +0.110 C 
ENDROOT
BRANCH   6   1
ATOM      1  S   UNL     1       2.418   1.804   1.103  0.00  0.00    +0.061 S 
ATOM      2  O   UNL     1       2.471   1.855   2.549  0.00  0.00    -0.153 OA
ATOM      3  O   UNL     1       3.004   2.852   0.297  0.00  0.00    -0.153 OA
BRANCH   1  17
ATOM     17  C   UNL     1       3.119   0.267   0.591  0.00  0.00    +0.106 A 
ATOM     18  C   UNL     1       3.654   0.137  -0.691  0.00  0.00    +0.032 A 
ATOM     19  C   UNL     1       3.141  -0.817   1.469  0.00  0.00    +0.032 A 
ATOM     21  C   UNL     1       4.209  -1.077  -1.095  0.00  0.00    +0.047 A 
ATOM     22  C   UNL     1       3.696  -2.031   1.064  0.00  0.00    +0.047 A 
ATOM     23  C   UNL     1       4.230  -2.161  -0.218  0.00  0.00    +0.120 A 
BRANCH  23   5
ATOM      5  O   UNL     1       4.771  -3.346  -0.613  0.00  0.00    -0.495 OA
ATOM     26  C   UNL     1       5.298  -3.410  -1.937  0.00  0.00    +0.277 C 
ENDBRANCH  23   5
ENDBRANCH   1  17
ENDBRANCH   6   1
BRANCH   8  13
ATOM     13  C   UNL     1      -1.424   3.193  -0.745  0.00  0.00    +0.002 C 
ATOM     15  C   UNL     1      -0.681   4.267  -1.511  0.00  0.00    +0.004 C 
ENDBRANCH   8  13
BRANCH   9  14
ATOM     14  C   UNL     1      -3.245   0.745  -0.698  0.00  0.00    +0.099 C 
BRANCH  14  16
ATOM      4  O   UNL     1      -3.349  -1.639  -0.302  0.00  0.00    -0.276 OA
ATOM      7  N   UNL     1      -5.310  -0.466  -0.724  0.00  0.00    -0.312 N 
ATOM     16  C   UNL     1      -3.940  -0.591  -0.547  0.00  0.00    +0.214 C 
ATOM     27  H   UNL     1      -5.704   0.452  -0.909  0.00  0.00    +0.149 HD
BRANCH   7  20
ATOM     20  C   UNL     1      -6.223  -1.583  -0.638  0.00  0.00    +0.131 C 
BRANCH  20  24
ATOM     24  C   UNL     1      -6.688  -1.726   0.773  0.00  0.00    -0.016 C 
ATOM     25  C   UNL     1      -6.518  -2.832   1.506  0.00  0.00    +0.005 C 
ENDBRANCH  20  24
ENDBRANCH   7  20
ENDBRANCH  14  16
ENDBRANCH   9  14
TORSDOF 8
