REMARK  Name = 45361387
REMARK  12 active torsions:
REMARK  status: ('A' for Active; 'I' for Inactive)
REMARK    1  A    between atoms: O_1  and  C_11
REMARK    2  A    between atoms: O_4  and  C_31
REMARK    3  A    between atoms: O_4  and  C_36
REMARK    4  A    between atoms: N_5  and  C_15
REMARK    5  A    between atoms: N_6  and  C_25
REMARK    6  A    between atoms: C_8  and  C_18
REMARK    7  A    between atoms: C_10  and  C_20
REMARK    8  A    between atoms: C_14  and  C_19
REMARK    9  A    between atoms: C_19  and  C_21
REMARK   10  A    between atoms: C_19  and  C_22
REMARK   11  A    between atoms: C_23  and  C_24
REMARK   12  A    between atoms: C_25  and  C_28
REMARK                            x       y       z     vdW  Elec       q    Type
REMARK                         _______ _______ _______ _____ _____    ______ ____
ROOT
ATOM      8  C   UNL     1       0.590   0.473   1.165  0.00  0.00    -0.027 C 
ATOM      9  C   UNL     1       0.256  -0.445  -0.057  0.00  0.00    +0.028 C 
ATOM     10  C   UNL     1      -1.272  -0.808  -0.083  0.00  0.00    +0.012 C 
ATOM     11  C   UNL     1       1.232  -1.654  -0.138  0.00  0.00    +0.122 C 
ATOM     12  C   UNL     1       2.075   0.904   1.097  0.00  0.00    +0.007 C 
ATOM     13  C   UNL     1      -0.275   1.752   1.087  0.00  0.00    +0.009 C 
ATOM     14  C   UNL     1       2.717  -1.223  -0.101  0.00  0.00    +0.029 C 
ATOM     15  C   UNL     1      -2.133   0.486  -0.086  0.00  0.00    +0.076 C 
ATOM     16  C   UNL     1       3.035  -0.278   1.058  0.00  0.00    +0.007 C 
ATOM     17  C   UNL     1      -1.768   1.462   1.033  0.00  0.00    +0.023 C 
ATOM     18  C   UNL     1       0.338  -0.231   2.523  0.00  0.00    +0.011 C 
ATOM     20  C   UNL     1      -1.676  -1.687  -1.278  0.00  0.00    +0.010 C 
ENDROOT
BRANCH  15   5
ATOM      3  O   UNL     1      -4.282   1.996  -1.246  0.00  0.00    -0.270 OA
ATOM      5  N   UNL     1      -3.547   0.190   0.008  0.00  0.00    -0.308 N 
ATOM     23  C   UNL     1      -4.511   0.983  -0.590  0.00  0.00    +0.244 C 
ATOM     37  H   UNL     1      -3.816  -0.565   0.630  0.00  0.00    +0.149 HD
BRANCH  23  24
ATOM     24  C   UNL     1      -5.919   0.558  -0.378  0.00  0.00    +0.037 A 
ATOM     26  C   UNL     1      -6.945   1.502  -0.415  0.00  0.00    +0.016 A 
ATOM     27  C   UNL     1      -6.214  -0.784  -0.140  0.00  0.00    +0.016 A 
ATOM     29  C   UNL     1      -8.267   1.104  -0.213  0.00  0.00    +0.046 A 
ATOM     30  C   UNL     1      -7.536  -1.183   0.061  0.00  0.00    +0.046 A 
ATOM     31  C   UNL     1      -8.562  -0.238   0.025  0.00  0.00    +0.120 A 
BRANCH  31   4
ATOM      4  O   UNL     1      -9.852  -0.628   0.220  0.00  0.00    -0.495 OA
ATOM     36  C   UNL     1     -10.851   0.389   0.169  0.00  0.00    +0.277 C 
ENDBRANCH  31   4
ENDBRANCH  23  24
ENDBRANCH  15   5
BRANCH  11   1
ATOM      1  O   UNL     1       1.038  -2.342  -1.374  0.00  0.00    -0.391 OA
ATOM     38  H   UNL     1       1.212  -1.718  -2.099  0.00  0.00    +0.210 HD
ENDBRANCH  11   1
BRANCH  14  19
ATOM     19  C   UNL     1       3.659  -2.432  -0.049  0.00  0.00    +0.077 C 
ATOM     21  C   UNL     1       3.369  -3.271   1.190  0.00  0.00    +0.017 C 
BRANCH  19  22
ATOM      2  O   UNL     1       5.912  -2.230   0.818  0.00  0.00    -0.276 OA
ATOM      6  N   UNL     1       5.405  -1.210  -1.203  0.00  0.00    -0.309 N 
ATOM     22  C   UNL     1       5.110  -1.962  -0.075  0.00  0.00    +0.217 C 
ATOM     39  H   UNL     1       4.702  -1.078  -1.922  0.00  0.00    +0.149 HD
BRANCH   6  25
ATOM     25  C   UNL     1       6.715  -0.653  -1.450  0.00  0.00    +0.159 C 
BRANCH  25  28
ATOM      7  N   UNL     1       7.621   0.770   0.298  0.00  0.00    -0.258 NA
ATOM     28  C   UNL     1       6.875   0.704  -0.828  0.00  0.00    +0.058 A 
ATOM     32  C   UNL     1       6.267   1.798  -1.421  0.00  0.00    +0.025 A 
ATOM     33  C   UNL     1       6.435   3.041  -0.820  0.00  0.00    +0.003 A 
ATOM     34  C   UNL     1       7.762   1.995   0.854  0.00  0.00    +0.111 A 
ATOM     35  C   UNL     1       7.196   3.150   0.339  0.00  0.00    +0.020 A 
ENDBRANCH  25  28
ENDBRANCH   6  25
ENDBRANCH  19  22
ENDBRANCH  14  19
TORSDOF 8
