REMARK  Name = 38027577
REMARK  13 active torsions:
REMARK  status: ('A' for Active; 'I' for Inactive)
REMARK    1  A    between atoms: O_4  and  C_22
REMARK    2  A    between atoms: O_4  and  C_26
REMARK    3  A    between atoms: N_5  and  C_14
REMARK    4  A    between atoms: N_6  and  C_21
REMARK    5  A    between atoms: C_7  and  C_11
REMARK    6  A    between atoms: C_8  and  C_14
REMARK    7  A    between atoms: C_10  and  C_15
REMARK    8  A    between atoms: C_11  and  C_16
REMARK    9  A    between atoms: C_11  and  C_17
REMARK   10  A    between atoms: C_12  and  C_18
REMARK   11  A    between atoms: C_15  and  C_19
REMARK   12  A    between atoms: C_20  and  C_22
REMARK   13  A    between atoms: C_21  and  C_23
REMARK                            x       y       z     vdW  Elec       q    Type
REMARK                         _______ _______ _______ _____ _____    ______ ____
ROOT
ATOM      7  C   UNL     1      -1.497  -0.345  -1.303  0.00  0.00    +0.000 C 
ATOM      8  C   UNL     1      -3.031  -0.165  -1.419  0.00  0.00    +0.032 C 
ATOM      9  C   UNL     1      -1.149  -1.815  -1.023  0.00  0.00    +0.012 C 
ATOM     10  C   UNL     1      -1.801  -2.331   0.274  0.00  0.00    +0.023 C 
ATOM     12  C   UNL     1      -3.266  -1.955   0.356  0.00  0.00    -0.073 C 
ATOM     13  C   UNL     1      -3.801  -0.994  -0.418  0.00  0.00    -0.022 C 
ATOM     18  C   UNL     1      -4.114  -2.740   1.317  0.00  0.00    +0.039 C 
ENDROOT
BRANCH   7  11
ATOM     11  C   UNL     1      -0.771   0.128  -2.567  0.00  0.00    -0.013 C 
ATOM     16  C   UNL     1      -0.816  -0.953  -3.642  0.00  0.00    +0.007 C 
ATOM     17  C   UNL     1       0.670   0.509  -2.242  0.00  0.00    +0.007 C 
ENDBRANCH   7  11
BRANCH   8  14
ATOM     14  C   UNL     1      -3.427   1.309  -1.275  0.00  0.00    +0.112 C 
BRANCH  14   5
ATOM      3  O   UNL     1      -1.658   3.480  -0.552  0.00  0.00    -0.273 OA
ATOM      5  N   UNL     1      -3.139   1.785   0.041  0.00  0.00    -0.313 N 
ATOM     20  C   UNL     1      -2.269   2.844   0.302  0.00  0.00    +0.239 C 
ATOM     30  H   UNL     1      -3.644   1.369   0.819  0.00  0.00    +0.149 HD
BRANCH  20  22
ATOM     22  C   UNL     1      -2.151   3.137   1.782  0.00  0.00    +0.255 C 
BRANCH  22   4
ATOM      4  O   UNL     1      -0.878   3.668   2.085  0.00  0.00    -0.374 OA
ATOM     26  C   UNL     1       0.114   2.649   2.180  0.00  0.00    +0.194 C 
ENDBRANCH  22   4
ENDBRANCH  20  22
ENDBRANCH  14   5
ENDBRANCH   8  14
BRANCH  10  15
ATOM     15  C   UNL     1      -1.038  -1.839   1.509  0.00  0.00    +0.103 C 
BRANCH  15  19
ATOM      2  O   UNL     1       0.874  -3.179   0.875  0.00  0.00    -0.276 OA
ATOM      6  N   UNL     1       1.197  -1.235   2.107  0.00  0.00    -0.311 N 
ATOM     19  C   UNL     1       0.433  -2.184   1.443  0.00  0.00    +0.214 C 
ATOM     31  H   UNL     1       0.740  -0.440   2.543  0.00  0.00    +0.149 HD
BRANCH   6  21
ATOM     21  C   UNL     1       2.636  -1.311   2.207  0.00  0.00    +0.139 C 
BRANCH  21  23
ATOM      1  F   UNL     1       5.190   1.311  -2.072  0.00  0.00    -0.205 F 
ATOM     23  C   UNL     1       3.316  -0.612   1.066  0.00  0.00    -0.030 A 
ATOM     24  C   UNL     1       3.624  -1.315  -0.099  0.00  0.00    +0.008 A 
ATOM     25  C   UNL     1       3.642   0.741   1.171  0.00  0.00    +0.008 A 
ATOM     27  C   UNL     1       4.256  -0.665  -1.159  0.00  0.00    +0.038 A 
ATOM     28  C   UNL     1       4.274   1.390   0.111  0.00  0.00    +0.038 A 
ATOM     29  C   UNL     1       4.581   0.688  -1.054  0.00  0.00    +0.123 A 
ENDBRANCH  21  23
ENDBRANCH   6  21
ENDBRANCH  15  19
ENDBRANCH  10  15
TORSDOF 9
