REMARK  Name = 71693208
REMARK  18 active torsions:
REMARK  status: ('A' for Active; 'I' for Inactive)
REMARK    1  A    between atoms: O_2  and  C_32
REMARK    2  A    between atoms: O_4  and  C_35
REMARK    3  A    between atoms: O_4  and  C_36
REMARK    4  A    between atoms: N_6  and  C_16
REMARK    5  A    between atoms: C_9  and  C_13
REMARK    6  A    between atoms: C_10  and  C_16
REMARK    7  A    between atoms: C_12  and  C_17
REMARK    8  A    between atoms: C_13  and  C_18
REMARK    9  A    between atoms: C_13  and  C_19
REMARK   10  A    between atoms: C_14  and  C_20
REMARK   11  A    between atoms: C_17  and  C_21
REMARK   12  A    between atoms: C_22  and  C_24
REMARK   13  A    between atoms: C_23  and  C_24
REMARK   14  A    between atoms: C_23  and  C_27
REMARK   15  A    between atoms: C_23  and  C_28
REMARK   16  A    between atoms: C_23  and  C_29
REMARK   17  A    between atoms: C_27  and  C_32
REMARK   18  A    between atoms: C_33  and  C_35
REMARK                            x       y       z     vdW  Elec       q    Type
REMARK                         _______ _______ _______ _____ _____    ______ ____
ROOT
ATOM      9  C   UNL     1      -0.717   0.232   0.626  0.00  0.00    +0.000 C 
ATOM     10  C   UNL     1      -2.029  -0.587   0.545  0.00  0.00    +0.032 C 
ATOM     11  C   UNL     1       0.273  -0.234  -0.452  0.00  0.00    +0.012 C 
ATOM     12  C   UNL     1       0.622  -1.728  -0.316  0.00  0.00    +0.022 C 
ATOM     14  C   UNL     1      -0.617  -2.580  -0.121  0.00  0.00    -0.073 C 
ATOM     15  C   UNL     1      -1.796  -2.050   0.251  0.00  0.00    -0.022 C 
ATOM     20  C   UNL     1      -0.480  -4.049  -0.407  0.00  0.00    +0.039 C 
ENDROOT
BRANCH   9  13
ATOM     13  C   UNL     1      -0.975   1.735   0.478  0.00  0.00    -0.013 C 
ATOM     18  C   UNL     1       0.147   2.534   1.134  0.00  0.00    +0.007 C 
ATOM     19  C   UNL     1      -1.116   2.108  -0.994  0.00  0.00    +0.007 C 
ENDBRANCH   9  13
BRANCH  10  16
ATOM     16  C   UNL     1      -2.848  -0.449   1.834  0.00  0.00    +0.112 C 
BRANCH  16   6
ATOM      1  O   UNL     1      -4.801   1.536   1.110  0.00  0.00    -0.276 OA
ATOM      6  N   UNL     1      -4.237  -0.667   1.579  0.00  0.00    -0.315 N 
ATOM     22  C   UNL     1      -5.117   0.355   1.232  0.00  0.00    +0.214 C 
ATOM     37  H   UNL     1      -4.588  -1.618   1.649  0.00  0.00    +0.149 HD
BRANCH  22  24
ATOM     24  C   UNL     1      -6.544  -0.120   1.005  0.00  0.00    +0.102 C 
BRANCH  24  23
ATOM     23  C   UNL     1      -6.889  -0.461  -0.467  0.00  0.00    -0.017 C 
ATOM     28  C   UNL     1      -8.338  -0.991  -0.505  0.00  0.00    +0.012 C 
ATOM     29  C   UNL     1      -5.971  -1.588  -0.988  0.00  0.00    +0.012 C 
BRANCH  23  27
ATOM     27  C   UNL     1      -6.741   0.752  -1.416  0.00  0.00    +0.127 C 
BRANCH  27  32
ATOM      3  O   UNL     1      -7.230   2.817  -0.250  0.00  0.00    -0.251 OA
ATOM     32  C   UNL     1      -7.580   1.955  -1.046  0.00  0.00    +0.305 C 
BRANCH  32   2
ATOM      2  O   UNL     1      -8.776   1.980  -1.685  0.00  0.00    -0.481 OA
ATOM     39  H   UNL     1      -9.311   2.762  -1.430  0.00  0.00    +0.295 HD
ENDBRANCH  32   2
ENDBRANCH  27  32
ENDBRANCH  23  27
ENDBRANCH  24  23
ENDBRANCH  22  24
ENDBRANCH  16   6
ENDBRANCH  10  16
BRANCH  12  17
ATOM     17  C   UNL     1       1.630  -1.960   0.815  0.00  0.00    +0.082 C 
BRANCH  17  21
ATOM      7  N   UNL     1       3.581  -0.394   0.839  0.00  0.00    -0.342 N 
ATOM      8  N   UNL     1       3.828  -2.235  -0.383  0.00  0.00    -0.232 NA
ATOM     21  C   UNL     1       3.018  -1.561   0.403  0.00  0.00    +0.109 A 
ATOM     25  C   UNL     1       4.839  -0.309   0.299  0.00  0.00    +0.067 A 
ATOM     26  C   UNL     1       4.969  -1.469  -0.459  0.00  0.00    +0.089 A 
ATOM     30  C   UNL     1       5.843   0.654   0.405  0.00  0.00    +0.042 A 
ATOM     31  C   UNL     1       6.166  -1.699  -1.159  0.00  0.00    +0.030 A 
ATOM     33  C   UNL     1       7.027   0.409  -0.298  0.00  0.00    +0.061 A 
ATOM     34  C   UNL     1       7.188  -0.746  -1.067  0.00  0.00    +0.017 A 
ATOM     38  H   UNL     1       3.149   0.288   1.448  0.00  0.00    +0.167 HD
BRANCH  33  35
ATOM      5  O   UNL     1       9.311   1.092  -0.320  0.00  0.00    -0.245 OA
ATOM     35  C   UNL     1       8.111   1.378  -0.226  0.00  0.00    +0.339 C 
BRANCH  35   4
ATOM      4  O   UNL     1       7.637   2.648  -0.041  0.00  0.00    -0.464 OA
ATOM     36  C   UNL     1       8.611   3.694   0.046  0.00  0.00    +0.280 C 
ENDBRANCH  35   4
ENDBRANCH  33  35
ENDBRANCH  17  21
ENDBRANCH  12  17
TORSDOF 12
