REMARK  Name = 26763194
REMARK  5 active torsions:
REMARK  status: ('A' for Active; 'I' for Inactive)
REMARK    1  A    between atoms: N_4  and  C_13
REMARK    2  A    between atoms: N_6  and  C_14
REMARK    3  A    between atoms: C_13  and  C_15
REMARK    4  A    between atoms: C_14  and  C_16
REMARK    5  A    between atoms: C_16  and  C_18
REMARK                            x       y       z     vdW  Elec       q    Type
REMARK                         _______ _______ _______ _____ _____    ______ ____
ROOT
ATOM      2  O   UNL     1       3.204   1.444  -0.441  0.00  0.00    -0.273 OA
ATOM      3  O   UNL     1       0.411  -2.139   0.548  0.00  0.00    -0.252 OA
ATOM      4  N   UNL     1      -0.384  -0.000   0.928  0.00  0.00    -0.275 N 
ATOM      5  N   UNL     1       1.099   3.201   0.034  0.00  0.00    -0.304 NA
ATOM      6  N   UNL     1       1.727  -0.338  -0.119  0.00  0.00    -0.225 N 
ATOM      7  C   UNL     1      -0.265   1.425   0.690  0.00  0.00    +0.105 C 
ATOM      8  C   UNL     1       1.165   1.905   0.727  0.00  0.00    +0.162 C 
ATOM      9  C   UNL     1      -0.774   1.872  -0.677  0.00  0.00    +0.040 C 
ATOM     10  C   UNL     1       0.143   3.023  -1.071  0.00  0.00    +0.083 C 
ATOM     11  C   UNL     1       2.130   1.008  -0.020  0.00  0.00    +0.242 C 
ATOM     12  C   UNL     1       0.564  -0.916   0.456  0.00  0.00    +0.312 C 
ATOM     21  H   UNL     1       2.011   3.498  -0.309  0.00  0.00    +0.123 HD
ENDROOT
BRANCH   4  13
ATOM     13  C   UNL     1      -1.626  -0.465   1.532  0.00  0.00    +0.152 C 
BRANCH  13  15
ATOM      1  S   UNL     1      -4.167   0.200   0.628  0.00  0.00    -0.100 S 
ATOM     15  C   UNL     1      -2.703  -0.680   0.508  0.00  0.00    +0.007 A 
ATOM     17  C   UNL     1      -2.696  -1.527  -0.578  0.00  0.00    +0.013 A 
ATOM     19  C   UNL     1      -3.909  -1.452  -1.322  0.00  0.00    +0.008 A 
ATOM     20  C   UNL     1      -4.796  -0.551  -0.776  0.00  0.00    +0.045 A 
ENDBRANCH  13  15
ENDBRANCH   4  13
BRANCH   6  14
ATOM     14  C   UNL     1       2.654  -1.254  -0.777  0.00  0.00    +0.118 C 
BRANCH  14  16
ATOM     16  C   UNL     1       3.618  -1.907   0.205  0.00  0.00    +0.016 C 
ATOM     18  C   UNL     1       4.603  -2.848  -0.475  0.00  0.00    +0.005 C 
ENDBRANCH  14  16
ENDBRANCH   6  14
TORSDOF 4
