REMARK  Name = 7682240
REMARK  2 active torsions:
REMARK  status: ('A' for Active; 'I' for Inactive)
REMARK    1  A    between atoms: C_14  and  C_19
REMARK    2  A    between atoms: C_16  and  C_20
REMARK                            x       y       z     vdW  Elec       q    Type
REMARK                         _______ _______ _______ _____ _____    ______ ____
ROOT
ATOM      2  O   UNL     1       0.374  -3.119   2.667  0.00  0.00    -0.268 OA
ATOM      3  O   UNL     1       3.679  -0.457  -0.078  0.00  0.00    -0.270 OA
ATOM      4  N   UNL     1       1.731  -0.598  -1.364  0.00  0.00    -0.297 N 
ATOM      5  N   UNL     1      -0.190  -2.105   0.632  0.00  0.00    -0.311 N 
ATOM      7  C   UNL     1       0.833  -2.900  -1.583  0.00  0.00    +0.027 C 
ATOM      8  C   UNL     1      -0.717  -0.990  -1.557  0.00  0.00    +0.054 C 
ATOM      9  C   UNL     1      -0.443  -2.347  -2.202  0.00  0.00    +0.018 C 
ATOM     10  C   UNL     1       2.015  -1.950  -1.840  0.00  0.00    +0.113 C 
ATOM     11  C   UNL     1       0.591  -3.121  -0.089  0.00  0.00    +0.130 C 
ATOM     12  C   UNL     1       0.461  -0.033  -1.843  0.00  0.00    +0.117 C 
ATOM     13  C   UNL     1      -0.933  -1.116  -0.044  0.00  0.00    +0.035 A 
ATOM     14  C   UNL     1      -1.771  -0.302   0.654  0.00  0.00    +0.009 A 
ATOM     15  C   UNL     1      -0.243  -2.266   2.028  0.00  0.00    +0.252 A 
ATOM     16  C   UNL     1       2.617   0.018  -0.477  0.00  0.00    +0.247 C 
ATOM     17  C   UNL     1      -1.845  -0.438   2.098  0.00  0.00    +0.016 A 
ATOM     18  C   UNL     1      -1.128  -1.339   2.768  0.00  0.00    +0.071 A 
ENDROOT
BRANCH  16  20
ATOM      6  N   UNL     1       1.587   3.854   1.058  0.00  0.00    -0.263 NA
ATOM     20  C   UNL     1       2.262   1.341   0.052  0.00  0.00    +0.040 A 
ATOM     22  C   UNL     1       1.531   1.443   1.228  0.00  0.00    +0.033 A 
ATOM     23  C   UNL     1       2.658   2.487  -0.624  0.00  0.00    +0.033 A 
ATOM     26  C   UNL     1       1.222   2.714   1.686  0.00  0.00    +0.111 A 
ATOM     27  C   UNL     1       2.297   3.710  -0.083  0.00  0.00    +0.111 A 
ENDBRANCH  16  20
BRANCH  14  19
ATOM      1  S   UNL     1      -4.134   0.289  -0.563  0.00  0.00    -0.097 S 
ATOM     19  C   UNL     1      -2.561   0.693  -0.020  0.00  0.00    +0.021 A 
ATOM     21  C   UNL     1      -2.231   1.997  -0.314  0.00  0.00    +0.016 A 
ATOM     24  C   UNL     1      -3.283   2.675  -0.994  0.00  0.00    +0.008 A 
ATOM     25  C   UNL     1      -4.378   1.862  -1.194  0.00  0.00    +0.046 A 
ENDBRANCH  14  19
TORSDOF 2
