REMARK  Name = 51137462
REMARK  8 active torsions:
REMARK  status: ('A' for Active; 'I' for Inactive)
REMARK    1  A    between atoms: O_2  and  C_17
REMARK    2  A    between atoms: O_2  and  C_22
REMARK    3  A    between atoms: N_3  and  C_10
REMARK    4  A    between atoms: C_6  and  C_12
REMARK    5  A    between atoms: C_10  and  C_11
REMARK    6  A    between atoms: C_11  and  C_13
REMARK    7  A    between atoms: C_11  and  C_14
REMARK    8  A    between atoms: C_15  and  C_16
REMARK                            x       y       z     vdW  Elec       q    Type
REMARK                         _______ _______ _______ _____ _____    ______ ____
ROOT
ATOM      1  O   UNL     1       0.754  -0.817  -0.119  0.00  0.00    -0.420 OA
ATOM      4  N   UNL     1      -0.180   1.147  -0.644  0.00  0.00    -0.112 NA
ATOM      5  N   UNL     1       1.193   1.301  -0.688  0.00  0.00    -0.107 NA
ATOM     12  C   UNL     1      -0.390  -0.105  -0.308  0.00  0.00    +0.222 A 
ATOM     15  C   UNL     1       1.697   0.130  -0.375  0.00  0.00    +0.252 A 
ENDROOT
BRANCH  15  16
ATOM     16  C   UNL     1       3.062  -0.296  -0.264  0.00  0.00    +0.080 A 
ATOM     17  C   UNL     1       4.063   0.599   0.112  0.00  0.00    +0.132 A 
ATOM     18  C   UNL     1       3.382  -1.626  -0.538  0.00  0.00    +0.017 A 
ATOM     19  C   UNL     1       5.385   0.165   0.213  0.00  0.00    +0.046 A 
ATOM     20  C   UNL     1       4.704  -2.060  -0.438  0.00  0.00    +0.001 A 
ATOM     21  C   UNL     1       5.705  -1.165  -0.062  0.00  0.00    +0.004 A 
BRANCH  17   2
ATOM      2  O   UNL     1       3.779   1.905   0.386  0.00  0.00    -0.494 OA
ATOM     22  C   UNL     1       4.872   2.739   0.761  0.00  0.00    +0.277 C 
ENDBRANCH  17   2
ENDBRANCH  15  16
BRANCH  12   6
ATOM      3  N   UNL     1      -3.926  -0.542   0.547  0.00  0.00    -0.301 NA
ATOM      6  C   UNL     1      -1.695  -0.841  -0.107  0.00  0.00    +0.092 C 
ATOM      7  C   UNL     1      -2.925   0.045  -0.346  0.00  0.00    +0.097 C 
ATOM      8  C   UNL     1      -1.899  -1.421   1.303  0.00  0.00    +0.029 C 
ATOM      9  C   UNL     1      -3.208  -0.815   1.792  0.00  0.00    +0.085 C 
BRANCH   3  10
ATOM     10  C   UNL     1      -5.072   0.334   0.749  0.00  0.00    +0.087 C 
BRANCH  10  11
ATOM     11  C   UNL     1      -5.869   0.565  -0.546  0.00  0.00    -0.003 C 
ATOM     13  C   UNL     1      -6.390  -0.773  -1.078  0.00  0.00    +0.008 C 
ATOM     14  C   UNL     1      -7.040   1.532  -0.350  0.00  0.00    +0.008 C 
ENDBRANCH  10  11
ENDBRANCH   3  10
ENDBRANCH  12   6
TORSDOF 5
