REMARK  Name = 45783345
REMARK  9 active torsions:
REMARK  status: ('A' for Active; 'I' for Inactive)
REMARK    1  A    between atoms: O_4  and  C_26
REMARK    2  A    between atoms: O_4  and  C_28
REMARK    3  A    between atoms: O_5  and  C_29
REMARK    4  A    between atoms: O_5  and  C_30
REMARK    5  A    between atoms: N_6  and  C_14
REMARK    6  A    between atoms: C_10  and  C_15
REMARK    7  A    between atoms: C_14  and  C_16
REMARK    8  A    between atoms: C_19  and  C_22
REMARK    9  A    between atoms: C_28  and  C_29
REMARK                            x       y       z     vdW  Elec       q    Type
REMARK                         _______ _______ _______ _____ _____    ______ ____
ROOT
ATOM      3  O   UNL     1      -2.592  -1.134   2.144  0.00  0.00    -0.336 OA
ATOM      7  N   UNL     1      -1.147  -1.006   0.438  0.00  0.00    -0.190 NA
ATOM      8  N   UNL     1      -1.331  -0.922   2.716  0.00  0.00    -0.056 NA
ATOM     15  C   UNL     1      -2.393  -1.171   0.800  0.00  0.00    +0.245 A 
ATOM     19  C   UNL     1      -0.532  -0.857   1.647  0.00  0.00    +0.202 A 
ENDROOT
BRANCH  19  22
ATOM      9  N   UNL     1       3.640  -0.234   1.958  0.00  0.00    -0.221 NA
ATOM     22  C   UNL     1       0.882  -0.645   1.752  0.00  0.00    +0.029 A 
ATOM     24  C   UNL     1       1.667  -0.588   0.606  0.00  0.00    +0.079 A 
ATOM     25  C   UNL     1       1.475  -0.497   3.002  0.00  0.00    +0.031 A 
ATOM     26  C   UNL     1       3.029  -0.382   0.761  0.00  0.00    +0.215 A 
ATOM     27  C   UNL     1       2.845  -0.295   3.050  0.00  0.00    +0.115 A 
BRANCH  26   4
ATOM      4  O   UNL     1       3.823  -0.322  -0.353  0.00  0.00    -0.474 OA
BRANCH   4  28
ATOM     28  C   UNL     1       5.213  -0.108  -0.137  0.00  0.00    +0.258 C 
BRANCH  28  29
ATOM     29  C   UNL     1       5.926  -0.095  -1.476  0.00  0.00    +0.200 C 
BRANCH  29   5
ATOM      5  O   UNL     1       5.740  -1.353  -2.113  0.00  0.00    -0.380 OA
ATOM     30  C   UNL     1       6.370  -1.390  -3.386  0.00  0.00    +0.194 C 
ENDBRANCH  29   5
ENDBRANCH  28  29
ENDBRANCH   4  28
ENDBRANCH  26   4
ENDBRANCH  19  22
BRANCH  15  10
ATOM      6  N   UNL     1      -3.486  -0.805  -1.405  0.00  0.00    -0.287 NA
ATOM     10  C   UNL     1      -3.622  -1.392  -0.058  0.00  0.00    +0.146 C 
ATOM     11  C   UNL     1      -3.911  -2.884  -0.308  0.00  0.00    +0.030 C 
ATOM     12  C   UNL     1      -3.980  -3.026  -1.822  0.00  0.00    +0.017 C 
ATOM     13  C   UNL     1      -4.305  -1.625  -2.298  0.00  0.00    +0.085 C 
BRANCH   6  14
ATOM     14  C   UNL     1      -3.859   0.603  -1.458  0.00  0.00    +0.120 C 
BRANCH  14  16
ATOM      1  F   UNL     1       0.723   2.271  -1.664  0.00  0.00    -0.202 F 
ATOM      2  F   UNL     1       0.261   3.938   0.453  0.00  0.00    -0.202 F 
ATOM     16  C   UNL     1      -2.759   1.494  -0.947  0.00  0.00    -0.030 A 
ATOM     17  C   UNL     1      -1.503   1.469  -1.554  0.00  0.00    +0.046 A 
ATOM     18  C   UNL     1      -2.994   2.345   0.133  0.00  0.00    +0.008 A 
ATOM     20  C   UNL     1      -0.483   2.295  -1.081  0.00  0.00    +0.159 A 
ATOM     21  C   UNL     1      -1.974   3.171   0.606  0.00  0.00    +0.041 A 
ATOM     23  C   UNL     1      -0.719   3.146  -0.002  0.00  0.00    +0.158 A 
ENDBRANCH  14  16
ENDBRANCH   6  14
ENDBRANCH  15  10
TORSDOF 8
