REMARK  Name = 51136860
REMARK  4 active torsions:
REMARK  status: ('A' for Active; 'I' for Inactive)
REMARK    1  A    between atoms: N_3  and  C_9
REMARK    2  A    between atoms: N_6  and  C_26
REMARK    3  A    between atoms: C_10  and  C_16
REMARK    4  A    between atoms: C_19  and  C_24
REMARK                            x       y       z     vdW  Elec       q    Type
REMARK                         _______ _______ _______ _____ _____    ______ ____
ROOT
ATOM      2  O   UNL     1      -2.346   2.013  -1.661  0.00  0.00    -0.336 OA
ATOM      4  N   UNL     1      -1.569   0.902   0.122  0.00  0.00    -0.190 NA
ATOM      7  N   UNL     1      -0.962   1.899  -1.846  0.00  0.00    -0.056 NA
ATOM     16  C   UNL     1      -2.620   1.401  -0.480  0.00  0.00    +0.245 A 
ATOM     19  C   UNL     1      -0.576   1.232  -0.754  0.00  0.00    +0.204 A 
ENDROOT
BRANCH  19  24
ATOM      5  N   UNL     1       4.755  -0.084   0.123  0.00  0.00    -0.313 N 
ATOM      6  N   UNL     1       7.553  -0.541   0.475  0.00  0.00    -0.302 NA
ATOM      8  N   UNL     1       3.098   0.924  -1.233  0.00  0.00    -0.240 NA
ATOM     20  C   UNL     1       5.614  -0.327  -1.043  0.00  0.00    +0.122 C 
ATOM     21  C   UNL     1       5.437   0.420   1.319  0.00  0.00    +0.122 C 
ATOM     22  C   UNL     1       6.835  -1.160  -0.646  0.00  0.00    +0.103 C 
ATOM     23  C   UNL     1       6.665  -0.436   1.639  0.00  0.00    +0.103 C 
ATOM     24  C   UNL     1       0.792   0.882  -0.507  0.00  0.00    +0.041 A 
ATOM     25  C   UNL     1       3.416   0.250  -0.105  0.00  0.00    +0.121 A 
ATOM     26  C   UNL     1       8.747  -1.317   0.809  0.00  0.00    +0.105 C 
ATOM     27  C   UNL     1       1.158   0.189   0.641  0.00  0.00    +0.016 A 
ATOM     28  C   UNL     1       2.493  -0.137   0.854  0.00  0.00    +0.044 A 
ATOM     29  C   UNL     1       1.790   1.223  -1.405  0.00  0.00    +0.124 A 
ENDBRANCH  19  24
BRANCH  16  10
ATOM      3  N   UNL     1      -4.394   0.235   0.818  0.00  0.00    -0.288 NA
ATOM     10  C   UNL     1      -4.071   1.387  -0.047  0.00  0.00    +0.146 C 
ATOM     11  C   UNL     1      -5.483   0.669   1.694  0.00  0.00    +0.085 C 
ATOM     12  C   UNL     1      -4.454   2.623   0.788  0.00  0.00    +0.030 C 
ATOM     13  C   UNL     1      -5.039   2.066   2.078  0.00  0.00    +0.017 C 
BRANCH   3   9
ATOM      1  O   UNL     1      -4.188  -3.724  -0.565  0.00  0.00    -0.380 OA
ATOM      9  C   UNL     1      -4.740  -0.970   0.067  0.00  0.00    +0.062 C 
ATOM     14  C   UNL     1      -3.575  -1.388  -0.835  0.00  0.00    +0.047 C 
ATOM     15  C   UNL     1      -5.112  -2.119   1.009  0.00  0.00    +0.047 C 
ATOM     17  C   UNL     1      -3.887  -2.711  -1.525  0.00  0.00    +0.161 C 
ATOM     18  C   UNL     1      -5.338  -3.402   0.217  0.00  0.00    +0.161 C 
ENDBRANCH   3   9
ENDBRANCH  16  10
TORSDOF 3
