REMARK  Name = 38030443
REMARK  12 active torsions:
REMARK  status: ('A' for Active; 'I' for Inactive)
REMARK    1  A    between atoms: N_2  and  C_13
REMARK    2  A    between atoms: N_2  and  C_19
REMARK    3  A    between atoms: N_2  and  C_20
REMARK    4  A    between atoms: C_6  and  C_10
REMARK    5  A    between atoms: C_7  and  C_13
REMARK    6  A    between atoms: C_9  and  C_14
REMARK    7  A    between atoms: C_10  and  C_15
REMARK    8  A    between atoms: C_10  and  C_16
REMARK    9  A    between atoms: C_11  and  C_17
REMARK   10  A    between atoms: C_14  and  C_18
REMARK   11  A    between atoms: C_19  and  C_22
REMARK   12  A    between atoms: C_21  and  C_23
REMARK                            x       y       z     vdW  Elec       q    Type
REMARK                         _______ _______ _______ _____ _____    ______ ____
ROOT
ATOM      6  C   UNL     1       2.861  -0.252  -0.742  0.00  0.00    +0.000 C 
ATOM      7  C   UNL     1       2.934  -0.381   0.798  0.00  0.00    +0.029 C 
ATOM      8  C   UNL     1       1.681   0.640  -1.152  0.00  0.00    +0.012 C 
ATOM      9  C   UNL     1       1.729   2.048  -0.520  0.00  0.00    +0.024 C 
ATOM     11  C   UNL     1       2.201   2.036   0.926  0.00  0.00    -0.073 C 
ATOM     12  C   UNL     1       2.726   0.937   1.499  0.00  0.00    -0.023 C 
ATOM     17  C   UNL     1       2.119   3.326   1.694  0.00  0.00    +0.039 C 
ENDROOT
BRANCH   6  10
ATOM     10  C   UNL     1       4.181   0.274  -1.322  0.00  0.00    -0.013 C 
ATOM     15  C   UNL     1       5.242  -0.823  -1.309  0.00  0.00    +0.007 C 
ATOM     16  C   UNL     1       3.967   0.803  -2.737  0.00  0.00    +0.007 C 
ENDBRANCH   6  10
BRANCH   7  13
ATOM     13  C   UNL     1       1.920  -1.399   1.329  0.00  0.00    +0.093 C 
BRANCH  13   2
ATOM      2  N   UNL     1       2.107  -2.691   0.690  0.00  0.00    -0.294 NA
ATOM     20  C   UNL     1       3.221  -3.419   1.305  0.00  0.00    +0.105 C 
BRANCH   2  19
ATOM     19  C   UNL     1       0.881  -3.490   0.762  0.00  0.00    +0.173 C 
BRANCH  19  22
ATOM     22  C   UNL     1      -0.102  -3.033  -0.224  0.00  0.00    -0.090 C 
ATOM     24  C   UNL     1      -0.911  -2.662  -1.030  0.00  0.00    +0.005 C 
ENDBRANCH  19  22
ENDBRANCH   2  19
ENDBRANCH  13   2
ENDBRANCH   7  13
BRANCH   9  14
ATOM     14  C   UNL     1       0.357   2.710  -0.694  0.00  0.00    +0.105 C 
BRANCH  14  18
ATOM      1  O   UNL     1      -1.760   1.500  -0.602  0.00  0.00    -0.420 OA
ATOM      3  N   UNL     1      -0.769   1.765   1.386  0.00  0.00    -0.112 NA
ATOM      4  N   UNL     1      -1.948   1.069   1.585  0.00  0.00    -0.107 NA
ATOM     18  C   UNL     1      -0.702   1.994   0.096  0.00  0.00    +0.218 A 
ATOM     21  C   UNL     1      -2.493   0.938   0.399  0.00  0.00    +0.250 A 
BRANCH  21  23
ATOM      5  N   UNL     1      -5.708  -0.914   0.627  0.00  0.00    -0.263 NA
ATOM     23  C   UNL     1      -3.716   0.305   0.001  0.00  0.00    +0.057 A 
ATOM     25  C   UNL     1      -4.111   0.280  -1.332  0.00  0.00    +0.016 A 
ATOM     26  C   UNL     1      -4.543  -0.301   0.933  0.00  0.00    +0.124 A 
ATOM     27  C   UNL     1      -5.304  -0.341  -1.687  0.00  0.00    +0.020 A 
ATOM     28  C   UNL     1      -6.059  -0.918  -0.679  0.00  0.00    +0.111 A 
ENDBRANCH  21  23
ENDBRANCH  14  18
ENDBRANCH   9  14
TORSDOF 8
