REMARK  Name = 56775047
REMARK  6 active torsions:
REMARK  status: ('A' for Active; 'I' for Inactive)
REMARK    1  A    between atoms: O_4  and  C_28
REMARK    2  A    between atoms: N_6  and  C_12
REMARK    3  A    between atoms: N_7  and  C_15
REMARK    4  A    between atoms: C_12  and  C_16
REMARK    5  A    between atoms: C_15  and  C_17
REMARK    6  A    between atoms: C_24  and  C_28
REMARK                            x       y       z     vdW  Elec       q    Type
REMARK                         _______ _______ _______ _____ _____    ______ ____
ROOT
ATOM      2  O   UNL     1      -0.873  -2.853   1.038  0.00  0.00    -0.364 OA
ATOM      3  O   UNL     1      -4.178  -2.837  -0.182  0.00  0.00    -0.273 OA
ATOM      6  N   UNL     1       1.062  -0.670  -0.494  0.00  0.00    -0.294 NA
ATOM      7  N   UNL     1      -2.551  -1.184  -0.371  0.00  0.00    -0.288 N 
ATOM      8  C   UNL     1      -1.205  -0.722  -0.045  0.00  0.00    +0.120 C 
ATOM      9  C   UNL     1      -0.525  -1.472   1.096  0.00  0.00    +0.154 C 
ATOM     10  C   UNL     1      -0.206  -0.902  -1.185  0.00  0.00    +0.110 C 
ATOM     11  C   UNL     1       0.974  -1.355   0.802  0.00  0.00    +0.118 C 
ATOM     13  C   UNL     1      -3.087  -2.364   0.137  0.00  0.00    +0.242 C 
ATOM     14  C   UNL     1      -2.259  -3.031   1.214  0.00  0.00    +0.256 C 
ENDROOT
BRANCH   6  12
ATOM     12  C   UNL     1       2.214  -1.086  -1.278  0.00  0.00    +0.119 C 
BRANCH  12  16
ATOM     16  C   UNL     1       3.482  -0.427  -0.805  0.00  0.00    -0.033 A 
ATOM     18  C   UNL     1       3.737   0.906  -1.128  0.00  0.00    +0.006 A 
ATOM     19  C   UNL     1       4.401  -1.149  -0.044  0.00  0.00    +0.006 A 
ATOM     22  C   UNL     1       4.912   1.517  -0.690  0.00  0.00    +0.015 A 
ATOM     23  C   UNL     1       5.576  -0.537   0.394  0.00  0.00    +0.015 A 
ATOM     24  C   UNL     1       5.831   0.795   0.071  0.00  0.00    +0.059 A 
BRANCH  24  28
ATOM      5  O   UNL     1       7.382   2.602   0.303  0.00  0.00    -0.245 OA
ATOM     28  C   UNL     1       7.056   1.432   0.529  0.00  0.00    +0.337 C 
BRANCH  28   4
ATOM      4  O   UNL     1       7.840   0.591   1.258  0.00  0.00    -0.477 OA
ATOM     29  H   UNL     1       8.662   1.030   1.562  0.00  0.00    +0.295 HD
ENDBRANCH  28   4
ENDBRANCH  24  28
ENDBRANCH  12  16
ENDBRANCH   6  12
BRANCH   7  15
ATOM     15  C   UNL     1      -3.302  -0.401  -1.345  0.00  0.00    +0.143 C 
BRANCH  15  17
ATOM      1  F   UNL     1      -6.522   3.501   1.135  0.00  0.00    -0.205 F 
ATOM     17  C   UNL     1      -4.162   0.642  -0.682  0.00  0.00    -0.030 A 
ATOM     20  C   UNL     1      -5.471   0.332  -0.310  0.00  0.00    +0.008 A 
ATOM     21  C   UNL     1      -3.651   1.917  -0.440  0.00  0.00    +0.008 A 
ATOM     25  C   UNL     1      -6.268   1.298   0.303  0.00  0.00    +0.038 A 
ATOM     26  C   UNL     1      -4.449   2.883   0.174  0.00  0.00    +0.038 A 
ATOM     27  C   UNL     1      -5.757   2.573   0.545  0.00  0.00    +0.123 A 
ENDBRANCH  15  17
ENDBRANCH   7  15
TORSDOF 6
