REMARK  Name = 75367034
REMARK  10 active torsions:
REMARK  status: ('A' for Active; 'I' for Inactive)
REMARK    1  A    between atoms: O_2  and  C_10
REMARK    2  A    between atoms: O_4  and  C_26
REMARK    3  A    between atoms: N_5  and  C_21
REMARK    4  A    between atoms: N_6  and  C_14
REMARK    5  A    between atoms: N_6  and  C_24
REMARK    6  A    between atoms: C_8  and  C_13
REMARK    7  A    between atoms: C_9  and  C_14
REMARK    8  A    between atoms: C_13  and  C_20
REMARK    9  A    between atoms: C_21  and  C_22
REMARK   10  A    between atoms: C_24  and  C_25
REMARK                            x       y       z     vdW  Elec       q    Type
REMARK                         _______ _______ _______ _____ _____    ______ ____
ROOT
ATOM      1  O   UNL     1       2.691  -1.408   0.637  0.00  0.00    -0.369 OA
ATOM      8  C   UNL     1       2.759  -2.002  -0.662  0.00  0.00    +0.125 C 
ATOM      9  C   UNL     1       3.788  -0.547   0.972  0.00  0.00    +0.161 C 
ATOM     10  C   UNL     1       5.131  -1.274   0.829  0.00  0.00    +0.145 C 
ATOM     11  C   UNL     1       4.032  -2.835  -0.807  0.00  0.00    +0.034 C 
ATOM     12  C   UNL     1       5.266  -1.988  -0.513  0.00  0.00    +0.036 C 
ENDROOT
BRANCH  10   2
ATOM      2  O   UNL     1       5.234  -2.260   1.859  0.00  0.00    -0.389 OA
ATOM     32  H   UNL     1       6.110  -2.676   1.782  0.00  0.00    +0.210 HD
ENDBRANCH  10   2
BRANCH   8  13
ATOM     13  C   UNL     1       1.519  -2.871  -0.834  0.00  0.00    +0.090 C 
BRANCH  13  20
ATOM      3  O   UNL     1      -1.439  -0.853  -1.240  0.00  0.00    -0.358 OA
ATOM      7  N   UNL     1      -0.309  -1.492  -1.735  0.00  0.00    -0.083 NA
ATOM     20  C   UNL     1       0.253  -2.073  -0.671  0.00  0.00    +0.086 A 
ATOM     22  C   UNL     1      -1.525  -1.066   0.098  0.00  0.00    +0.151 A 
ATOM     23  C   UNL     1      -0.471  -1.837   0.511  0.00  0.00    +0.072 A 
BRANCH  22  21
ATOM     21  C   UNL     1      -2.669  -0.457   0.787  0.00  0.00    +0.161 C 
BRANCH  21   5
ATOM      5  N   UNL     1      -3.961  -0.898   0.260  0.00  0.00    -0.295 NA
ATOM     15  C   UNL     1      -4.276  -2.251   0.739  0.00  0.00    +0.085 C 
ATOM     16  C   UNL     1      -5.018   0.055   0.627  0.00  0.00    +0.085 C 
ATOM     17  C   UNL     1      -5.601  -2.747   0.158  0.00  0.00    +0.015 C 
ATOM     18  C   UNL     1      -6.367  -0.365   0.043  0.00  0.00    +0.015 C 
ATOM     19  C   UNL     1      -6.739  -1.781   0.469  0.00  0.00    +0.002 C 
ENDBRANCH  21   5
ENDBRANCH  22  21
ENDBRANCH  13  20
ENDBRANCH   8  13
BRANCH   9  14
ATOM     14  C   UNL     1       3.727   0.756   0.179  0.00  0.00    +0.115 C 
BRANCH  14   6
ATOM      6  N   UNL     1       2.445   1.418   0.366  0.00  0.00    -0.309 NA
ATOM     31  H   UNL     1       1.698   0.796   0.058  0.00  0.00    +0.122 HD
BRANCH   6  24
ATOM     24  C   UNL     1       2.388   2.667  -0.382  0.00  0.00    +0.120 C 
BRANCH  24  25
ATOM     25  C   UNL     1       1.073   3.375  -0.191  0.00  0.00    +0.008 A 
ATOM     26  C   UNL     1      -0.076   2.934  -0.846  0.00  0.00    +0.121 A 
ATOM     27  C   UNL     1       1.012   4.484   0.653  0.00  0.00    +0.008 A 
ATOM     28  C   UNL     1      -1.287   3.601  -0.658  0.00  0.00    +0.046 A 
ATOM     29  C   UNL     1      -0.199   5.152   0.841  0.00  0.00    +0.001 A 
ATOM     30  C   UNL     1      -1.348   4.710   0.185  0.00  0.00    +0.004 A 
BRANCH  26   4
ATOM      4  O   UNL     1      -0.035   1.853  -1.675  0.00  0.00    -0.506 OA
ATOM     33  H   UNL     1      -0.926   1.688  -2.027  0.00  0.00    +0.292 HD
ENDBRANCH  26   4
ENDBRANCH  24  25
ENDBRANCH   6  24
ENDBRANCH  14   6
ENDBRANCH   9  14
TORSDOF 10
