REMARK  Name = 40779519
REMARK  10 active torsions:
REMARK  status: ('A' for Active; 'I' for Inactive)
REMARK    1  A    between atoms: O_3  and  C_27
REMARK    2  A    between atoms: O_3  and  C_32
REMARK    3  A    between atoms: O_4  and  C_29
REMARK    4  A    between atoms: O_4  and  C_33
REMARK    5  A    between atoms: N_6  and  C_20
REMARK    6  A    between atoms: N_7  and  C_17
REMARK    7  A    between atoms: C_10  and  C_16
REMARK    8  A    between atoms: C_11  and  C_17
REMARK    9  A    between atoms: C_19  and  C_22
REMARK   10  A    between atoms: C_21  and  C_23
REMARK                            x       y       z     vdW  Elec       q    Type
REMARK                         _______ _______ _______ _____ _____    ______ ____
ROOT
ATOM      5  N   UNL     1       3.611   2.622   0.716  0.00  0.00    -0.297 NA
ATOM      9  C   UNL     1       2.189   2.468  -1.461  0.00  0.00    +0.002 C 
ATOM     10  C   UNL     1       1.368   3.132  -0.321  0.00  0.00    +0.055 C 
ATOM     11  C   UNL     1       3.668   1.241   0.168  0.00  0.00    +0.074 C 
ATOM     12  C   UNL     1       2.671   1.077  -0.999  0.00  0.00    +0.024 C 
ATOM     13  C   UNL     1       3.447   3.339  -1.668  0.00  0.00    +0.019 C 
ATOM     14  C   UNL     1       2.202   3.005   0.986  0.00  0.00    +0.094 C 
ATOM     15  C   UNL     1       4.151   3.542  -0.314  0.00  0.00    +0.085 C 
ENDROOT
BRANCH  10  16
ATOM      6  N   UNL     1      -1.048   3.525   0.352  0.00  0.00    -0.270 N 
ATOM      8  N   UNL     1      -2.257   2.947   0.448  0.00  0.00    -0.171 NA
ATOM     16  C   UNL     1      -0.077   2.695  -0.128  0.00  0.00    +0.044 A 
ATOM     18  C   UNL     1      -0.695   1.490  -0.360  0.00  0.00    +0.053 A 
ATOM     19  C   UNL     1      -2.035   1.704   0.012  0.00  0.00    +0.093 A 
ATOM     20  C   UNL     1      -0.891   4.905   0.747  0.00  0.00    +0.172 C 
BRANCH  19  22
ATOM     22  C   UNL     1      -3.107   0.745  -0.040  0.00  0.00    +0.006 A 
ATOM     24  C   UNL     1      -2.836  -0.613   0.125  0.00  0.00    +0.059 A 
ATOM     25  C   UNL     1      -4.417   1.173  -0.256  0.00  0.00    +0.014 A 
ATOM     27  C   UNL     1      -3.875  -1.543   0.074  0.00  0.00    +0.162 A 
ATOM     28  C   UNL     1      -5.456   0.243  -0.306  0.00  0.00    +0.050 A 
ATOM     29  C   UNL     1      -5.185  -1.115  -0.142  0.00  0.00    +0.162 A 
BRANCH  27   3
ATOM      3  O   UNL     1      -3.598  -2.867   0.236  0.00  0.00    -0.491 OA
ATOM     32  C   UNL     1      -2.233  -3.222   0.453  0.00  0.00    +0.277 C 
ENDBRANCH  27   3
BRANCH  29   4
ATOM      4  O   UNL     1      -6.207  -2.013  -0.193  0.00  0.00    -0.491 OA
ATOM     33  C   UNL     1      -7.516  -1.493  -0.417  0.00  0.00    +0.277 C 
ENDBRANCH  29   4
ENDBRANCH  19  22
ENDBRANCH  10  16
BRANCH  11  17
ATOM     17  C   UNL     1       3.462   0.177   1.248  0.00  0.00    +0.123 C 
BRANCH  17   7
ATOM      1  O   UNL     1       1.510  -1.928   1.192  0.00  0.00    -0.267 OA
ATOM      7  N   UNL     1       3.638  -1.137   0.710  0.00  0.00    -0.307 N 
ATOM     21  C   UNL     1       2.632  -2.102   0.725  0.00  0.00    +0.279 C 
ATOM     34  H   UNL     1       4.549  -1.383   0.335  0.00  0.00    +0.149 HD
BRANCH  21  23
ATOM      2  O   UNL     1       4.239  -3.596  -0.338  0.00  0.00    -0.458 OA
ATOM     23  C   UNL     1       2.982  -3.427   0.150  0.00  0.00    +0.189 A 
ATOM     26  C   UNL     1       2.248  -4.581   0.006  0.00  0.00    +0.054 A 
ATOM     30  C   UNL     1       3.109  -5.520  -0.609  0.00  0.00    +0.042 A 
ATOM     31  C   UNL     1       4.308  -4.873  -0.798  0.00  0.00    +0.196 A 
ENDBRANCH  21  23
ENDBRANCH  17   7
ENDBRANCH  11  17
TORSDOF 7
