REMARK  Name = 7143826
REMARK  7 active torsions:
REMARK  status: ('A' for Active; 'I' for Inactive)
REMARK    1  A    between atoms: S_1  and  C_27
REMARK    2  A    between atoms: S_1  and  C_28
REMARK    3  A    between atoms: C_13  and  C_15
REMARK    4  A    between atoms: C_15  and  C_19
REMARK    5  A    between atoms: C_15  and  C_20
REMARK    6  A    between atoms: C_15  and  C_21
REMARK    7  A    between atoms: C_17  and  C_22
REMARK                            x       y       z     vdW  Elec       q    Type
REMARK                         _______ _______ _______ _____ _____    ______ ____
ROOT
ATOM      2  O   UNL     1      -3.207   1.933  -1.929  0.00  0.00    -0.275 OA
ATOM      3  O   UNL     1       1.102  -1.226  -1.709  0.00  0.00    -0.267 OA
ATOM      4  N   UNL     1      -3.543   0.190  -0.431  0.00  0.00    -0.300 N 
ATOM      5  N   UNL     1      -0.792  -1.431  -0.363  0.00  0.00    -0.311 N 
ATOM      6  C   UNL     1      -3.079  -2.106  -1.297  0.00  0.00    +0.027 C 
ATOM      7  C   UNL     1      -2.830  -1.635   1.103  0.00  0.00    +0.054 C 
ATOM      8  C   UNL     1      -3.326  -2.671   0.097  0.00  0.00    +0.018 C 
ATOM      9  C   UNL     1      -3.838  -0.782  -1.486  0.00  0.00    +0.113 C 
ATOM     10  C   UNL     1      -3.636  -0.331   0.941  0.00  0.00    +0.117 C 
ATOM     11  C   UNL     1      -1.569  -1.939  -1.503  0.00  0.00    +0.130 C 
ATOM     12  C   UNL     1      -1.352  -1.352   0.914  0.00  0.00    +0.027 A 
ATOM     13  C   UNL     1      -3.281   1.517  -0.770  0.00  0.00    +0.221 C 
ATOM     14  C   UNL     1      -0.591  -1.000   1.962  0.00  0.00    +0.022 A 
ATOM     16  C   UNL     1       0.564  -1.135  -0.604  0.00  0.00    +0.259 A 
ATOM     17  C   UNL     1       1.383  -0.707   0.584  0.00  0.00    +0.047 A 
ATOM     18  C   UNL     1       0.795  -0.668   1.790  0.00  0.00    +0.015 A 
ENDROOT
BRANCH  17  22
ATOM     22  C   UNL     1       2.799  -0.330   0.439  0.00  0.00    -0.013 A 
ATOM     23  C   UNL     1       3.796  -1.298   0.566  0.00  0.00    +0.010 A 
ATOM     24  C   UNL     1       3.145   0.996   0.175  0.00  0.00    +0.010 A 
ATOM     25  C   UNL     1       5.138  -0.940   0.429  0.00  0.00    +0.015 A 
ATOM     26  C   UNL     1       4.487   1.353   0.038  0.00  0.00    +0.015 A 
ATOM     27  C   UNL     1       5.483   0.385   0.165  0.00  0.00    +0.008 A 
BRANCH  27   1
ATOM      1  S   UNL     1       7.196   0.842  -0.009  0.00  0.00    -0.129 S 
ATOM     28  C   UNL     1       7.234   1.499  -1.700  0.00  0.00    +0.090 C 
ENDBRANCH  27   1
ENDBRANCH  17  22
BRANCH  13  15
ATOM     15  C   UNL     1      -3.072   2.478   0.373  0.00  0.00    +0.039 C 
ATOM     19  C   UNL     1      -1.874   1.987   1.186  0.00  0.00    +0.020 C 
ATOM     20  C   UNL     1      -4.334   2.498   1.237  0.00  0.00    +0.020 C 
ATOM     21  C   UNL     1      -2.797   3.870  -0.198  0.00  0.00    +0.020 C 
ENDBRANCH  13  15
TORSDOF 3
