REMARK  Name = 40777761
REMARK  10 active torsions:
REMARK  status: ('A' for Active; 'I' for Inactive)
REMARK    1  A    between atoms: O_2  and  C_10
REMARK    2  A    between atoms: O_2  and  C_19
REMARK    3  A    between atoms: O_4  and  C_31
REMARK    4  A    between atoms: O_4  and  C_32
REMARK    5  A    between atoms: N_5  and  C_18
REMARK    6  A    between atoms: N_7  and  C_25
REMARK    7  A    between atoms: C_8  and  C_11
REMARK    8  A    between atoms: C_14  and  C_16
REMARK    9  A    between atoms: C_15  and  C_17
REMARK   10  A    between atoms: C_24  and  C_26
REMARK                            x       y       z     vdW  Elec       q    Type
REMARK                         _______ _______ _______ _____ _____    ______ ____
ROOT
ATOM      8  C   UNL     1      -1.050   2.815   0.075  0.00  0.00    +0.049 C 
ATOM      9  C   UNL     1       0.253   2.081  -0.297  0.00  0.00    +0.061 C 
ATOM     10  C   UNL     1       1.238   2.376   0.838  0.00  0.00    +0.202 C 
ATOM     12  C   UNL     1      -0.902   3.011   1.556  0.00  0.00    -0.019 C 
ATOM     13  C   UNL     1       0.345   2.764   1.969  0.00  0.00    +0.013 C 
ENDROOT
BRANCH   8  11
ATOM      5  N   UNL     1      -3.870   0.568  -0.574  0.00  0.00    -0.236 N 
ATOM      6  N   UNL     1      -4.286   1.584  -1.350  0.00  0.00    -0.171 NA
ATOM     11  C   UNL     1      -2.296   2.063  -0.335  0.00  0.00    +0.003 A 
ATOM     14  C   UNL     1      -2.684   0.805   0.057  0.00  0.00    +0.046 A 
ATOM     15  C   UNL     1      -3.320   2.494  -1.200  0.00  0.00    +0.064 A 
ATOM     16  C   UNL     1      -2.037  -0.168   0.960  0.00  0.00    +0.066 C 
ATOM     17  C   UNL     1      -3.420   3.781  -1.912  0.00  0.00    +0.068 C 
BRANCH   5  18
ATOM      1 CL   UNL     1      -6.503  -2.631   2.407  0.00  0.00    -0.083 Cl
ATOM     18  C   UNL     1      -4.643  -0.590  -0.477  0.00  0.00    +0.067 A 
ATOM     20  C   UNL     1      -5.137  -0.998   0.762  0.00  0.00    +0.048 A 
ATOM     21  C   UNL     1      -4.921  -1.339  -1.621  0.00  0.00    +0.028 A 
ATOM     22  C   UNL     1      -5.909  -2.156   0.858  0.00  0.00    +0.046 A 
ATOM     23  C   UNL     1      -5.692  -2.498  -1.524  0.00  0.00    +0.007 A 
ATOM     24  C   UNL     1      -6.186  -2.906  -0.285  0.00  0.00    -0.032 A 
ATOM     26  C   UNL     1      -7.008  -4.153  -0.225  0.00  0.00    +0.045 C 
ENDBRANCH   5  18
ENDBRANCH   8  11
BRANCH  10   2
ATOM      2  O   UNL     1       1.983   1.212   1.149  0.00  0.00    -0.443 OA
BRANCH   2  19
ATOM      3  O   UNL     1       3.611   1.869  -0.316  0.00  0.00    -0.226 OA
ATOM      7  N   UNL     1       3.780  -0.117   0.910  0.00  0.00    -0.251 N 
ATOM     19  C   UNL     1       3.184   1.058   0.496  0.00  0.00    +0.405 C 
ATOM     33  H   UNL     1       3.267  -0.663   1.599  0.00  0.00    +0.158 HD
BRANCH   7  25
ATOM     25  C   UNL     1       5.017  -0.659   0.495  0.00  0.00    +0.037 A 
ATOM     27  C   UNL     1       5.463  -1.869   1.027  0.00  0.00    +0.027 A 
ATOM     28  C   UNL     1       5.793   0.016  -0.447  0.00  0.00    +0.027 A 
ATOM     29  C   UNL     1       6.684  -2.404   0.615  0.00  0.00    +0.047 A 
ATOM     30  C   UNL     1       7.014  -0.518  -0.859  0.00  0.00    +0.047 A 
ATOM     31  C   UNL     1       7.459  -1.729  -0.327  0.00  0.00    +0.120 A 
BRANCH  31   4
ATOM      4  O   UNL     1       8.650  -2.252  -0.729  0.00  0.00    -0.495 OA
ATOM     32  C   UNL     1       9.392  -1.509  -1.696  0.00  0.00    +0.277 C 
ENDBRANCH  31   4
ENDBRANCH   7  25
ENDBRANCH   2  19
ENDBRANCH  10   2
TORSDOF 6
