REMARK  Name = 28961540
REMARK  10 active torsions:
REMARK  status: ('A' for Active; 'I' for Inactive)
REMARK    1  A    between atoms: O_2  and  C_10
REMARK    2  A    between atoms: O_3  and  C_17
REMARK    3  A    between atoms: N_5  and  C_8
REMARK    4  A    between atoms: N_6  and  C_16
REMARK    5  A    between atoms: N_7  and  C_24
REMARK    6  A    between atoms: N_7  and  C_25
REMARK    7  A    between atoms: N_7  and  C_26
REMARK    8  A    between atoms: C_9  and  C_16
REMARK    9  A    between atoms: C_11  and  C_17
REMARK   10  A    between atoms: C_18  and  C_19
REMARK                            x       y       z     vdW  Elec       q    Type
REMARK                         _______ _______ _______ _____ _____    ______ ____
ROOT
ATOM      1  O   UNL     1      -1.577   1.654   0.638  0.00  0.00    -0.365 OA
ATOM      8  C   UNL     1      -3.422   0.151   0.573  0.00  0.00    +0.118 C 
ATOM      9  C   UNL     1      -1.892   0.248   0.524  0.00  0.00    +0.155 C 
ATOM     10  C   UNL     1      -3.868   1.512   0.061  0.00  0.00    +0.165 C 
ATOM     11  C   UNL     1      -2.804   2.409   0.681  0.00  0.00    +0.174 C 
ENDROOT
BRANCH   8   5
ATOM      5  N   UNL     1      -4.016  -0.993  -0.104  0.00  0.00    -0.295 NA
ATOM     12  C   UNL     1      -5.475  -1.005  -0.004  0.00  0.00    +0.085 C 
ATOM     13  C   UNL     1      -3.585  -2.267   0.469  0.00  0.00    +0.085 C 
ATOM     14  C   UNL     1      -5.832  -2.426  -0.415  0.00  0.00    +0.017 C 
ATOM     15  C   UNL     1      -4.591  -3.256  -0.101  0.00  0.00    +0.017 C 
ENDBRANCH   8   5
BRANCH  10   2
ATOM      2  O   UNL     1      -3.808   1.580  -1.358  0.00  0.00    -0.388 OA
ATOM     27  H   UNL     1      -4.204   2.426  -1.629  0.00  0.00    +0.210 HD
ENDBRANCH  10   2
BRANCH   9  16
ATOM     16  C   UNL     1      -1.214  -0.265  -0.742  0.00  0.00    +0.137 C 
BRANCH  16   6
ATOM      4  O   UNL     1       0.658  -2.180   0.294  0.00  0.00    -0.270 OA
ATOM      6  N   UNL     1       0.208  -0.114  -0.662  0.00  0.00    -0.309 N 
ATOM     18  C   UNL     1       1.045  -1.099  -0.143  0.00  0.00    +0.244 C 
ATOM     28  H   UNL     1       0.586   0.785  -0.942  0.00  0.00    +0.149 HD
BRANCH  18  19
ATOM     19  C   UNL     1       2.495  -0.779  -0.106  0.00  0.00    +0.037 A 
ATOM     20  C   UNL     1       3.317  -1.377   0.848  0.00  0.00    +0.015 A 
ATOM     21  C   UNL     1       3.034   0.122  -1.025  0.00  0.00    +0.015 A 
ATOM     22  C   UNL     1       4.679  -1.076   0.884  0.00  0.00    +0.024 A 
ATOM     23  C   UNL     1       4.395   0.424  -0.989  0.00  0.00    +0.024 A 
ATOM     24  C   UNL     1       5.218  -0.175  -0.035  0.00  0.00    +0.029 A 
BRANCH  24   7
ATOM      7  N   UNL     1       6.594   0.130  -0.000  0.00  0.00    -0.336 N 
ATOM     25  C   UNL     1       7.458  -0.486   0.987  0.00  0.00    +0.129 C 
ATOM     26  C   UNL     1       7.164   1.059  -0.956  0.00  0.00    +0.129 C 
ENDBRANCH  24   7
ENDBRANCH  18  19
ENDBRANCH  16   6
ENDBRANCH   9  16
BRANCH  11  17
ATOM     17  C   UNL     1      -2.594   3.745  -0.007  0.00  0.00    +0.190 C 
BRANCH  17   3
ATOM      3  O   UNL     1      -1.587   4.465   0.687  0.00  0.00    -0.392 OA
ATOM     29  H   UNL     1      -1.476   5.316   0.229  0.00  0.00    +0.210 HD
ENDBRANCH  17   3
ENDBRANCH  11  17
TORSDOF 8
