REMARK  Name = 75536513
REMARK  12 active torsions:
REMARK  status: ('A' for Active; 'I' for Inactive)
REMARK    1  A    between atoms: O_2  and  C_7
REMARK    2  A    between atoms: N_4  and  C_6
REMARK    3  A    between atoms: N_4  and  C_11
REMARK    4  A    between atoms: N_5  and  C_10
REMARK    5  A    between atoms: C_8  and  C_10
REMARK    6  A    between atoms: C_11  and  C_15
REMARK    7  A    between atoms: C_11  and  C_16
REMARK    8  A    between atoms: C_12  and  C_13
REMARK    9  A    between atoms: C_12  and  C_17
REMARK   10  A    between atoms: C_12  and  C_18
REMARK   11  A    between atoms: C_12  and  C_19
REMARK   12  A    between atoms: C_13  and  C_14
REMARK                            x       y       z     vdW  Elec       q    Type
REMARK                         _______ _______ _______ _____ _____    ______ ____
ROOT
ATOM      1  O   UNL     1      -0.258   0.314  -0.267  0.00  0.00    -0.371 OA
ATOM      6  C   UNL     1      -2.560  -0.032   0.204  0.00  0.00    +0.111 C 
ATOM      7  C   UNL     1      -1.866  -1.379   0.110  0.00  0.00    +0.164 C 
ATOM      8  C   UNL     1      -0.416  -0.978   0.343  0.00  0.00    +0.165 C 
ATOM      9  C   UNL     1      -1.563   0.870  -0.504  0.00  0.00    +0.181 C 
ENDROOT
BRANCH   7   2
ATOM      2  O   UNL     1      -2.323  -2.297   1.084  0.00  0.00    -0.388 OA
ATOM     22  H   UNL     1      -2.203  -1.897   1.962  0.00  0.00    +0.210 HD
ENDBRANCH   7   2
BRANCH   6   4
ATOM      4  N   UNL     1      -3.878  -0.011  -0.409  0.00  0.00    -0.307 NA
ATOM     20  H   UNL     1      -4.396  -0.852  -0.157  0.00  0.00    +0.123 HD
BRANCH   4  11
ATOM     11  C   UNL     1      -4.626   1.173  -0.004  0.00  0.00    +0.048 C 
ATOM     15  C   UNL     1      -5.211   0.977   1.392  0.00  0.00    +0.023 C 
ATOM     16  C   UNL     1      -5.725   1.453  -1.024  0.00  0.00    +0.023 C 
ENDBRANCH   4  11
ENDBRANCH   6   4
BRANCH   8  10
ATOM     10  C   UNL     1       0.580  -1.955  -0.257  0.00  0.00    +0.138 C 
BRANCH  10   5
ATOM      3  O   UNL     1       2.216  -0.253  -1.936  0.00  0.00    -0.276 OA
ATOM      5  N   UNL     1       1.942  -1.535  -0.017  0.00  0.00    -0.313 N 
ATOM     14  C   UNL     1       2.648  -0.716  -0.882  0.00  0.00    +0.214 C 
ATOM     21  H   UNL     1       2.388  -1.858   0.837  0.00  0.00    +0.149 HD
BRANCH  14  13
ATOM     13  C   UNL     1       4.063  -0.428  -0.407  0.00  0.00    +0.102 C 
BRANCH  13  12
ATOM     12  C   UNL     1       4.211   0.857   0.441  0.00  0.00    -0.029 C 
ATOM     17  C   UNL     1       5.673   1.076   0.864  0.00  0.00    +0.011 C 
ATOM     18  C   UNL     1       3.771   2.054  -0.425  0.00  0.00    +0.011 C 
ATOM     19  C   UNL     1       3.322   0.811   1.694  0.00  0.00    +0.011 C 
ENDBRANCH  13  12
ENDBRANCH  14  13
ENDBRANCH  10   5
ENDBRANCH   8  10
TORSDOF 7
