REMARK  Name = 75537102
REMARK  3 active torsions:
REMARK  status: ('A' for Active; 'I' for Inactive)
REMARK    1  A    between atoms: N_3  and  C_12
REMARK    2  A    between atoms: N_4  and  C_14
REMARK    3  A    between atoms: C_12  and  C_13
REMARK                            x       y       z     vdW  Elec       q    Type
REMARK                         _______ _______ _______ _____ _____    ______ ____
ROOT
ATOM      1  O   UNL     1       5.214   1.286  -0.138  0.00  0.00    -0.252 OA
ATOM      2  N   UNL     1       2.938   0.704  -0.124  0.00  0.00    -0.278 N 
ATOM      3  N   UNL     1       0.276   0.542   0.768  0.00  0.00    -0.295 NA
ATOM      4  N   UNL     1       4.437  -0.875  -0.677  0.00  0.00    -0.287 N 
ATOM      6  C   UNL     1       2.136  -0.439  -0.509  0.00  0.00    +0.109 C 
ATOM      7  C   UNL     1       1.044  -0.696   0.527  0.00  0.00    +0.109 C 
ATOM      8  C   UNL     1       3.158  -1.564  -0.659  0.00  0.00    +0.132 C 
ATOM      9  C   UNL     1       2.279   1.929   0.277  0.00  0.00    +0.125 C 
ATOM     10  C   UNL     1       1.155   1.618   1.268  0.00  0.00    +0.104 C 
ATOM     11  C   UNL     1       4.310   0.476  -0.297  0.00  0.00    +0.305 C 
ATOM     14  C   UNL     1       5.681  -1.573  -0.914  0.00  0.00    +0.133 C 
ENDROOT
BRANCH   3  12
ATOM     12  C   UNL     1      -0.811   0.291   1.714  0.00  0.00    +0.121 C 
BRANCH  12  13
ATOM      5  N   UNL     1      -3.394  -2.007   0.454  0.00  0.00    -0.360 N 
ATOM     13  C   UNL     1      -1.969  -0.417   1.063  0.00  0.00    -0.008 A 
ATOM     15  C   UNL     1      -2.941   0.163   0.200  0.00  0.00    +0.004 A 
ATOM     16  C   UNL     1      -2.274  -1.752   1.199  0.00  0.00    +0.088 A 
ATOM     17  C   UNL     1      -3.823  -0.855  -0.168  0.00  0.00    +0.047 A 
ATOM     18  C   UNL     1      -3.155   1.461  -0.304  0.00  0.00    +0.010 A 
ATOM     19  C   UNL     1      -4.913  -0.640  -1.019  0.00  0.00    +0.026 A 
ATOM     20  C   UNL     1      -4.242   1.691  -1.157  0.00  0.00    +0.001 A 
ATOM     21  C   UNL     1      -5.105   0.656  -1.507  0.00  0.00    +0.002 A 
ATOM     22  H   UNL     1      -3.841  -2.909   0.370  0.00  0.00    +0.165 HD
ENDBRANCH  12  13
ENDBRANCH   3  12
TORSDOF 2
