REMARK  Name = 11911936
REMARK  5 active torsions:
REMARK  status: ('A' for Active; 'I' for Inactive)
REMARK    1  A    between atoms: N_4  and  C_10
REMARK    2  A    between atoms: N_5  and  C_11
REMARK    3  A    between atoms: C_14  and  C_16
REMARK    4  A    between atoms: C_15  and  C_19
REMARK    5  A    between atoms: C_19  and  C_23
REMARK                            x       y       z     vdW  Elec       q    Type
REMARK                         _______ _______ _______ _____ _____    ______ ____
ROOT
ATOM      1  O   UNL     1      -1.447  -2.731   1.220  0.00  0.00    -0.370 OA
ATOM      2  O   UNL     1      -1.213  -2.439  -1.903  0.00  0.00    -0.370 OA
ATOM      8  C   UNL     1      -0.611  -1.756  -0.788  0.00  0.00    +0.175 C 
ATOM      9  C   UNL     1      -1.665  -1.653   0.297  0.00  0.00    +0.171 C 
ATOM     10  C   UNL     1       0.481  -2.618  -0.184  0.00  0.00    +0.166 C 
ATOM     11  C   UNL     1      -2.974  -1.846  -0.434  0.00  0.00    +0.130 C 
ATOM     12  C   UNL     1      -0.274  -3.462   0.837  0.00  0.00    +0.190 C 
ATOM     13  C   UNL     1      -2.574  -2.757  -1.580  0.00  0.00    +0.185 C 
ENDROOT
BRANCH  10   4
ATOM      4  N   UNL     1       1.586  -1.824   0.361  0.00  0.00    -0.244 N 
ATOM      6  N   UNL     1       1.409  -0.912   1.311  0.00  0.00    -0.065 NA
ATOM      7  N   UNL     1       2.611  -0.377   1.579  0.00  0.00    -0.134 NA
ATOM     22  C   UNL     1       2.915  -1.848   0.044  0.00  0.00    +0.134 A 
ATOM     23  C   UNL     1       3.589  -0.930   0.810  0.00  0.00    +0.083 A 
BRANCH  23  19
ATOM     19  C   UNL     1       5.031  -0.539   0.880  0.00  0.00    +0.062 C 
BRANCH  19  15
ATOM     15  C   UNL     1       5.371   0.599  -0.081  0.00  0.00    -0.005 C 
ATOM     20  C   UNL     1       6.874   0.618  -0.388  0.00  0.00    +0.004 C 
ATOM     21  C   UNL     1       4.913   1.947   0.492  0.00  0.00    +0.004 C 
ATOM     26  C   UNL     1       7.247   1.780  -1.305  0.00  0.00    +0.000 C 
ATOM     27  C   UNL     1       5.289   3.107  -0.427  0.00  0.00    +0.000 C 
ATOM     29  C   UNL     1       6.783   3.118  -0.737  0.00  0.00    +0.000 C 
ENDBRANCH  19  15
ENDBRANCH  23  19
ENDBRANCH  10   4
BRANCH  11   5
ATOM      3  O   UNL     1      -4.908  -0.110   0.862  0.00  0.00    -0.276 OA
ATOM      5  N   UNL     1      -3.491  -0.590  -0.922  0.00  0.00    -0.307 N 
ATOM     16  C   UNL     1      -4.417   0.172  -0.228  0.00  0.00    +0.216 C 
ATOM     30  H   UNL     1      -3.102  -0.225  -1.787  0.00  0.00    +0.149 HD
BRANCH  16  14
ATOM     14  C   UNL     1      -4.765   1.443  -0.948  0.00  0.00    +0.075 C 
ATOM     17  C   UNL     1      -3.756   2.539  -0.598  0.00  0.00    +0.013 C 
ATOM     18  C   UNL     1      -6.210   1.857  -0.665  0.00  0.00    +0.013 C 
ATOM     24  C   UNL     1      -3.975   3.133   0.792  0.00  0.00    +0.001 C 
ATOM     25  C   UNL     1      -6.406   2.476   0.719  0.00  0.00    +0.001 C 
ATOM     28  C   UNL     1      -5.413   3.602   0.984  0.00  0.00    +0.000 C 
ENDBRANCH  16  14
ENDBRANCH  11   5
TORSDOF 5
