REMARK  Name = 28963145
REMARK  11 active torsions:
REMARK  status: ('A' for Active; 'I' for Inactive)
REMARK    1  A    between atoms: O_2  and  C_11
REMARK    2  A    between atoms: N_5  and  C_15
REMARK    3  A    between atoms: N_6  and  C_24
REMARK    4  A    between atoms: N_7  and  C_25
REMARK    5  A    between atoms: C_8  and  C_18
REMARK    6  A    between atoms: C_10  and  C_20
REMARK    7  A    between atoms: C_14  and  C_19
REMARK    8  A    between atoms: C_19  and  C_21
REMARK    9  A    between atoms: C_19  and  C_22
REMARK   10  A    between atoms: C_24  and  C_26
REMARK   11  A    between atoms: C_25  and  C_27
REMARK                            x       y       z     vdW  Elec       q    Type
REMARK                         _______ _______ _______ _____ _____    ______ ____
ROOT
ATOM      8  C   UNL     1      -0.178   0.673   1.780  0.00  0.00    -0.027 C 
ATOM      9  C   UNL     1      -0.502   1.421   0.444  0.00  0.00    +0.028 C 
ATOM     10  C   UNL     1      -1.590   0.644  -0.382  0.00  0.00    +0.012 C 
ATOM     11  C   UNL     1       0.798   1.777  -0.333  0.00  0.00    +0.122 C 
ATOM     12  C   UNL     1       0.809   1.519   2.618  0.00  0.00    +0.007 C 
ATOM     13  C   UNL     1      -1.480   0.519   2.600  0.00  0.00    +0.009 C 
ATOM     14  C   UNL     1       1.825   2.533   0.542  0.00  0.00    +0.029 C 
ATOM     15  C   UNL     1      -2.867   0.429   0.478  0.00  0.00    +0.078 C 
ATOM     16  C   UNL     1       2.100   1.836   1.875  0.00  0.00    +0.007 C 
ATOM     17  C   UNL     1      -2.583  -0.205   1.840  0.00  0.00    +0.023 C 
ATOM     18  C   UNL     1       0.444  -0.726   1.542  0.00  0.00    +0.011 C 
ATOM     20  C   UNL     1      -1.978   1.340  -1.698  0.00  0.00    +0.010 C 
ENDROOT
BRANCH  15   5
ATOM      4  O   UNL     1      -5.738   0.603   0.701  0.00  0.00    -0.253 OA
ATOM      5  N   UNL     1      -3.846  -0.385  -0.211  0.00  0.00    -0.296 N 
ATOM      7  N   UNL     1      -5.928  -1.138  -0.820  0.00  0.00    -0.300 N 
ATOM     23  C   UNL     1      -5.218  -0.229  -0.040  0.00  0.00    +0.300 C 
ATOM     33  H   UNL     1      -3.517  -1.155  -0.784  0.00  0.00    +0.151 HD
ATOM     36  H   UNL     1      -5.411  -1.781  -1.413  0.00  0.00    +0.150 HD
BRANCH   7  25
ATOM     25  C   UNL     1      -7.370  -1.197  -0.836  0.00  0.00    +0.102 C 
ATOM     27  C   UNL     1      -7.959  -0.121  -1.724  0.00  0.00    +0.024 C 
ENDBRANCH   7  25
ENDBRANCH  15   5
BRANCH  11   2
ATOM      2  O   UNL     1       0.480   2.639  -1.426  0.00  0.00    -0.391 OA
ATOM     34  H   UNL     1       0.058   3.438  -1.067  0.00  0.00    +0.210 HD
ENDBRANCH  11   2
BRANCH  14  19
ATOM     19  C   UNL     1       3.148   2.758  -0.200  0.00  0.00    +0.077 C 
ATOM     21  C   UNL     1       3.023   3.949  -1.144  0.00  0.00    +0.017 C 
BRANCH  19  22
ATOM      3  O   UNL     1       3.249   1.311  -2.144  0.00  0.00    -0.276 OA
ATOM      6  N   UNL     1       4.308   0.634  -0.196  0.00  0.00    -0.311 N 
ATOM     22  C   UNL     1       3.559   1.509  -0.971  0.00  0.00    +0.216 C 
ATOM     35  H   UNL     1       4.551   0.886   0.757  0.00  0.00    +0.149 HD
BRANCH   6  24
ATOM     24  C   UNL     1       4.803  -0.614  -0.703  0.00  0.00    +0.139 C 
BRANCH  24  26
ATOM      1  F   UNL     1       1.148  -4.819   0.111  0.00  0.00    -0.205 F 
ATOM     26  C   UNL     1       3.829  -1.735  -0.486  0.00  0.00    -0.030 A 
ATOM     28  C   UNL     1       3.883  -2.489   0.686  0.00  0.00    +0.008 A 
ATOM     29  C   UNL     1       2.869  -2.022  -1.456  0.00  0.00    +0.008 A 
ATOM     30  C   UNL     1       2.978  -3.531   0.888  0.00  0.00    +0.038 A 
ATOM     31  C   UNL     1       1.963  -3.064  -1.255  0.00  0.00    +0.038 A 
ATOM     32  C   UNL     1       2.018  -3.819  -0.083  0.00  0.00    +0.123 A 
ENDBRANCH  24  26
ENDBRANCH   6  24
ENDBRANCH  19  22
ENDBRANCH  14  19
TORSDOF 7
