REMARK  Name = 75368640
REMARK  8 active torsions:
REMARK  status: ('A' for Active; 'I' for Inactive)
REMARK    1  A    between atoms: O_2  and  C_25
REMARK    2  A    between atoms: O_2  and  C_27
REMARK    3  A    between atoms: O_3  and  C_26
REMARK    4  A    between atoms: O_3  and  C_28
REMARK    5  A    between atoms: N_5  and  C_14
REMARK    6  A    between atoms: N_6  and  C_15
REMARK    7  A    between atoms: C_14  and  C_16
REMARK    8  A    between atoms: C_15  and  C_17
REMARK                            x       y       z     vdW  Elec       q    Type
REMARK                         _______ _______ _______ _____ _____    ______ ____
ROOT
ATOM      1  O   UNL     1       2.561   3.309  -0.171  0.00  0.00    -0.252 OA
ATOM      4  N   UNL     1       0.420   2.343  -0.157  0.00  0.00    -0.278 N 
ATOM      5  N   UNL     1      -2.038   1.423   0.855  0.00  0.00    -0.295 NA
ATOM      6  N   UNL     1       2.040   1.322  -1.330  0.00  0.00    -0.279 N 
ATOM      8  C   UNL     1      -0.253   1.252  -0.831  0.00  0.00    +0.109 C 
ATOM      9  C   UNL     1      -1.139   0.486   0.151  0.00  0.00    +0.109 C 
ATOM     10  C   UNL     1       0.891   0.439  -1.433  0.00  0.00    +0.133 C 
ATOM     11  C   UNL     1      -0.348   3.238   0.684  0.00  0.00    +0.125 C 
ATOM     12  C   UNL     1      -1.264   2.431   1.608  0.00  0.00    +0.104 C 
ATOM     13  C   UNL     1       1.772   2.438  -0.512  0.00  0.00    +0.305 C 
ENDROOT
BRANCH   5  14
ATOM     14  C   UNL     1      -2.932   0.693   1.753  0.00  0.00    +0.121 C 
BRANCH  14  16
ATOM      7  N   UNL     1      -5.023  -2.006   0.126  0.00  0.00    -0.221 NA
ATOM     16  C   UNL     1      -4.052   0.024   1.009  0.00  0.00    -0.015 A 
ATOM     18  C   UNL     1      -5.127   0.759   0.520  0.00  0.00    +0.011 A 
ATOM     21  C   UNL     1      -4.047  -1.343   0.787  0.00  0.00    +0.119 A 
ATOM     24  C   UNL     1      -6.150   0.112  -0.165  0.00  0.00    +0.067 A 
ATOM     26  C   UNL     1      -6.051  -1.259  -0.334  0.00  0.00    +0.214 A 
BRANCH  26   3
ATOM      3  O   UNL     1      -7.047  -1.919  -1.006  0.00  0.00    -0.480 OA
ATOM     28  C   UNL     1      -6.896  -3.326  -1.151  0.00  0.00    +0.279 C 
ENDBRANCH  26   3
ENDBRANCH  14  16
ENDBRANCH   5  14
BRANCH   6  15
ATOM     15  C   UNL     1       3.327   0.975  -1.891  0.00  0.00    +0.144 C 
BRANCH  15  17
ATOM     17  C   UNL     1       4.095   0.043  -1.001  0.00  0.00    -0.030 A 
ATOM     19  C   UNL     1       4.197  -1.310  -1.329  0.00  0.00    +0.009 A 
ATOM     20  C   UNL     1       4.708   0.527   0.155  0.00  0.00    +0.009 A 
ATOM     22  C   UNL     1       4.911  -2.176  -0.501  0.00  0.00    +0.046 A 
ATOM     23  C   UNL     1       5.422  -0.339   0.982  0.00  0.00    +0.046 A 
ATOM     25  C   UNL     1       5.523  -1.691   0.654  0.00  0.00    +0.120 A 
BRANCH  25   2
ATOM      2  O   UNL     1       6.219  -2.537   1.462  0.00  0.00    -0.495 OA
ATOM     27  C   UNL     1       6.282  -3.907   1.066  0.00  0.00    +0.277 C 
ENDBRANCH  25   2
ENDBRANCH  15  17
ENDBRANCH   6  15
TORSDOF 6
