REMARK  Name = 75537079
REMARK  5 active torsions:
REMARK  status: ('A' for Active; 'I' for Inactive)
REMARK    1  A    between atoms: N_3  and  C_14
REMARK    2  A    between atoms: N_4  and  C_15
REMARK    3  A    between atoms: N_5  and  C_22
REMARK    4  A    between atoms: C_14  and  C_16
REMARK    5  A    between atoms: C_15  and  C_17
REMARK                            x       y       z     vdW  Elec       q    Type
REMARK                         _______ _______ _______ _____ _____    ______ ____
ROOT
ATOM      1  O   UNL     1       2.580   2.762  -0.168  0.00  0.00    -0.252 OA
ATOM      2  N   UNL     1       0.439   1.799  -0.239  0.00  0.00    -0.278 N 
ATOM      3  N   UNL     1      -2.098   0.971   0.650  0.00  0.00    -0.295 NA
ATOM      4  N   UNL     1       2.142   0.677  -1.180  0.00  0.00    -0.278 N 
ATOM      8  C   UNL     1      -0.184   0.650  -0.863  0.00  0.00    +0.109 C 
ATOM      9  C   UNL     1      -1.151  -0.025   0.109  0.00  0.00    +0.109 C 
ATOM     10  C   UNL     1       1.000  -0.214  -1.294  0.00  0.00    +0.133 C 
ATOM     11  C   UNL     1      -0.389   2.765   0.452  0.00  0.00    +0.125 C 
ATOM     12  C   UNL     1      -1.381   2.045   1.368  0.00  0.00    +0.104 C 
ATOM     13  C   UNL     1       1.816   1.863  -0.491  0.00  0.00    +0.306 C 
ENDROOT
BRANCH   3  14
ATOM     14  C   UNL     1      -3.066   0.325   1.536  0.00  0.00    +0.122 C 
BRANCH  14  16
ATOM      5  N   UNL     1      -5.873  -0.937  -0.441  0.00  0.00    -0.274 N 
ATOM      7  N   UNL     1      -5.307  -2.127  -0.177  0.00  0.00    -0.180 NA
ATOM     16  C   UNL     1      -4.128  -0.411   0.763  0.00  0.00    +0.004 A 
ATOM     18  C   UNL     1      -5.206   0.123   0.099  0.00  0.00    +0.112 A 
ATOM     19  C   UNL     1      -4.242  -1.799   0.559  0.00  0.00    +0.139 A 
ATOM     22  C   UNL     1      -7.078  -0.876  -1.233  0.00  0.00    +0.172 C 
ENDBRANCH  14  16
ENDBRANCH   3  14
BRANCH   4  15
ATOM     15  C   UNL     1       3.467   0.281  -1.602  0.00  0.00    +0.164 C 
BRANCH  15  17
ATOM      6  N   UNL     1       4.225  -1.886  -0.796  0.00  0.00    -0.258 NA
ATOM     17  C   UNL     1       4.161  -0.556  -0.560  0.00  0.00    +0.059 A 
ATOM     20  C   UNL     1       4.689   0.059   0.564  0.00  0.00    +0.025 A 
ATOM     21  C   UNL     1       5.324  -0.742   1.506  0.00  0.00    +0.003 A 
ATOM     23  C   UNL     1       4.850  -2.632   0.142  0.00  0.00    +0.111 A 
ATOM     24  C   UNL     1       5.410  -2.115   1.299  0.00  0.00    +0.020 A 
ENDBRANCH  15  17
ENDBRANCH   4  15
TORSDOF 4
