REMARK  Name = 40586252
REMARK  9 active torsions:
REMARK  status: ('A' for Active; 'I' for Inactive)
REMARK    1  A    between atoms: O_2  and  C_14
REMARK    2  A    between atoms: O_3  and  C_19
REMARK    3  A    between atoms: N_8  and  C_30
REMARK    4  A    between atoms: C_9  and  C_17
REMARK    5  A    between atoms: C_11  and  C_19
REMARK    6  A    between atoms: C_11  and  C_20
REMARK    7  A    between atoms: C_12  and  C_22
REMARK    8  A    between atoms: C_22  and  C_23
REMARK    9  A    between atoms: C_25  and  C_26
REMARK                            x       y       z     vdW  Elec       q    Type
REMARK                         _______ _______ _______ _____ _____    ______ ____
ROOT
ATOM      1  S   UNL     1       0.498  -3.246  -0.162  0.00  0.00    -0.057 S 
ATOM      5  O   UNL     1      -3.632  -1.070  -0.325  0.00  0.00    -0.275 OA
ATOM      6  N   UNL     1      -0.638  -0.922  -0.168  0.00  0.00    -0.229 NA
ATOM      7  N   UNL     1      -2.090  -2.842  -0.283  0.00  0.00    -0.264 N 
ATOM      9  C   UNL     1       2.836   0.635   0.444  0.00  0.00    -0.019 C 
ATOM     10  C   UNL     1       3.583  -0.524  -0.353  0.00  0.00    +0.011 C 
ATOM     11  C   UNL     1       5.160  -0.494  -0.350  0.00  0.00    +0.021 C 
ATOM     12  C   UNL     1       1.315   0.670  -0.044  0.00  0.00    +0.054 C 
ATOM     13  C   UNL     1       3.490   1.999   0.102  0.00  0.00    +0.010 C 
ATOM     14  C   UNL     1       5.645   0.950  -0.663  0.00  0.00    +0.123 C 
ATOM     15  C   UNL     1       2.982  -1.921  -0.019  0.00  0.00    +0.049 C 
ATOM     16  C   UNL     1       5.007   2.006   0.233  0.00  0.00    +0.032 C 
ATOM     17  C   UNL     1       2.880   0.434   1.979  0.00  0.00    +0.012 C 
ATOM     18  C   UNL     1       0.727  -0.717  -0.084  0.00  0.00    +0.058 A 
ATOM     20  C   UNL     1       5.686  -1.415  -1.488  0.00  0.00    +0.016 C 
ATOM     21  C   UNL     1       1.493  -1.865  -0.090  0.00  0.00    +0.015 A 
ATOM     24  C   UNL     1      -0.875  -2.215  -0.207  0.00  0.00    +0.165 A 
ATOM     26  C   UNL     1      -3.391  -2.280  -0.338  0.00  0.00    +0.222 C 
ATOM     38  H   UNL     1      -2.033  -3.858  -0.301  0.00  0.00    +0.157 HD
ENDROOT
BRANCH  26  25
ATOM     25  C   UNL     1      -4.522  -3.326  -0.411  0.00  0.00    +0.075 C 
ATOM     27  C   UNL     1      -4.768  -4.192   0.842  0.00  0.00    +0.013 C 
ATOM     28  C   UNL     1      -5.970  -2.819  -0.252  0.00  0.00    +0.013 C 
ATOM     29  C   UNL     1      -6.269  -4.139   0.488  0.00  0.00    +0.001 C 
ENDBRANCH  26  25
BRANCH  14   2
ATOM      2  O   UNL     1       7.064   1.041  -0.540  0.00  0.00    -0.391 OA
ATOM     36  H   UNL     1       7.324   1.944  -0.790  0.00  0.00    +0.210 HD
ENDBRANCH  14   2
BRANCH  11  19
ATOM     19  C   UNL     1       5.809  -1.024   0.947  0.00  0.00    +0.165 C 
BRANCH  19   3
ATOM      3  O   UNL     1       7.208  -0.945   0.794  0.00  0.00    -0.394 OA
ATOM     37  H   UNL     1       7.609  -1.289   1.610  0.00  0.00    +0.209 HD
ENDBRANCH  19   3
ENDBRANCH  11  19
BRANCH  12  22
ATOM     22  C   UNL     1       0.417   1.639   0.736  0.00  0.00    +0.106 C 
BRANCH  22  23
ATOM      4  O   UNL     1      -0.701   2.244  -1.311  0.00  0.00    -0.275 OA
ATOM      8  N   UNL     1      -1.846   2.382   0.736  0.00  0.00    -0.285 N 
ATOM     23  C   UNL     1      -0.758   2.121  -0.091  0.00  0.00    +0.218 C 
ATOM     39  H   UNL     1      -1.729   2.236   1.736  0.00  0.00    +0.155 HD
BRANCH   8  30
ATOM     30  C   UNL     1      -3.127   2.848   0.355  0.00  0.00    +0.033 A 
ATOM     31  C   UNL     1      -4.109   3.058   1.323  0.00  0.00    +0.023 A 
ATOM     32  C   UNL     1      -3.408   3.095  -0.989  0.00  0.00    +0.023 A 
ATOM     33  C   UNL     1      -5.372   3.517   0.948  0.00  0.00    +0.002 A 
ATOM     34  C   UNL     1      -4.671   3.554  -1.364  0.00  0.00    +0.002 A 
ATOM     35  C   UNL     1      -5.653   3.764  -0.396  0.00  0.00    +0.000 A 
ENDBRANCH   8  30
ENDBRANCH  22  23
ENDBRANCH  12  22
TORSDOF 7
