REMARK  Name = 11943400
REMARK  4 active torsions:
REMARK  status: ('A' for Active; 'I' for Inactive)
REMARK    1  A    between atoms: N_4  and  C_12
REMARK    2  A    between atoms: C_6  and  C_12
REMARK    3  A    between atoms: C_8  and  C_13
REMARK    4  A    between atoms: C_14  and  C_16
REMARK                            x       y       z     vdW  Elec       q    Type
REMARK                         _______ _______ _______ _____ _____    ______ ____
ROOT
ATOM      3  N   UNL     1       2.242  -1.462   0.569  0.00  0.00    -0.297 NA
ATOM      5  C   UNL     1       2.730   0.260  -1.321  0.00  0.00    +0.008 C 
ATOM      6  C   UNL     1       0.975  -0.824   0.123  0.00  0.00    +0.074 C 
ATOM      7  C   UNL     1       1.254   0.320  -0.878  0.00  0.00    +0.025 C 
ATOM      8  C   UNL     1       3.635   0.513  -0.095  0.00  0.00    +0.081 C 
ATOM      9  C   UNL     1       3.010  -1.179  -1.793  0.00  0.00    +0.020 C 
ATOM     10  C   UNL     1       3.197  -0.430   1.046  0.00  0.00    +0.101 C 
ATOM     11  C   UNL     1       2.846  -2.143  -0.603  0.00  0.00    +0.085 C 
ENDROOT
BRANCH   8  13
ATOM     13  C   UNL     1       3.608   1.923   0.329  0.00  0.00    -0.101 C 
ATOM     15  C   UNL     1       3.586   3.072   0.674  0.00  0.00    +0.004 C 
ENDBRANCH   8  13
BRANCH   6  12
ATOM     12  C   UNL     1       0.114  -0.355   1.297  0.00  0.00    +0.123 C 
BRANCH  12   4
ATOM      1  O   UNL     1      -2.277  -1.892   0.893  0.00  0.00    -0.267 OA
ATOM      4  N   UNL     1      -1.174   0.141   0.785  0.00  0.00    -0.307 N 
ATOM     14  C   UNL     1      -2.253  -0.692   0.634  0.00  0.00    +0.279 C 
ATOM     20  H   UNL     1      -1.248   1.123   0.536  0.00  0.00    +0.149 HD
BRANCH  14  16
ATOM      2  O   UNL     1      -3.356   1.252  -0.194  0.00  0.00    -0.458 OA
ATOM     16  C   UNL     1      -3.471  -0.045   0.081  0.00  0.00    +0.189 A 
ATOM     17  C   UNL     1      -4.668  -0.573  -0.183  0.00  0.00    +0.054 A 
ATOM     18  C   UNL     1      -5.420   0.514  -0.690  0.00  0.00    +0.042 A 
ATOM     19  C   UNL     1      -4.577   1.601  -0.676  0.00  0.00    +0.196 A 
ENDBRANCH  14  16
ENDBRANCH  12   4
ENDBRANCH   6  12
TORSDOF 4
