REMARK  Name = 44716364
REMARK  14 active torsions:
REMARK  status: ('A' for Active; 'I' for Inactive)
REMARK    1  A    between atoms: O_1  and  C_17
REMARK    2  A    between atoms: O_1  and  C_22
REMARK    3  A    between atoms: O_3  and  C_25
REMARK    4  A    between atoms: O_3  and  C_35
REMARK    5  A    between atoms: O_4  and  C_28
REMARK    6  A    between atoms: O_4  and  C_36
REMARK    7  A    between atoms: N_6  and  C_20
REMARK    8  A    between atoms: N_8  and  C_27
REMARK    9  A    between atoms: C_10  and  C_16
REMARK   10  A    between atoms: C_11  and  C_17
REMARK   11  A    between atoms: C_19  and  C_21
REMARK   12  A    between atoms: C_31  and  C_34
REMARK   13  A    between atoms: C_34  and  C_37
REMARK   14  A    between atoms: C_34  and  C_38
REMARK                            x       y       z     vdW  Elec       q    Type
REMARK                         _______ _______ _______ _____ _____    ______ ____
ROOT
ATOM      5  N   UNL     1      -0.857   4.494   1.296  0.00  0.00    -0.296 NA
ATOM      9  C   UNL     1      -1.903   3.998  -1.037  0.00  0.00    +0.002 C 
ATOM     10  C   UNL     1      -2.762   3.361   0.090  0.00  0.00    +0.055 C 
ATOM     11  C   UNL     1       0.182   3.958   0.377  0.00  0.00    +0.095 C 
ATOM     12  C   UNL     1      -0.457   3.466  -0.940  0.00  0.00    +0.026 C 
ATOM     13  C   UNL     1      -1.848   5.514  -0.752  0.00  0.00    +0.019 C 
ATOM     14  C   UNL     1      -1.974   3.524   1.421  0.00  0.00    +0.094 C 
ATOM     15  C   UNL     1      -1.392   5.741   0.700  0.00  0.00    +0.085 C 
ENDROOT
BRANCH  10  16
ATOM      6  N   UNL     1      -4.462   1.655  -0.709  0.00  0.00    -0.270 N 
ATOM      7  N   UNL     1      -4.728   0.340  -0.788  0.00  0.00    -0.171 NA
ATOM     16  C   UNL     1      -3.270   1.940  -0.110  0.00  0.00    +0.044 A 
ATOM     18  C   UNL     1      -2.719   0.728   0.227  0.00  0.00    +0.053 A 
ATOM     19  C   UNL     1      -3.660  -0.221  -0.215  0.00  0.00    +0.093 A 
ATOM     20  C   UNL     1      -5.416   2.601  -1.238  0.00  0.00    +0.172 C 
BRANCH  19  21
ATOM     21  C   UNL     1      -3.559  -1.653  -0.099  0.00  0.00    +0.006 A 
ATOM     23  C   UNL     1      -4.714  -2.426   0.021  0.00  0.00    +0.059 A 
ATOM     24  C   UNL     1      -2.306  -2.266  -0.106  0.00  0.00    +0.014 A 
ATOM     25  C   UNL     1      -4.616  -3.812   0.133  0.00  0.00    +0.162 A 
ATOM     26  C   UNL     1      -2.208  -3.653   0.007  0.00  0.00    +0.050 A 
ATOM     28  C   UNL     1      -3.363  -4.426   0.126  0.00  0.00    +0.162 A 
BRANCH  25   3
ATOM      3  O   UNL     1      -5.751  -4.557   0.251  0.00  0.00    -0.491 OA
ATOM     35  C   UNL     1      -6.991  -3.853   0.249  0.00  0.00    +0.277 C 
ENDBRANCH  25   3
BRANCH  28   4
ATOM      4  O   UNL     1      -3.254  -5.780   0.236  0.00  0.00    -0.491 OA
ATOM     36  C   UNL     1      -1.937  -6.327   0.220  0.00  0.00    +0.277 C 
ENDBRANCH  28   4
ENDBRANCH  19  21
ENDBRANCH  10  16
BRANCH  11  17
ATOM     17  C   UNL     1       1.039   2.875   1.034  0.00  0.00    +0.252 C 
BRANCH  17   1
ATOM      1  O   UNL     1       2.062   2.506   0.130  0.00  0.00    -0.449 OA
BRANCH   1  22
ATOM      2  O   UNL     1       2.862   0.998   1.652  0.00  0.00    -0.226 OA
ATOM      8  N   UNL     1       3.870   1.291  -0.441  0.00  0.00    -0.251 N 
ATOM     22  C   UNL     1       2.941   1.533   0.553  0.00  0.00    +0.405 C 
ATOM     39  H   UNL     1       3.771   1.839  -1.292  0.00  0.00    +0.158 HD
BRANCH   8  27
ATOM     27  C   UNL     1       4.945   0.373  -0.422  0.00  0.00    +0.036 A 
ATOM     29  C   UNL     1       5.788   0.265  -1.528  0.00  0.00    +0.024 A 
ATOM     30  C   UNL     1       5.162  -0.424   0.701  0.00  0.00    +0.024 A 
ATOM     31  C   UNL     1       7.066  -1.438  -0.386  0.00  0.00    -0.045 A 
ATOM     32  C   UNL     1       6.849  -0.640  -1.510  0.00  0.00    +0.006 A 
ATOM     33  C   UNL     1       6.223  -1.329   0.719  0.00  0.00    +0.006 A 
BRANCH  31  34
ATOM     34  C   UNL     1       8.201  -2.405  -0.366  0.00  0.00    +0.013 C 
ATOM     37  C   UNL     1       7.729  -3.865  -0.234  0.00  0.00    +0.012 C 
ATOM     38  C   UNL     1       9.227  -2.086   0.738  0.00  0.00    +0.012 C 
ENDBRANCH  31  34
ENDBRANCH   8  27
ENDBRANCH   1  22
ENDBRANCH  17   1
ENDBRANCH  11  17
TORSDOF 9
