REMARK  Name = 11885092
REMARK  14 active torsions:
REMARK  status: ('A' for Active; 'I' for Inactive)
REMARK    1  A    between atoms: O_2  and  C_15
REMARK    2  A    between atoms: O_3  and  C_20
REMARK    3  A    between atoms: O_6  and  C_32
REMARK    4  A    between atoms: N_8  and  C_26
REMARK    5  A    between atoms: C_10  and  C_18
REMARK    6  A    between atoms: C_12  and  C_20
REMARK    7  A    between atoms: C_12  and  C_21
REMARK    8  A    between atoms: C_13  and  C_23
REMARK    9  A    between atoms: C_23  and  C_24
REMARK   10  A    between atoms: C_27  and  C_28
REMARK   11  A    between atoms: C_28  and  C_31
REMARK   12  A    between atoms: C_31  and  C_34
REMARK   13  A    between atoms: C_34  and  C_36
REMARK   14  A    between atoms: C_36  and  C_37
REMARK                            x       y       z     vdW  Elec       q    Type
REMARK                         _______ _______ _______ _____ _____    ______ ____
ROOT
ATOM      1  S   UNL     1      -0.831   3.112   0.360  0.00  0.00    -0.057 S 
ATOM      5  O   UNL     1       3.076   0.630  -0.183  0.00  0.00    -0.275 OA
ATOM      7  N   UNL     1       0.115   0.741  -0.058  0.00  0.00    -0.229 NA
ATOM      9  N   UNL     1       1.718   2.526   0.175  0.00  0.00    -0.265 N 
ATOM     10  C   UNL     1      -3.482  -0.610   0.260  0.00  0.00    -0.019 C 
ATOM     11  C   UNL     1      -4.120   0.730  -0.319  0.00  0.00    +0.011 C 
ATOM     12  C   UNL     1      -5.694   0.829  -0.325  0.00  0.00    +0.021 C 
ATOM     13  C   UNL     1      -1.962  -0.681  -0.225  0.00  0.00    +0.054 C 
ATOM     14  C   UNL     1      -4.239  -1.833  -0.320  0.00  0.00    +0.010 C 
ATOM     15  C   UNL     1      -6.289  -0.492  -0.890  0.00  0.00    +0.123 C 
ATOM     16  C   UNL     1      -3.415   1.991   0.258  0.00  0.00    +0.049 C 
ATOM     17  C   UNL     1      -5.753  -1.738  -0.196  0.00  0.00    +0.032 C 
ATOM     18  C   UNL     1      -3.534  -0.681   1.806  0.00  0.00    +0.012 C 
ATOM     19  C   UNL     1      -1.263   0.638  -0.015  0.00  0.00    +0.058 A 
ATOM     21  C   UNL     1      -6.127   1.977  -1.280  0.00  0.00    +0.016 C 
ATOM     22  C   UNL     1      -1.934   1.827   0.183  0.00  0.00    +0.015 A 
ATOM     25  C   UNL     1       0.455   1.997   0.135  0.00  0.00    +0.165 A 
ATOM     27  C   UNL     1       2.933   1.831   0.018  0.00  0.00    +0.219 C 
ATOM     41  H   UNL     1       1.758   3.529   0.337  0.00  0.00    +0.157 HD
ENDROOT
BRANCH  15   2
ATOM      2  O   UNL     1      -7.713  -0.486  -0.789  0.00  0.00    -0.391 OA
ATOM     38  H   UNL     1      -8.061   0.096  -1.484  0.00  0.00    +0.210 HD
ENDBRANCH  15   2
BRANCH  12  20
ATOM     20  C   UNL     1      -6.320   1.172   1.046  0.00  0.00    +0.165 C 
BRANCH  20   3
ATOM      3  O   UNL     1      -7.718   1.235   0.878  0.00  0.00    -0.394 OA
ATOM     39  H   UNL     1      -7.949   2.140   0.608  0.00  0.00    +0.209 HD
ENDBRANCH  20   3
ENDBRANCH  12  20
BRANCH  13  23
ATOM     23  C   UNL     1      -1.157  -1.845   0.369  0.00  0.00    +0.106 C 
BRANCH  23  24
ATOM      4  O   UNL     1       0.467  -1.619  -1.397  0.00  0.00    -0.275 OA
ATOM      8  N   UNL     1       1.118  -2.473   0.693  0.00  0.00    -0.285 N 
ATOM     24  C   UNL     1       0.226  -1.954  -0.241  0.00  0.00    +0.218 C 
ATOM     40  H   UNL     1       0.756  -2.712   1.613  0.00  0.00    +0.155 HD
BRANCH   8  26
ATOM     26  C   UNL     1       2.499  -2.728   0.518  0.00  0.00    +0.037 A 
ATOM     29  C   UNL     1       3.090  -2.449  -0.703  0.00  0.00    +0.068 A 
ATOM     30  C   UNL     1       3.230  -3.251   1.571  0.00  0.00    +0.023 A 
ATOM     32  C   UNL     1       4.452  -2.700  -0.875  0.00  0.00    +0.119 A 
ATOM     33  C   UNL     1       4.591  -3.502   1.399  0.00  0.00    +0.005 A 
ATOM     35  C   UNL     1       5.202  -3.227   0.176  0.00  0.00    +0.045 A 
BRANCH  32   6
ATOM      6  O   UNL     1       5.048  -2.431  -2.069  0.00  0.00    -0.507 OA
ATOM     42  H   UNL     1       5.991  -2.663  -2.010  0.00  0.00    +0.292 HD
ENDBRANCH  32   6
ENDBRANCH   8  26
ENDBRANCH  23  24
ENDBRANCH  13  23
BRANCH  27  28
ATOM     28  C   UNL     1       4.123   2.775   0.126  0.00  0.00    +0.096 C 
BRANCH  28  31
ATOM     31  C   UNL     1       5.461   2.057  -0.040  0.00  0.00    +0.009 C 
BRANCH  31  34
ATOM     34  C   UNL     1       6.632   3.037   0.036  0.00  0.00    +0.000 C 
BRANCH  34  36
ATOM     36  C   UNL     1       7.972   2.314  -0.096  0.00  0.00    -0.003 C 
ATOM     37  C   UNL     1       9.140   3.281   0.013  0.00  0.00    +0.004 C 
ENDBRANCH  34  36
ENDBRANCH  31  34
ENDBRANCH  28  31
ENDBRANCH  27  28
TORSDOF 11
