REMARK  Name = 7142823
REMARK  2 active torsions:
REMARK  status: ('A' for Active; 'I' for Inactive)
REMARK    1  A    between atoms: N_8  and  C_19
REMARK    2  A    between atoms: C_23  and  C_25
REMARK                            x       y       z     vdW  Elec       q    Type
REMARK                         _______ _______ _______ _____ _____    ______ ____
ROOT
ATOM      2  O   UNL     1      -0.557  -1.253   1.997  0.00  0.00    -0.266 OA
ATOM      4  N   UNL     1       3.923  -0.052   0.049  0.00  0.00    -0.299 N 
ATOM      5  N   UNL     1       1.181  -1.641   0.485  0.00  0.00    -0.310 N 
ATOM      6  N   UNL     1       4.268   1.974  -1.110  0.00  0.00    -0.223 NA
ATOM      7  N   UNL     1       4.189   1.932   1.298  0.00  0.00    -0.223 NA
ATOM      9  C   UNL     1       3.563  -2.214   1.227  0.00  0.00    +0.027 C 
ATOM     10  C   UNL     1       3.046  -2.026  -1.164  0.00  0.00    +0.054 C 
ATOM     11  C   UNL     1       3.663  -2.937  -0.108  0.00  0.00    +0.018 C 
ATOM     12  C   UNL     1       4.331  -0.879   1.189  0.00  0.00    +0.113 C 
ATOM     13  C   UNL     1       2.082  -2.022   1.580  0.00  0.00    +0.130 C 
ATOM     14  C   UNL     1       3.860  -0.720  -1.259  0.00  0.00    +0.117 C 
ATOM     15  C   UNL     1       1.596  -1.712  -0.848  0.00  0.00    +0.027 A 
ATOM     16  C   UNL     1       0.722  -1.474  -1.841  0.00  0.00    +0.024 A 
ATOM     17  C   UNL     1      -0.142  -1.310   0.839  0.00  0.00    +0.273 A 
ATOM     18  C   UNL     1       4.134   1.329   0.080  0.00  0.00    +0.218 A 
ATOM     19  C   UNL     1      -1.078  -1.027  -0.296  0.00  0.00    +0.099 A 
ATOM     20  C   UNL     1      -0.641  -1.123  -1.556  0.00  0.00    +0.030 A 
ATOM     21  C   UNL     1       4.470   3.307  -1.043  0.00  0.00    +0.116 A 
ATOM     22  C   UNL     1       4.393   3.265   1.292  0.00  0.00    +0.116 A 
ATOM     24  C   UNL     1       4.542   4.013   0.141  0.00  0.00    +0.039 A 
ENDROOT
BRANCH  19   8
ATOM      3  O   UNL     1      -2.802   0.608  -1.877  0.00  0.00    -0.270 OA
ATOM      8  N   UNL     1      -2.364  -0.686   0.005  0.00  0.00    -0.277 N 
ATOM     23  C   UNL     1      -3.153   0.115  -0.808  0.00  0.00    +0.248 C 
ATOM     31  H   UNL     1      -2.668  -0.934   0.940  0.00  0.00    +0.155 HD
BRANCH  23  25
ATOM      1  F   UNL     1      -8.353   1.032   1.007  0.00  0.00    -0.205 F 
ATOM     25  C   UNL     1      -4.537   0.358  -0.325  0.00  0.00    +0.037 A 
ATOM     26  C   UNL     1      -5.527   0.629  -1.247  0.00  0.00    +0.016 A 
ATOM     27  C   UNL     1      -4.788   0.307   1.030  0.00  0.00    +0.016 A 
ATOM     28  C   UNL     1      -6.826   0.858  -0.794  0.00  0.00    +0.039 A 
ATOM     29  C   UNL     1      -6.087   0.536   1.484  0.00  0.00    +0.039 A 
ATOM     30  C   UNL     1      -7.106   0.812   0.572  0.00  0.00    +0.123 A 
ENDBRANCH  23  25
ENDBRANCH  19   8
TORSDOF 2
