REMARK  Name = 26745197
REMARK  8 active torsions:
REMARK  status: ('A' for Active; 'I' for Inactive)
REMARK    1  A    between atoms: O_3  and  C_26
REMARK    2  A    between atoms: O_3  and  C_27
REMARK    3  A    between atoms: N_7  and  C_18
REMARK    4  A    between atoms: N_8  and  C_17
REMARK    5  A    between atoms: C_9  and  C_14
REMARK    6  A    between atoms: C_17  and  C_19
REMARK    7  A    between atoms: C_17  and  C_20
REMARK    8  A    between atoms: C_18  and  C_21
REMARK                            x       y       z     vdW  Elec       q    Type
REMARK                         _______ _______ _______ _____ _____    ______ ____
ROOT
ATOM      2  O   UNL     1       3.459  -1.654   1.311  0.00  0.00    -0.253 OA
ATOM      4  N   UNL     1       2.440   0.220   0.368  0.00  0.00    -0.268 N 
ATOM      5  N   UNL     1       1.282   3.562  -0.902  0.00  0.00    -0.347 N 
ATOM      6  N   UNL     1      -0.155   3.490   0.806  0.00  0.00    -0.240 NA
ATOM      8  N   UNL     1       4.549  -0.551  -0.385  0.00  0.00    -0.297 N 
ATOM      9  C   UNL     1       1.182  -0.030   1.125  0.00  0.00    +0.170 C 
ATOM     10  C   UNL     1       0.519   1.229   1.722  0.00  0.00    +0.089 C 
ATOM     11  C   UNL     1       2.481   1.335  -0.623  0.00  0.00    +0.165 C 
ATOM     12  C   UNL     1       0.607   2.356   0.774  0.00  0.00    +0.066 A 
ATOM     13  C   UNL     1       1.502   2.377  -0.266  0.00  0.00    +0.056 A 
ATOM     15  C   UNL     1       3.483  -0.729   0.493  0.00  0.00    +0.303 C 
ATOM     16  C   UNL     1       0.275   4.197  -0.219  0.00  0.00    +0.197 A 
ATOM     28  H   UNL     1       1.765   3.910  -1.720  0.00  0.00    +0.167 HD
ATOM     30  H   UNL     1       4.480   0.118  -1.142  0.00  0.00    +0.150 HD
ENDROOT
BRANCH   9  14
ATOM      1  O   UNL     1       0.277  -0.513  -1.034  0.00  0.00    -0.274 OA
ATOM      7  N   UNL     1      -0.563  -1.646   0.818  0.00  0.00    -0.310 N 
ATOM     14  C   UNL     1       0.268  -0.746   0.172  0.00  0.00    +0.234 C 
ATOM     29  H   UNL     1      -0.508  -1.738   1.828  0.00  0.00    +0.149 HD
BRANCH   7  18
ATOM     18  C   UNL     1      -1.550  -2.445   0.130  0.00  0.00    +0.139 C 
BRANCH  18  21
ATOM     21  C   UNL     1      -2.879  -1.750   0.049  0.00  0.00    -0.030 A 
ATOM     22  C   UNL     1      -3.696  -1.675   1.176  0.00  0.00    +0.009 A 
ATOM     23  C   UNL     1      -3.295  -1.180  -1.154  0.00  0.00    +0.009 A 
ATOM     24  C   UNL     1      -4.930  -1.029   1.101  0.00  0.00    +0.046 A 
ATOM     25  C   UNL     1      -4.529  -0.534  -1.230  0.00  0.00    +0.046 A 
ATOM     26  C   UNL     1      -5.347  -0.459  -0.102  0.00  0.00    +0.120 A 
BRANCH  26   3
ATOM      3  O   UNL     1      -6.550   0.172  -0.176  0.00  0.00    -0.495 OA
ATOM     27  C   UNL     1      -6.914   0.733  -1.437  0.00  0.00    +0.277 C 
ENDBRANCH  26   3
ENDBRANCH  18  21
ENDBRANCH   7  18
ENDBRANCH   9  14
BRANCH   8  17
ATOM     17  C   UNL     1       5.691  -1.437  -0.396  0.00  0.00    +0.068 C 
ATOM     19  C   UNL     1       6.949  -0.675  -0.794  0.00  0.00    +0.027 C 
ATOM     20  C   UNL     1       5.444  -2.618  -1.327  0.00  0.00    +0.027 C 
ENDBRANCH   8  17
TORSDOF 5
