REMARK  Name = 51138142
REMARK  9 active torsions:
REMARK  status: ('A' for Active; 'I' for Inactive)
REMARK    1  A    between atoms: N_3  and  C_7
REMARK    2  A    between atoms: N_5  and  C_23
REMARK    3  A    between atoms: C_10  and  C_17
REMARK    4  A    between atoms: C_11  and  C_16
REMARK    5  A    between atoms: C_16  and  C_19
REMARK    6  A    between atoms: C_19  and  C_25
REMARK    7  A    between atoms: C_19  and  C_26
REMARK    8  A    between atoms: C_23  and  C_27
REMARK    9  A    between atoms: C_29  and  C_30
REMARK                            x       y       z     vdW  Elec       q    Type
REMARK                         _______ _______ _______ _____ _____    ______ ____
ROOT
ATOM      4  N   UNL     1      -2.131  -0.238  -0.514  0.00  0.00    -0.299 NA
ATOM      5  N   UNL     1       2.546   0.866   1.041  0.00  0.00    -0.340 N 
ATOM     10  C   UNL     1      -2.091   1.003   0.246  0.00  0.00    +0.145 C 
ATOM     11  C   UNL     1      -1.665  -1.422   0.220  0.00  0.00    +0.085 C 
ATOM     12  C   UNL     1      -0.824   1.803  -0.051  0.00  0.00    +0.065 C 
ATOM     13  C   UNL     1      -0.193  -1.412   0.642  0.00  0.00    -0.021 A 
ATOM     14  C   UNL     1       0.640  -0.256   0.687  0.00  0.00    +0.008 A 
ATOM     15  C   UNL     1       0.431   1.138   0.405  0.00  0.00    -0.020 A 
ATOM     18  C   UNL     1       1.970  -0.381   1.106  0.00  0.00    +0.050 A 
ATOM     20  C   UNL     1       1.629   1.787   0.626  0.00  0.00    +0.091 A 
ATOM     21  C   UNL     1       0.390  -2.620   1.102  0.00  0.00    +0.006 A 
ATOM     22  C   UNL     1       2.538  -1.589   1.511  0.00  0.00    +0.026 A 
ATOM     24  C   UNL     1       1.718  -2.710   1.514  0.00  0.00    +0.002 A 
ATOM     32  H   UNL     1      -1.637  -0.142  -1.401  0.00  0.00    +0.123 HD
ENDROOT
BRANCH  10  17
ATOM      1  O   UNL     1      -3.221   2.572  -1.157  0.00  0.00    -0.274 OA
ATOM      3  N   UNL     1      -4.411   1.532   0.548  0.00  0.00    -0.311 N 
ATOM     17  C   UNL     1      -3.284   1.784  -0.216  0.00  0.00    +0.231 C 
ATOM     31  H   UNL     1      -4.368   0.861   1.311  0.00  0.00    +0.149 HD
BRANCH   3   7
ATOM      7  C   UNL     1      -5.665   2.187   0.311  0.00  0.00    +0.073 C 
ATOM      8  C   UNL     1      -6.624   1.674  -0.723  0.00  0.00    +0.024 C 
ATOM      9  C   UNL     1      -6.963   1.563   0.735  0.00  0.00    +0.024 C 
ENDBRANCH   3   7
ENDBRANCH  10  17
BRANCH  11  16
ATOM     16  C   UNL     1      -2.007  -2.609  -0.699  0.00  0.00    +0.026 C 
BRANCH  16  19
ATOM     19  C   UNL     1      -3.495  -2.973  -0.677  0.00  0.00    -0.015 C 
ATOM     25  C   UNL     1      -3.729  -4.193  -1.571  0.00  0.00    +0.007 C 
ATOM     26  C   UNL     1      -4.391  -1.820  -1.130  0.00  0.00    +0.007 C 
ENDBRANCH  16  19
ENDBRANCH  11  16
BRANCH   5  23
ATOM     23  C   UNL     1       3.918   1.179   1.379  0.00  0.00    +0.180 C 
BRANCH  23  27
ATOM      2  O   UNL     1       6.604  -0.138  -0.637  0.00  0.00    -0.360 OA
ATOM      6  N   UNL     1       5.909  -0.018   0.560  0.00  0.00    -0.081 NA
ATOM     27  C   UNL     1       4.899   0.814   0.292  0.00  0.00    +0.103 A 
ATOM     28  C   UNL     1       4.905   1.248  -1.045  0.00  0.00    +0.072 A 
ATOM     29  C   UNL     1       5.996   0.621  -1.585  0.00  0.00    +0.135 A 
ATOM     30  C   UNL     1       6.604   0.610  -2.921  0.00  0.00    +0.089 C 
ENDBRANCH  23  27
ENDBRANCH   5  23
TORSDOF 6
