REMARK  Name = 75366945
REMARK  7 active torsions:
REMARK  status: ('A' for Active; 'I' for Inactive)
REMARK    1  A    between atoms: O_3  and  C_10
REMARK    2  A    between atoms: N_6  and  C_12
REMARK    3  A    between atoms: N_7  and  C_20
REMARK    4  A    between atoms: C_9  and  C_20
REMARK    5  A    between atoms: C_11  and  C_21
REMARK    6  A    between atoms: C_21  and  C_23
REMARK    7  A    between atoms: C_25  and  C_26
REMARK                            x       y       z     vdW  Elec       q    Type
REMARK                         _______ _______ _______ _____ _____    ______ ____
ROOT
ATOM      2  O   UNL     1       3.109  -0.368   0.696  0.00  0.00    -0.369 OA
ATOM      9  C   UNL     1       3.771   0.819   0.241  0.00  0.00    +0.164 C 
ATOM     10  C   UNL     1       5.294   0.632   0.212  0.00  0.00    +0.145 C 
ATOM     11  C   UNL     1       3.415  -1.556  -0.039  0.00  0.00    +0.125 C 
ATOM     13  C   UNL     1       5.709  -0.648  -0.508  0.00  0.00    +0.036 C 
ATOM     14  C   UNL     1       4.914  -1.845   0.005  0.00  0.00    +0.034 C 
ENDROOT
BRANCH  10   3
ATOM      3  O   UNL     1       5.773   0.551   1.557  0.00  0.00    -0.389 OA
ATOM     34  H   UNL     1       6.743   0.481   1.520  0.00  0.00    +0.210 HD
ENDBRANCH  10   3
BRANCH   9  20
ATOM     20  C   UNL     1       3.203   1.288  -1.097  0.00  0.00    +0.140 C 
BRANCH  20   7
ATOM      4  O   UNL     1       1.770   3.668  -0.356  0.00  0.00    -0.253 OA
ATOM      6  N   UNL     1      -0.228   2.525  -0.663  0.00  0.00    -0.297 N 
ATOM      7  N   UNL     1       1.782   1.444  -1.024  0.00  0.00    -0.297 N 
ATOM     22  C   UNL     1       1.160   2.642  -0.653  0.00  0.00    +0.300 C 
ATOM     32  H   UNL     1      -0.625   1.610  -0.850  0.00  0.00    +0.151 HD
ATOM     33  H   UNL     1       1.197   0.642  -1.238  0.00  0.00    +0.150 HD
BRANCH   6  12
ATOM     12  C   UNL     1      -1.116   3.614  -0.320  0.00  0.00    +0.074 C 
ATOM     15  C   UNL     1      -1.386   3.651   1.188  0.00  0.00    +0.022 C 
ATOM     16  C   UNL     1      -2.422   3.530  -1.117  0.00  0.00    +0.022 C 
ATOM     17  C   UNL     1      -2.284   2.502   1.649  0.00  0.00    +0.002 C 
ATOM     18  C   UNL     1      -3.318   2.383  -0.652  0.00  0.00    +0.002 C 
ATOM     19  C   UNL     1      -3.582   2.447   0.850  0.00  0.00    +0.000 C 
ENDBRANCH   6  12
ENDBRANCH  20   7
ENDBRANCH   9  20
BRANCH  11  21
ATOM     21  C   UNL     1       2.623  -2.698   0.585  0.00  0.00    +0.090 C 
BRANCH  21  23
ATOM      5  O   UNL     1      -0.571  -3.105  -1.036  0.00  0.00    -0.354 OA
ATOM      8  N   UNL     1       0.796  -3.335  -0.937  0.00  0.00    -0.083 NA
ATOM     23  C   UNL     1       1.179  -2.674   0.159  0.00  0.00    +0.087 A 
ATOM     24  C   UNL     1       0.108  -2.014   0.785  0.00  0.00    +0.076 A 
ATOM     25  C   UNL     1      -0.969  -2.317  -0.005  0.00  0.00    +0.167 A 
BRANCH  25  26
ATOM      1  F   UNL     1      -6.387  -1.064   0.122  0.00  0.00    -0.205 F 
ATOM     26  C   UNL     1      -2.365  -1.993   0.028  0.00  0.00    +0.020 A 
ATOM     27  C   UNL     1      -3.001  -1.769   1.249  0.00  0.00    +0.014 A 
ATOM     28  C   UNL     1      -3.088  -1.903  -1.162  0.00  0.00    +0.014 A 
ATOM     29  C   UNL     1      -4.359  -1.455   1.281  0.00  0.00    +0.039 A 
ATOM     30  C   UNL     1      -4.447  -1.589  -1.130  0.00  0.00    +0.039 A 
ATOM     31  C   UNL     1      -5.083  -1.365   0.091  0.00  0.00    +0.123 A 
ENDBRANCH  25  26
ENDBRANCH  21  23
ENDBRANCH  11  21
TORSDOF 7
