REMARK  Name = 38029517
REMARK  11 active torsions:
REMARK  status: ('A' for Active; 'I' for Inactive)
REMARK    1  A    between atoms: O_3  and  C_21
REMARK    2  A    between atoms: O_3  and  C_24
REMARK    3  A    between atoms: N_4  and  C_14
REMARK    4  A    between atoms: C_7  and  C_11
REMARK    5  A    between atoms: C_8  and  C_14
REMARK    6  A    between atoms: C_10  and  C_15
REMARK    7  A    between atoms: C_11  and  C_16
REMARK    8  A    between atoms: C_11  and  C_17
REMARK    9  A    between atoms: C_12  and  C_18
REMARK   10  A    between atoms: C_15  and  C_19
REMARK   11  A    between atoms: C_20  and  C_21
REMARK                            x       y       z     vdW  Elec       q    Type
REMARK                         _______ _______ _______ _____ _____    ______ ____
ROOT
ATOM      7  C   UNL     1      -1.625   2.473   0.759  0.00  0.00    +0.000 C 
ATOM      8  C   UNL     1      -2.777   2.816  -0.218  0.00  0.00    +0.032 C 
ATOM      9  C   UNL     1      -0.349   3.236   0.373  0.00  0.00    +0.012 C 
ATOM     10  C   UNL     1       0.113   2.911  -1.060  0.00  0.00    +0.023 C 
ATOM     12  C   UNL     1      -1.034   2.967  -2.048  0.00  0.00    -0.073 C 
ATOM     13  C   UNL     1      -2.319   2.937  -1.653  0.00  0.00    -0.022 C 
ATOM     18  C   UNL     1      -0.671   3.104  -3.501  0.00  0.00    +0.039 C 
ENDROOT
BRANCH   7  11
ATOM     11  C   UNL     1      -1.998   2.787   2.211  0.00  0.00    -0.013 C 
ATOM     16  C   UNL     1      -1.173   1.934   3.169  0.00  0.00    +0.007 C 
ATOM     17  C   UNL     1      -1.801   4.271   2.501  0.00  0.00    +0.007 C 
ENDBRANCH   7  11
BRANCH   8  14
ATOM     14  C   UNL     1      -3.905   1.782  -0.128  0.00  0.00    +0.112 C 
BRANCH  14   4
ATOM      2  O   UNL     1      -3.834  -0.682   1.386  0.00  0.00    -0.272 OA
ATOM      4  N   UNL     1      -3.459   0.502  -0.583  0.00  0.00    -0.312 N 
ATOM     20  C   UNL     1      -3.458  -0.640   0.218  0.00  0.00    +0.251 C 
ATOM     33  H   UNL     1      -3.180   0.410  -1.555  0.00  0.00    +0.149 HD
BRANCH  20  21
ATOM     21  C   UNL     1      -2.935  -1.855  -0.518  0.00  0.00    +0.324 C 
BRANCH  21   3
ATOM      3  O   UNL     1      -2.961  -2.993   0.317  0.00  0.00    -0.483 OA
BRANCH   3  24
ATOM     24  C   UNL     1      -2.009  -3.959   0.091  0.00  0.00    +0.121 A 
ATOM     28  C   UNL     1      -1.504  -4.154  -1.195  0.00  0.00    +0.045 A 
ATOM     29  C   UNL     1      -1.548  -4.744   1.147  0.00  0.00    +0.045 A 
ATOM     30  C   UNL     1      -0.538  -5.134  -1.424  0.00  0.00    +0.004 A 
ATOM     31  C   UNL     1      -0.582  -5.724   0.918  0.00  0.00    +0.004 A 
ATOM     32  C   UNL     1      -0.077  -5.919  -0.367  0.00  0.00    +0.000 A 
ENDBRANCH   3  24
ENDBRANCH  21   3
ENDBRANCH  20  21
ENDBRANCH  14   4
ENDBRANCH   8  14
BRANCH  10  15
ATOM     15  C   UNL     1       0.821   1.552  -1.117  0.00  0.00    +0.104 C 
BRANCH  15  19
ATOM      1  O   UNL     1       2.693   2.634  -0.055  0.00  0.00    -0.275 OA
ATOM      5  N   UNL     1       2.805   0.347  -0.579  0.00  0.00    -0.270 N 
ATOM      6  N   UNL     1       4.489  -1.306  -0.279  0.00  0.00    -0.240 NA
ATOM     19  C   UNL     1       2.211   1.604  -0.516  0.00  0.00    +0.219 C 
ATOM     22  C   UNL     1       4.094  -0.022  -0.126  0.00  0.00    +0.125 A 
ATOM     23  C   UNL     1       4.876   0.966   0.451  0.00  0.00    +0.044 A 
ATOM     25  C   UNL     1       6.144   0.614   0.899  0.00  0.00    +0.005 A 
ATOM     26  C   UNL     1       5.727  -1.611   0.168  0.00  0.00    +0.113 A 
ATOM     27  C   UNL     1       6.585  -0.697   0.759  0.00  0.00    +0.020 A 
ATOM     34  H   UNL     1       2.276  -0.416  -0.993  0.00  0.00    +0.156 HD
ENDBRANCH  15  19
ENDBRANCH  10  15
TORSDOF 8
