REMARK  Name = 25390940
REMARK  5 active torsions:
REMARK  status: ('A' for Active; 'I' for Inactive)
REMARK    1  A    between atoms: S_1  and  N_10
REMARK    2  A    between atoms: S_1  and  C_23
REMARK    3  A    between atoms: N_10  and  C_12
REMARK    4  A    between atoms: C_24  and  C_26
REMARK    5  A    between atoms: C_29  and  C_32
REMARK                            x       y       z     vdW  Elec       q    Type
REMARK                         _______ _______ _______ _____ _____    ______ ____
ROOT
ATOM      5  O   UNL     1       3.654   2.413   0.303  0.00  0.00    -0.273 OA
ATOM      6  O   UNL     1       0.223  -0.625  -2.186  0.00  0.00    -0.270 OA
ATOM      9  N   UNL     1       1.954  -0.184  -0.702  0.00  0.00    -0.286 N 
ATOM     11  N   UNL     1       1.381   2.596   0.132  0.00  0.00    -0.283 N 
ATOM     12  C   UNL     1       4.684  -0.659   0.217  0.00  0.00    +0.080 C 
ATOM     13  C   UNL     1       2.367   0.389   0.572  0.00  0.00    +0.164 C 
ATOM     14  C   UNL     1       3.586  -0.285   1.212  0.00  0.00    +0.052 C 
ATOM     15  C   UNL     1       4.078  -1.472  -0.922  0.00  0.00    +0.039 C 
ATOM     16  C   UNL     1       2.985  -0.678  -1.618  0.00  0.00    +0.110 C 
ATOM     17  C   UNL     1       2.547   1.873   0.304  0.00  0.00    +0.238 C 
ATOM     18  C   UNL     1       0.643  -0.071  -1.169  0.00  0.00    +0.249 C 
ATOM     19  C   UNL     1      -0.296   0.827  -0.446  0.00  0.00    +0.059 A 
ATOM     20  C   UNL     1       0.061   2.098   0.039  0.00  0.00    +0.046 A 
ATOM     21  C   UNL     1      -1.647   0.438  -0.447  0.00  0.00    +0.023 A 
ATOM     22  C   UNL     1      -0.954   2.977   0.451  0.00  0.00    +0.024 A 
ATOM     24  C   UNL     1      -2.636   1.306   0.013  0.00  0.00    -0.017 A 
ATOM     25  C   UNL     1      -2.291   2.580   0.449  0.00  0.00    +0.010 A 
ATOM     34  H   UNL     1       1.477   3.608   0.178  0.00  0.00    +0.155 HD
ENDROOT
BRANCH  24  26
ATOM     26  C   UNL     1      -4.022   0.892   0.013  0.00  0.00    -0.017 A 
ATOM     27  C   UNL     1      -4.348  -0.452   0.197  0.00  0.00    +0.021 A 
ATOM     28  C   UNL     1      -5.032   1.836  -0.173  0.00  0.00    +0.008 A 
ATOM     29  C   UNL     1      -5.685  -0.852   0.197  0.00  0.00    +0.055 A 
ATOM     30  C   UNL     1      -6.369   1.436  -0.173  0.00  0.00    +0.001 A 
ATOM     31  C   UNL     1      -6.695   0.092   0.011  0.00  0.00    +0.012 A 
BRANCH  29  32
ATOM      2  F   UNL     1      -7.382  -2.508   0.366  0.00  0.00    -0.166 F 
ATOM      3  F   UNL     1      -5.509  -3.115  -0.557  0.00  0.00    -0.166 F 
ATOM      4  F   UNL     1      -5.605  -2.797   1.586  0.00  0.00    -0.166 F 
ATOM     32  C   UNL     1      -6.035  -2.288   0.394  0.00  0.00    +0.417 C 
ENDBRANCH  29  32
ENDBRANCH  24  26
BRANCH  12  10
ATOM     10  N   UNL     1       5.738  -1.398   0.871  0.00  0.00    -0.192 NA
ATOM     33  H   UNL     1       5.572  -1.756   1.819  0.00  0.00    +0.148 HD
BRANCH  10   1
ATOM      1  S   UNL     1       7.330  -1.257   0.283  0.00  0.00    +0.027 S 
ATOM      7  O   UNL     1       7.311  -1.010  -1.145  0.00  0.00    -0.158 OA
ATOM      8  O   UNL     1       8.116  -2.343   0.838  0.00  0.00    -0.158 OA
ATOM     23  C   UNL     1       7.848   0.240   1.091  0.00  0.00    +0.214 C 
ENDBRANCH  10   1
ENDBRANCH  12  10
TORSDOF 4
