REMARK  Name = 7672469
REMARK  3 active torsions:
REMARK  status: ('A' for Active; 'I' for Inactive)
REMARK    1  A    between atoms: S_1  and  N_6
REMARK    2  A    between atoms: S_1  and  C_19
REMARK    3  A    between atoms: C_17  and  C_20
REMARK                            x       y       z     vdW  Elec       q    Type
REMARK                         _______ _______ _______ _____ _____    ______ ____
ROOT
ATOM      5  O   UNL     1      -2.012   1.058  -1.774  0.00  0.00    -0.267 OA
ATOM      6  N   UNL     1       2.637  -0.028  -0.350  0.00  0.00    -0.176 NA
ATOM      7  N   UNL     1      -0.173   1.414  -0.383  0.00  0.00    -0.311 N 
ATOM      8  C   UNL     1       2.089   2.228  -1.267  0.00  0.00    +0.025 C 
ATOM      9  C   UNL     1       1.805   1.787   1.132  0.00  0.00    +0.052 C 
ATOM     10  C   UNL     1       2.253   2.837   0.119  0.00  0.00    +0.017 C 
ATOM     11  C   UNL     1       2.959   0.969  -1.411  0.00  0.00    +0.114 C 
ATOM     12  C   UNL     1       2.714   0.548   1.026  0.00  0.00    +0.119 C 
ATOM     13  C   UNL     1       0.602   1.945  -1.513  0.00  0.00    +0.130 C 
ATOM     14  C   UNL     1       0.355   1.398   0.910  0.00  0.00    +0.026 A 
ATOM     15  C   UNL     1      -0.410   1.018   1.947  0.00  0.00    +0.022 A 
ATOM     16  C   UNL     1      -1.501   1.027  -0.653  0.00  0.00    +0.260 A 
ATOM     17  C   UNL     1      -2.318   0.574   0.525  0.00  0.00    +0.053 A 
ATOM     18  C   UNL     1      -1.768   0.597   1.747  0.00  0.00    +0.016 A 
ENDROOT
BRANCH  17  20
ATOM      2  S   UNL     1      -3.980  -1.523   0.053  0.00  0.00    -0.088 S 
ATOM     20  C   UNL     1      -3.665   0.130   0.349  0.00  0.00    +0.026 A 
ATOM     23  C   UNL     1      -4.830   0.869   0.382  0.00  0.00    +0.024 A 
ATOM     26  C   UNL     1      -6.007   0.078   0.163  0.00  0.00    -0.010 A 
ATOM     27  C   UNL     1      -5.683  -1.268  -0.034  0.00  0.00    +0.020 A 
ATOM     29  C   UNL     1      -7.372   0.451   0.120  0.00  0.00    +0.009 A 
ATOM     30  C   UNL     1      -6.677  -2.238  -0.269  0.00  0.00    +0.015 A 
ATOM     31  C   UNL     1      -8.361  -0.509  -0.113  0.00  0.00    +0.001 A 
ATOM     32  C   UNL     1      -8.014  -1.839  -0.305  0.00  0.00    +0.001 A 
ENDBRANCH  17  20
BRANCH   6   1
ATOM      1  S   UNL     1       3.346  -1.573  -0.546  0.00  0.00    +0.061 S 
ATOM      3  O   UNL     1       3.342  -1.922  -1.951  0.00  0.00    -0.153 OA
ATOM      4  O   UNL     1       2.796  -2.473   0.446  0.00  0.00    -0.153 OA
BRANCH   1  19
ATOM     19  C   UNL     1       5.012  -1.210  -0.085  0.00  0.00    +0.105 A 
ATOM     21  C   UNL     1       5.390  -1.336   1.241  0.00  0.00    +0.028 A 
ATOM     22  C   UNL     1       5.911  -0.805  -1.057  0.00  0.00    +0.028 A 
ATOM     24  C   UNL     1       6.706  -1.048   1.606  0.00  0.00    +0.002 A 
ATOM     25  C   UNL     1       7.226  -0.517  -0.693  0.00  0.00    +0.002 A 
ATOM     28  C   UNL     1       7.623  -0.638   0.639  0.00  0.00    +0.000 A 
ENDBRANCH   1  19
ENDBRANCH   6   1
TORSDOF 3
