REMARK  Name = 11867161
REMARK  8 active torsions:
REMARK  status: ('A' for Active; 'I' for Inactive)
REMARK    1  A    between atoms: S_1  and  N_9
REMARK    2  A    between atoms: S_1  and  C_23
REMARK    3  A    between atoms: O_4  and  C_22
REMARK    4  A    between atoms: O_4  and  C_25
REMARK    5  A    between atoms: N_9  and  C_20
REMARK    6  A    between atoms: C_19  and  C_22
REMARK    7  A    between atoms: C_23  and  C_24
REMARK    8  A    between atoms: C_24  and  C_26
REMARK                            x       y       z     vdW  Elec       q    Type
REMARK                         _______ _______ _______ _____ _____    ______ ____
ROOT
ATOM      2  O   UNL     1      -3.333   0.472  -0.830  0.00  0.00    -0.266 OA
ATOM      3  O   UNL     1       1.803   0.712  -2.340  0.00  0.00    -0.272 OA
ATOM      7  N   UNL     1       1.333   2.351  -0.762  0.00  0.00    -0.298 N 
ATOM      8  N   UNL     1      -1.718   1.906   0.080  0.00  0.00    -0.310 N 
ATOM     10  C   UNL     1      -0.637   3.810  -1.243  0.00  0.00    +0.027 C 
ATOM     11  C   UNL     1       0.041   3.405   1.086  0.00  0.00    +0.054 C 
ATOM     12  C   UNL     1      -0.465   4.472   0.119  0.00  0.00    +0.018 C 
ATOM     13  C   UNL     1       0.704   3.241  -1.739  0.00  0.00    +0.113 C 
ATOM     14  C   UNL     1      -1.718   2.728  -1.136  0.00  0.00    +0.130 C 
ATOM     15  C   UNL     1       1.410   2.881   0.608  0.00  0.00    +0.117 C 
ATOM     16  C   UNL     1      -0.941   2.253   1.194  0.00  0.00    +0.027 A 
ATOM     17  C   UNL     1      -1.042   1.555   2.340  0.00  0.00    +0.024 A 
ATOM     18  C   UNL     1      -2.614   0.816   0.108  0.00  0.00    +0.274 A 
ATOM     19  C   UNL     1       1.878   1.139  -1.185  0.00  0.00    +0.253 C 
ATOM     20  C   UNL     1      -2.663   0.071   1.391  0.00  0.00    +0.112 A 
ATOM     21  C   UNL     1      -1.929   0.428   2.445  0.00  0.00    +0.031 A 
ENDROOT
BRANCH  20   9
ATOM      9  N   UNL     1      -3.512  -1.040   1.532  0.00  0.00    -0.215 N 
ATOM     32  H   UNL     1      -3.725  -1.296   2.506  0.00  0.00    +0.173 HD
BRANCH   9   1
ATOM      1  S   UNL     1      -3.156  -2.366   0.520  0.00  0.00    +0.043 S 
ATOM      5  O   UNL     1      -2.204  -1.964  -0.497  0.00  0.00    -0.155 OA
ATOM      6  O   UNL     1      -2.932  -3.545   1.334  0.00  0.00    -0.155 OA
BRANCH   1  23
ATOM     23  C   UNL     1      -4.729  -2.560  -0.281  0.00  0.00    +0.188 C 
BRANCH  23  24
ATOM     24  C   UNL     1      -4.707  -3.710  -1.273  0.00  0.00    +0.021 C 
ATOM     26  C   UNL     1      -6.046  -3.865  -1.974  0.00  0.00    +0.005 C 
ENDBRANCH  23  24
ENDBRANCH   1  23
ENDBRANCH   9   1
ENDBRANCH  20   9
BRANCH  19  22
ATOM     22  C   UNL     1       2.592   0.318  -0.141  0.00  0.00    +0.324 C 
BRANCH  22   4
ATOM      4  O   UNL     1       3.021  -0.860  -0.780  0.00  0.00    -0.483 OA
BRANCH   4  25
ATOM     25  C   UNL     1       4.139  -1.483  -0.272  0.00  0.00    +0.121 A 
ATOM     27  C   UNL     1       4.423  -1.378   1.082  0.00  0.00    +0.045 A 
ATOM     28  C   UNL     1       4.962  -2.205  -1.123  0.00  0.00    +0.045 A 
ATOM     29  C   UNL     1       5.555  -2.009   1.596  0.00  0.00    +0.004 A 
ATOM     30  C   UNL     1       6.095  -2.836  -0.609  0.00  0.00    +0.004 A 
ATOM     31  C   UNL     1       6.391  -2.738   0.750  0.00  0.00    +0.000 A 
ENDBRANCH   4  25
ENDBRANCH  22   4
ENDBRANCH  19  22
TORSDOF 7
