REMARK  Name = 45360523
REMARK  8 active torsions:
REMARK  status: ('A' for Active; 'I' for Inactive)
REMARK    1  A    between atoms: O_4  and  C_33
REMARK    2  A    between atoms: O_4  and  C_34
REMARK    3  A    between atoms: N_7  and  C_15
REMARK    4  A    between atoms: C_10  and  C_13
REMARK    5  A    between atoms: C_11  and  C_17
REMARK    6  A    between atoms: C_13  and  C_22
REMARK    7  A    between atoms: C_17  and  C_23
REMARK    8  A    between atoms: C_29  and  C_33
REMARK                            x       y       z     vdW  Elec       q    Type
REMARK                         _______ _______ _______ _____ _____    ______ ____
ROOT
ATOM      6  N   UNL     1       6.818  -0.432   1.534  0.00  0.00    -0.316 NA
ATOM     10  C   UNL     1       4.120   0.068   0.450  0.00  0.00    +0.004 C 
ATOM     11  C   UNL     1       4.825  -1.305   0.338  0.00  0.00    +0.012 C 
ATOM     12  C   UNL     1       4.700   0.834   1.650  0.00  0.00    +0.019 C 
ATOM     14  C   UNL     1       6.356  -1.160   0.352  0.00  0.00    +0.085 C 
ATOM     16  C   UNL     1       6.226   0.902   1.617  0.00  0.00    +0.081 C 
ATOM     40  H   UNL     1       7.834  -0.349   1.503  0.00  0.00    +0.122 HD
ENDROOT
BRANCH  10  13
ATOM     13  C   UNL     1       4.197   0.914  -0.826  0.00  0.00    +0.100 C 
BRANCH  13  22
ATOM      1  O   UNL     1       4.074   3.184  -0.160  0.00  0.00    -0.276 OA
ATOM      5  N   UNL     1       2.118   2.240  -0.983  0.00  0.00    -0.301 N 
ATOM     15  C   UNL     1      -0.745   2.064  -0.591  0.00  0.00    +0.095 C 
ATOM     18  C   UNL     1       0.119   0.812  -0.772  0.00  0.00    +0.044 C 
ATOM     19  C   UNL     1       0.080   3.208   0.008  0.00  0.00    +0.044 C 
ATOM     20  C   UNL     1       1.379   1.120  -1.579  0.00  0.00    +0.110 C 
ATOM     21  C   UNL     1       1.339   3.468  -0.814  0.00  0.00    +0.110 C 
ATOM     22  C   UNL     1       3.465   2.217  -0.625  0.00  0.00    +0.216 C 
BRANCH  15   7
ATOM      3  O   UNL     1      -0.865   1.131   2.274  0.00  0.00    -0.247 OA
ATOM      7  N   UNL     1      -1.895   1.780   0.232  0.00  0.00    -0.289 N 
ATOM      8  N   UNL     1      -3.211   1.194   1.979  0.00  0.00    -0.306 N 
ATOM     24  C   UNL     1      -3.230   1.894  -0.175  0.00  0.00    +0.070 A 
ATOM     25  C   UNL     1      -1.851   1.342   1.582  0.00  0.00    +0.328 A 
ATOM     26  C   UNL     1      -4.034   1.532   0.904  0.00  0.00    +0.067 A 
ATOM     28  C   UNL     1      -3.774   2.279  -1.382  0.00  0.00    +0.028 A 
ATOM     30  C   UNL     1      -5.409   1.535   0.835  0.00  0.00    +0.028 A 
ATOM     31  C   UNL     1      -5.170   2.291  -1.478  0.00  0.00    +0.002 A 
ATOM     32  C   UNL     1      -5.978   1.923  -0.382  0.00  0.00    +0.002 A 
ATOM     41  H   UNL     1      -3.540   0.892   2.888  0.00  0.00    +0.170 HD
ENDBRANCH  15   7
ENDBRANCH  13  22
ENDBRANCH  10  13
BRANCH  11  17
ATOM     17  C   UNL     1       4.373  -2.114  -0.879  0.00  0.00    +0.064 C 
BRANCH  17  23
ATOM      2  O   UNL     1       0.898  -2.675  -1.636  0.00  0.00    -0.356 OA
ATOM      9  N   UNL     1       2.221  -2.469  -2.010  0.00  0.00    -0.083 NA
ATOM     23  C   UNL     1       2.890  -2.348  -0.860  0.00  0.00    +0.084 A 
ATOM     27  C   UNL     1       2.051  -2.468   0.261  0.00  0.00    +0.074 A 
ATOM     29  C   UNL     1       0.810  -2.673  -0.281  0.00  0.00    +0.175 A 
BRANCH  29  33
ATOM     33  C   UNL     1      -0.527  -2.879   0.288  0.00  0.00    +0.306 C 
BRANCH  33   4
ATOM      4  O   UNL     1      -1.528  -2.368  -0.597  0.00  0.00    -0.484 OA
BRANCH   4  34
ATOM     34  C   UNL     1      -2.821  -2.437  -0.159  0.00  0.00    +0.121 A 
ATOM     35  C   UNL     1      -3.105  -2.984   1.092  0.00  0.00    +0.045 A 
ATOM     36  C   UNL     1      -3.856  -1.960  -0.963  0.00  0.00    +0.045 A 
ATOM     37  C   UNL     1      -4.425  -3.054   1.539  0.00  0.00    +0.004 A 
ATOM     38  C   UNL     1      -5.175  -2.029  -0.516  0.00  0.00    +0.004 A 
ATOM     39  C   UNL     1      -5.460  -2.576   0.735  0.00  0.00    +0.000 A 
ENDBRANCH   4  34
ENDBRANCH  33   4
ENDBRANCH  29  33
ENDBRANCH  17  23
ENDBRANCH  11  17
TORSDOF 8
