REMARK  Name = 75536705
REMARK  9 active torsions:
REMARK  status: ('A' for Active; 'I' for Inactive)
REMARK    1  A    between atoms: S_1  and  N_7
REMARK    2  A    between atoms: S_1  and  C_16
REMARK    3  A    between atoms: O_3  and  C_10
REMARK    4  A    between atoms: N_6  and  C_9
REMARK    5  A    between atoms: N_6  and  C_14
REMARK    6  A    between atoms: N_7  and  C_13
REMARK    7  A    between atoms: C_11  and  C_13
REMARK    8  A    between atoms: C_14  and  C_15
REMARK    9  A    between atoms: C_22  and  C_26
REMARK                            x       y       z     vdW  Elec       q    Type
REMARK                         _______ _______ _______ _____ _____    ______ ____
ROOT
ATOM      2  O   UNL     1      -0.180  -1.435   1.376  0.00  0.00    -0.371 OA
ATOM      9  C   UNL     1      -2.127  -1.129   0.051  0.00  0.00    +0.111 C 
ATOM     10  C   UNL     1      -0.906  -0.766  -0.773  0.00  0.00    +0.164 C 
ATOM     11  C   UNL     1       0.190  -1.498  -0.011  0.00  0.00    +0.164 C 
ATOM     12  C   UNL     1      -1.568  -1.065   1.462  0.00  0.00    +0.181 C 
ENDROOT
BRANCH  10   3
ATOM      3  O   UNL     1      -1.001  -1.206  -2.114  0.00  0.00    -0.388 OA
ATOM     29  H   UNL     1      -1.154  -2.167  -2.110  0.00  0.00    +0.210 HD
ENDBRANCH  10   3
BRANCH   9   6
ATOM      6  N   UNL     1      -3.255  -0.233  -0.152  0.00  0.00    -0.303 NA
ATOM     27  H   UNL     1      -3.377  -0.071  -1.152  0.00  0.00    +0.123 HD
BRANCH   6  14
ATOM     14  C   UNL     1      -4.483  -0.806   0.386  0.00  0.00    +0.137 C 
BRANCH  14  15
ATOM      8  N   UNL     1      -6.527  -0.201  -0.787  0.00  0.00    -0.259 NA
ATOM     15  C   UNL     1      -5.660   0.116   0.200  0.00  0.00    +0.055 A 
ATOM     17  C   UNL     1      -5.796   1.218   1.028  0.00  0.00    +0.024 A 
ATOM     23  C   UNL     1      -6.894   2.048   0.831  0.00  0.00    +0.003 A 
ATOM     24  C   UNL     1      -7.582   0.629  -0.949  0.00  0.00    +0.111 A 
ATOM     25  C   UNL     1      -7.809   1.755  -0.174  0.00  0.00    +0.020 A 
ENDBRANCH  14  15
ENDBRANCH   6  14
ENDBRANCH   9   6
BRANCH  11  13
ATOM     13  C   UNL     1       1.567  -0.887  -0.204  0.00  0.00    +0.140 C 
BRANCH  13   7
ATOM      7  N   UNL     1       2.562  -1.657   0.567  0.00  0.00    -0.187 NA
ATOM     28  H   UNL     1       2.390  -1.723   1.578  0.00  0.00    +0.148 HD
BRANCH   7   1
ATOM      1  S   UNL     1       4.165  -1.775   0.010  0.00  0.00    +0.058 S 
ATOM      4  O   UNL     1       4.165  -2.269  -1.354  0.00  0.00    -0.153 OA
ATOM      5  O   UNL     1       4.970  -2.431   1.023  0.00  0.00    -0.153 OA
BRANCH   1  16
ATOM     16  C   UNL     1       4.662  -0.079  -0.025  0.00  0.00    +0.105 A 
ATOM     18  C   UNL     1       5.248   0.499   1.101  0.00  0.00    +0.029 A 
ATOM     19  C   UNL     1       4.466   0.682  -1.178  0.00  0.00    +0.029 A 
ATOM     20  C   UNL     1       5.637   1.838   1.075  0.00  0.00    +0.005 A 
ATOM     21  C   UNL     1       4.856   2.021  -1.204  0.00  0.00    +0.005 A 
ATOM     22  C   UNL     1       5.441   2.599  -0.078  0.00  0.00    -0.050 A 
ATOM     26  C   UNL     1       5.858   4.031  -0.106  0.00  0.00    +0.044 C 
ENDBRANCH   1  16
ENDBRANCH   7   1
ENDBRANCH  13   7
ENDBRANCH  11  13
TORSDOF 8
