REMARK  Name = 51137475
REMARK  7 active torsions:
REMARK  status: ('A' for Active; 'I' for Inactive)
REMARK    1  A    between atoms: O_5  and  C_23
REMARK    2  A    between atoms: O_5  and  C_29
REMARK    3  A    between atoms: N_6  and  C_13
REMARK    4  A    between atoms: C_9  and  C_14
REMARK    5  A    between atoms: C_13  and  C_15
REMARK    6  A    between atoms: C_18  and  C_22
REMARK    7  A    between atoms: C_21  and  C_24
REMARK                            x       y       z     vdW  Elec       q    Type
REMARK                         _______ _______ _______ _____ _____    ______ ____
ROOT
ATOM      6  N   UNL     1      -1.289  -0.699  -0.480  0.00  0.00    -0.297 NA
ATOM      9  C   UNL     1       0.746  -1.805  -0.116  0.00  0.00    +0.092 C 
ATOM     10  C   UNL     1       0.160  -1.348   1.232  0.00  0.00    +0.029 C 
ATOM     11  C   UNL     1      -0.034  -1.007  -1.169  0.00  0.00    +0.097 C 
ATOM     12  C   UNL     1      -0.890  -0.306   0.872  0.00  0.00    +0.085 C 
ENDROOT
BRANCH   9  14
ATOM      4  O   UNL     1       2.739  -0.382  -0.119  0.00  0.00    -0.420 OA
ATOM      7  N   UNL     1       3.166  -2.550  -0.464  0.00  0.00    -0.112 NA
ATOM      8  N   UNL     1       4.369  -1.868  -0.491  0.00  0.00    -0.107 NA
ATOM     14  C   UNL     1       2.243  -1.643  -0.244  0.00  0.00    +0.222 A 
ATOM     18  C   UNL     1       4.071  -0.606  -0.285  0.00  0.00    +0.252 A 
BRANCH  18  22
ATOM     22  C   UNL     1       4.917   0.549  -0.209  0.00  0.00    +0.080 A 
ATOM     23  C   UNL     1       6.228   0.447   0.254  0.00  0.00    +0.132 A 
ATOM     25  C   UNL     1       4.411   1.788  -0.603  0.00  0.00    +0.017 A 
ATOM     26  C   UNL     1       7.035   1.583   0.322  0.00  0.00    +0.046 A 
ATOM     27  C   UNL     1       5.217   2.924  -0.535  0.00  0.00    +0.001 A 
ATOM     28  C   UNL     1       6.529   2.822  -0.073  0.00  0.00    +0.004 A 
BRANCH  23   5
ATOM      5  O   UNL     1       6.749  -0.751   0.646  0.00  0.00    -0.494 OA
ATOM     29  C   UNL     1       6.594  -1.104   2.019  0.00  0.00    +0.277 C 
ENDBRANCH  23   5
ENDBRANCH  18  22
ENDBRANCH   9  14
BRANCH   6  13
ATOM     13  C   UNL     1      -2.053   0.339  -1.156  0.00  0.00    +0.119 C 
BRANCH  13  15
ATOM     15  C   UNL     1      -3.495   0.347  -0.722  0.00  0.00    -0.033 A 
ATOM     16  C   UNL     1      -4.374  -0.622  -1.205  0.00  0.00    +0.005 A 
ATOM     17  C   UNL     1      -3.951   1.324   0.163  0.00  0.00    +0.005 A 
ATOM     19  C   UNL     1      -5.710  -0.614  -0.802  0.00  0.00    +0.012 A 
ATOM     20  C   UNL     1      -5.286   1.332   0.566  0.00  0.00    +0.012 A 
ATOM     21  C   UNL     1      -6.166   0.363   0.083  0.00  0.00    +0.055 A 
BRANCH  21  24
ATOM      1  F   UNL     1      -7.759   0.235   1.863  0.00  0.00    -0.166 F 
ATOM      2  F   UNL     1      -8.317  -0.641  -0.047  0.00  0.00    -0.166 F 
ATOM      3  F   UNL     1      -8.257   1.519   0.188  0.00  0.00    -0.166 F 
ATOM     24  C   UNL     1      -7.593   0.371   0.514  0.00  0.00    +0.417 C 
ENDBRANCH  21  24
ENDBRANCH  13  15
ENDBRANCH   6  13
TORSDOF 6
