REMARK  Name = 45783666
REMARK  5 active torsions:
REMARK  status: ('A' for Active; 'I' for Inactive)
REMARK    1  A    between atoms: N_2  and  C_9
REMARK    2  A    between atoms: N_3  and  C_19
REMARK    3  A    between atoms: N_7  and  C_25
REMARK    4  A    between atoms: C_10  and  C_18
REMARK    5  A    between atoms: C_20  and  C_21
REMARK                            x       y       z     vdW  Elec       q    Type
REMARK                         _______ _______ _______ _____ _____    ______ ____
ROOT
ATOM      1  O   UNL     1      -1.364   2.122  -1.786  0.00  0.00    -0.336 OA
ATOM      4  N   UNL     1      -0.732   1.109   0.110  0.00  0.00    -0.190 NA
ATOM      5  N   UNL     1       0.005   1.859  -1.922  0.00  0.00    -0.056 NA
ATOM     18  C   UNL     1      -1.718   1.649  -0.562  0.00  0.00    +0.245 A 
ATOM     20  C   UNL     1       0.304   1.262  -0.765  0.00  0.00    +0.204 A 
ENDROOT
BRANCH  20  21
ATOM      6  N   UNL     1       3.939   0.560  -1.118  0.00  0.00    -0.237 NA
ATOM     21  C   UNL     1       1.628   0.807  -0.451  0.00  0.00    +0.041 A 
ATOM     22  C   UNL     1       1.905   0.190   0.764  0.00  0.00    +0.017 A 
ATOM     23  C   UNL     1       2.670   0.967  -1.349  0.00  0.00    +0.124 A 
ATOM     24  C   UNL     1       3.198  -0.242   1.039  0.00  0.00    +0.047 A 
ATOM     25  C   UNL     1       4.170  -0.035   0.074  0.00  0.00    +0.139 A 
BRANCH  25   7
ATOM      7  N   UNL     1       5.460  -0.464   0.344  0.00  0.00    -0.290 N 
ATOM      8  N   UNL     1       7.628  -0.848   0.055  0.00  0.00    -0.244 NA
ATOM     26  C   UNL     1       5.886  -1.083   1.485  0.00  0.00    +0.114 A 
ATOM     27  C   UNL     1       6.541  -0.345  -0.485  0.00  0.00    +0.205 A 
ATOM     28  C   UNL     1       7.227  -1.310   1.283  0.00  0.00    +0.130 A 
ENDBRANCH  25   7
ENDBRANCH  20  21
BRANCH  18  10
ATOM      2  N   UNL     1      -3.621   0.781   0.787  0.00  0.00    -0.288 NA
ATOM     10  C   UNL     1      -3.171   1.813  -0.169  0.00  0.00    +0.146 C 
ATOM     11  C   UNL     1      -4.678   1.395   1.591  0.00  0.00    +0.085 C 
ATOM     14  C   UNL     1      -3.447   3.151   0.541  0.00  0.00    +0.030 C 
ATOM     15  C   UNL     1      -4.107   2.773   1.860  0.00  0.00    +0.017 C 
BRANCH   2   9
ATOM      3  N   UNL     1      -3.777  -3.332  -0.272  0.00  0.00    -0.305 NA
ATOM      9  C   UNL     1      -4.068  -0.449   0.138  0.00  0.00    +0.060 C 
ATOM     12  C   UNL     1      -2.959  -1.042  -0.736  0.00  0.00    +0.034 C 
ATOM     13  C   UNL     1      -4.509  -1.472   1.188  0.00  0.00    +0.034 C 
ATOM     16  C   UNL     1      -3.388  -2.387  -1.328  0.00  0.00    +0.085 C 
ATOM     17  C   UNL     1      -4.887  -2.803   0.533  0.00  0.00    +0.085 C 
ATOM     19  C   UNL     1      -4.136  -4.627  -0.850  0.00  0.00    +0.104 C 
ENDBRANCH   2   9
ENDBRANCH  18  10
TORSDOF 4
