REMARK  Name = 51136839
REMARK  7 active torsions:
REMARK  status: ('A' for Active; 'I' for Inactive)
REMARK    1  A    between atoms: S_1  and  C_31
REMARK    2  A    between atoms: S_1  and  C_36
REMARK    3  A    between atoms: N_6  and  C_16
REMARK    4  A    between atoms: C_12  and  C_17
REMARK    5  A    between atoms: C_16  and  C_18
REMARK    6  A    between atoms: C_23  and  C_27
REMARK    7  A    between atoms: C_32  and  C_35
REMARK                            x       y       z     vdW  Elec       q    Type
REMARK                         _______ _______ _______ _____ _____    ______ ____
ROOT
ATOM      2  O   UNL     1      -3.461  -1.437  -1.071  0.00  0.00    -0.336 OA
ATOM      8  N   UNL     1      -1.574  -1.650   0.117  0.00  0.00    -0.190 NA
ATOM     10  N   UNL     1      -2.408  -1.332  -1.989  0.00  0.00    -0.056 NA
ATOM     17  C   UNL     1      -2.882  -1.622   0.145  0.00  0.00    +0.245 A 
ATOM     23  C   UNL     1      -1.329  -1.468  -1.213  0.00  0.00    +0.202 A 
ENDROOT
BRANCH  23  27
ATOM      3  O   UNL     1       6.603   0.969   2.893  0.00  0.00    -0.276 OA
ATOM      7  N   UNL     1       3.411  -0.853  -0.583  0.00  0.00    -0.312 N 
ATOM      9  N   UNL     1       5.584  -0.330   1.258  0.00  0.00    -0.299 N 
ATOM     11  N   UNL     1       2.611  -1.345  -2.749  0.00  0.00    -0.240 NA
ATOM     19  C   UNL     1       4.747  -1.402  -0.832  0.00  0.00    +0.125 C 
ATOM     20  C   UNL     1       3.230   0.026   0.576  0.00  0.00    +0.125 C 
ATOM     21  C   UNL     1       5.518  -1.568   0.477  0.00  0.00    +0.126 C 
ATOM     22  C   UNL     1       4.555   0.669   0.979  0.00  0.00    +0.126 C 
ATOM     26  C   UNL     1       2.349  -1.126  -1.441  0.00  0.00    +0.122 A 
ATOM     27  C   UNL     1       0.008  -1.425  -1.734  0.00  0.00    +0.027 A 
ATOM     28  C   UNL     1       1.079  -1.155  -0.889  0.00  0.00    +0.055 A 
ATOM     32  C   UNL     1       6.546  -0.072   2.235  0.00  0.00    +0.213 C 
ATOM     33  C   UNL     1       0.237  -1.655  -3.086  0.00  0.00    +0.031 A 
ATOM     34  C   UNL     1       1.546  -1.604  -3.540  0.00  0.00    +0.113 A 
ATOM     35  C   UNL     1       7.567  -1.159   2.467  0.00  0.00    +0.109 C 
ENDBRANCH  23  27
BRANCH  17  12
ATOM      6  N   UNL     1      -4.723  -0.608   1.477  0.00  0.00    -0.287 NA
ATOM     12  C   UNL     1      -3.821  -1.767   1.324  0.00  0.00    +0.146 C 
ATOM     13  C   UNL     1      -4.761  -2.979   1.189  0.00  0.00    +0.030 C 
ATOM     14  C   UNL     1      -6.166  -2.412   1.340  0.00  0.00    +0.017 C 
ATOM     15  C   UNL     1      -5.948  -1.116   2.095  0.00  0.00    +0.085 C 
BRANCH   6  16
ATOM     16  C   UNL     1      -4.134   0.481   2.244  0.00  0.00    +0.120 C 
BRANCH  16  18
ATOM     18  C   UNL     1      -3.193   1.310   1.409  0.00  0.00    -0.033 A 
ATOM     24  C   UNL     1      -1.859   1.446   1.790  0.00  0.00    +0.007 A 
ATOM     25  C   UNL     1      -3.657   1.941   0.254  0.00  0.00    +0.007 A 
ATOM     29  C   UNL     1      -0.988   2.214   1.017  0.00  0.00    +0.027 A 
ATOM     30  C   UNL     1      -2.786   2.708  -0.519  0.00  0.00    +0.027 A 
ATOM     31  C   UNL     1      -1.451   2.844  -0.138  0.00  0.00    +0.088 A 
BRANCH  31   1
ATOM      1  S   UNL     1      -0.360   3.802  -1.107  0.00  0.00    -0.006 S 
ATOM      4  O   UNL     1      -1.133   4.773  -1.869  0.00  0.00    -0.170 OA
ATOM      5  O   UNL     1       0.723   4.256  -0.246  0.00  0.00    -0.170 OA
ATOM     36  C   UNL     1       0.320   2.648  -2.278  0.00  0.00    +0.200 C 
ENDBRANCH  31   1
ENDBRANCH  16  18
ENDBRANCH   6  16
ENDBRANCH  17  12
TORSDOF 5
