REMARK  Name = 45783455
REMARK  10 active torsions:
REMARK  status: ('A' for Active; 'I' for Inactive)
REMARK    1  A    between atoms: O_2  and  C_24
REMARK    2  A    between atoms: O_2  and  C_27
REMARK    3  A    between atoms: O_3  and  C_28
REMARK    4  A    between atoms: O_3  and  C_29
REMARK    5  A    between atoms: N_4  and  C_12
REMARK    6  A    between atoms: C_8  and  C_13
REMARK    7  A    between atoms: C_12  and  C_14
REMARK    8  A    between atoms: C_17  and  C_21
REMARK    9  A    between atoms: C_20  and  C_22
REMARK   10  A    between atoms: C_27  and  C_28
REMARK                            x       y       z     vdW  Elec       q    Type
REMARK                         _______ _______ _______ _____ _____    ______ ____
ROOT
ATOM      1  O   UNL     1      -2.607   1.981  -1.113  0.00  0.00    -0.336 OA
ATOM      5  N   UNL     1      -1.211   0.991   0.332  0.00  0.00    -0.189 NA
ATOM      6  N   UNL     1      -1.321   2.423  -1.448  0.00  0.00    -0.054 NA
ATOM     13  C   UNL     1      -2.453   1.142  -0.055  0.00  0.00    +0.245 A 
ATOM     17  C   UNL     1      -0.554   1.795  -0.552  0.00  0.00    +0.221 A 
ENDROOT
BRANCH  17  21
ATOM      7  N   UNL     1       1.396   2.779  -1.445  0.00  0.00    -0.252 NA
ATOM     21  C   UNL     1       0.871   1.952  -0.512  0.00  0.00    +0.115 A 
ATOM     23  C   UNL     1       1.622   1.280   0.438  0.00  0.00    +0.077 A 
ATOM     24  C   UNL     1       3.000   1.468   0.431  0.00  0.00    +0.124 A 
ATOM     25  C   UNL     1       2.738   2.937  -1.421  0.00  0.00    +0.115 A 
ATOM     26  C   UNL     1       3.576   2.311  -0.512  0.00  0.00    +0.065 A 
BRANCH  24   2
ATOM      2  O   UNL     1       3.781   0.830   1.345  0.00  0.00    -0.490 OA
BRANCH   2  27
ATOM     27  C   UNL     1       3.325  -0.437   1.818  0.00  0.00    +0.257 C 
BRANCH  27  28
ATOM     28  C   UNL     1       4.526  -1.300   2.155  0.00  0.00    +0.200 C 
BRANCH  28   3
ATOM      3  O   UNL     1       5.303  -1.492   0.979  0.00  0.00    -0.380 OA
ATOM     29  C   UNL     1       6.457  -2.279   1.241  0.00  0.00    +0.194 C 
ENDBRANCH  28   3
ENDBRANCH  27  28
ENDBRANCH   2  27
ENDBRANCH  24   2
ENDBRANCH  17  21
BRANCH  13   8
ATOM      4  N   UNL     1      -3.468  -0.783   1.150  0.00  0.00    -0.287 NA
ATOM      8  C   UNL     1      -3.716   0.521   0.504  0.00  0.00    +0.146 C 
ATOM      9  C   UNL     1      -4.368   1.383   1.600  0.00  0.00    +0.030 C 
ATOM     10  C   UNL     1      -4.502   0.462   2.804  0.00  0.00    +0.017 C 
ATOM     11  C   UNL     1      -4.482  -0.925   2.196  0.00  0.00    +0.085 C 
BRANCH   4  12
ATOM     12  C   UNL     1      -3.485  -1.901   0.215  0.00  0.00    +0.120 C 
BRANCH  12  14
ATOM     14  C   UNL     1      -2.188  -2.018  -0.541  0.00  0.00    -0.033 A 
ATOM     15  C   UNL     1      -2.186  -1.951  -1.935  0.00  0.00    +0.005 A 
ATOM     16  C   UNL     1      -0.991  -2.196   0.151  0.00  0.00    +0.005 A 
ATOM     18  C   UNL     1      -0.985  -2.062  -2.636  0.00  0.00    +0.003 A 
ATOM     19  C   UNL     1       0.210  -2.308  -0.550  0.00  0.00    +0.003 A 
ATOM     20  C   UNL     1       0.213  -2.241  -1.944  0.00  0.00    -0.050 A 
ATOM     22  C   UNL     1       1.496  -2.361  -2.694  0.00  0.00    +0.044 C 
ENDBRANCH  12  14
ENDBRANCH   4  12
ENDBRANCH  13   8
TORSDOF 8
