REMARK  Name = 75367000
REMARK  11 active torsions:
REMARK  status: ('A' for Active; 'I' for Inactive)
REMARK    1  A    between atoms: O_2  and  C_11
REMARK    2  A    between atoms: O_5  and  C_21
REMARK    3  A    between atoms: O_5  and  C_24
REMARK    4  A    between atoms: N_6  and  C_15
REMARK    5  A    between atoms: N_8  and  C_20
REMARK    6  A    between atoms: C_9  and  C_15
REMARK    7  A    between atoms: C_10  and  C_14
REMARK    8  A    between atoms: C_14  and  C_16
REMARK    9  A    between atoms: C_19  and  C_21
REMARK   10  A    between atoms: C_20  and  C_22
REMARK   11  A    between atoms: C_20  and  C_23
REMARK                            x       y       z     vdW  Elec       q    Type
REMARK                         _______ _______ _______ _____ _____    ______ ____
ROOT
ATOM      1  O   UNL     1       3.192  -0.280   0.684  0.00  0.00    -0.369 OA
ATOM      9  C   UNL     1       3.735   0.979   0.266  0.00  0.00    +0.164 C 
ATOM     10  C   UNL     1       3.479  -1.383  -0.179  0.00  0.00    +0.125 C 
ATOM     11  C   UNL     1       5.252   0.893   0.059  0.00  0.00    +0.145 C 
ATOM     12  C   UNL     1       4.988  -1.579  -0.320  0.00  0.00    +0.034 C 
ATOM     13  C   UNL     1       5.654  -0.296  -0.809  0.00  0.00    +0.036 C 
ENDROOT
BRANCH  11   2
ATOM      2  O   UNL     1       5.883   0.735   1.333  0.00  0.00    -0.389 OA
ATOM     30  H   UNL     1       6.844   0.730   1.187  0.00  0.00    +0.210 HD
ENDBRANCH  11   2
BRANCH  10  14
ATOM     14  C   UNL     1       2.825  -2.619   0.424  0.00  0.00    +0.090 C 
BRANCH  14  16
ATOM      3  O   UNL     1      -0.501  -3.101  -0.877  0.00  0.00    -0.356 OA
ATOM      7  N   UNL     1       0.879  -3.248  -0.944  0.00  0.00    -0.083 NA
ATOM     16  C   UNL     1       1.344  -2.653   0.158  0.00  0.00    +0.086 A 
ATOM     17  C   UNL     1       0.314  -2.117   0.950  0.00  0.00    +0.074 A 
ATOM     19  C   UNL     1      -0.826  -2.426   0.255  0.00  0.00    +0.175 A 
BRANCH  19  21
ATOM     21  C   UNL     1      -2.255  -2.182   0.485  0.00  0.00    +0.306 C 
BRANCH  21   5
ATOM      5  O   UNL     1      -2.724  -1.139  -0.374  0.00  0.00    -0.484 OA
BRANCH   5  24
ATOM     24  C   UNL     1      -4.029  -0.763  -0.218  0.00  0.00    +0.121 A 
ATOM     25  C   UNL     1      -4.825  -1.389   0.741  0.00  0.00    +0.045 A 
ATOM     26  C   UNL     1      -4.564   0.246  -1.018  0.00  0.00    +0.045 A 
ATOM     27  C   UNL     1      -6.157  -1.005   0.900  0.00  0.00    +0.004 A 
ATOM     28  C   UNL     1      -5.895   0.630  -0.859  0.00  0.00    +0.004 A 
ATOM     29  C   UNL     1      -6.692   0.005   0.100  0.00  0.00    +0.000 A 
ENDBRANCH   5  24
ENDBRANCH  21   5
ENDBRANCH  19  21
ENDBRANCH  14  16
ENDBRANCH  10  14
BRANCH   9  15
ATOM     15  C   UNL     1       2.996   1.518  -0.957  0.00  0.00    +0.140 C 
BRANCH  15   6
ATOM      4  O   UNL     1       1.509   3.735   0.138  0.00  0.00    -0.253 OA
ATOM      6  N   UNL     1       1.585   1.577  -0.720  0.00  0.00    -0.297 N 
ATOM      8  N   UNL     1      -0.435   2.482  -0.058  0.00  0.00    -0.297 N 
ATOM     18  C   UNL     1       0.936   2.694  -0.183  0.00  0.00    +0.300 C 
ATOM     31  H   UNL     1       1.028   0.756  -0.937  0.00  0.00    +0.150 HD
ATOM     32  H   UNL     1      -0.824   1.617  -0.419  0.00  0.00    +0.150 HD
BRANCH   8  20
ATOM     20  C   UNL     1      -1.336   3.480   0.470  0.00  0.00    +0.068 C 
ATOM     22  C   UNL     1      -2.495   2.813   1.198  0.00  0.00    +0.027 C 
ATOM     23  C   UNL     1      -1.835   4.392  -0.643  0.00  0.00    +0.027 C 
ENDBRANCH   8  20
ENDBRANCH  15   6
ENDBRANCH   9  15
TORSDOF 9
