REMARK  Name = 51136658
REMARK  8 active torsions:
REMARK  status: ('A' for Active; 'I' for Inactive)
REMARK    1  A    between atoms: O_2  and  C_18
REMARK    2  A    between atoms: O_5  and  C_26
REMARK    3  A    between atoms: O_5  and  C_30
REMARK    4  A    between atoms: C_8  and  C_12
REMARK    5  A    between atoms: C_9  and  C_14
REMARK    6  A    between atoms: C_12  and  C_15
REMARK    7  A    between atoms: C_14  and  C_18
REMARK    8  A    between atoms: C_16  and  C_22
REMARK                            x       y       z     vdW  Elec       q    Type
REMARK                         _______ _______ _______ _____ _____    ______ ____
ROOT
ATOM      1  O   UNL     1      -0.851   3.554  -1.640  0.00  0.00    -0.267 OA
ATOM      6  N   UNL     1      -1.782   2.041  -0.118  0.00  0.00    -0.295 N 
ATOM      8  C   UNL     1      -2.057  -0.289   0.701  0.00  0.00    +0.016 C 
ATOM      9  C   UNL     1      -3.465  -0.309   0.053  0.00  0.00    +0.006 C 
ATOM     10  C   UNL     1      -3.555   0.665  -1.133  0.00  0.00    +0.023 C 
ATOM     11  C   UNL     1      -1.660   1.157   1.050  0.00  0.00    +0.112 C 
ATOM     13  C   UNL     1      -3.108   2.068  -0.732  0.00  0.00    +0.108 C 
ATOM     16  C   UNL     1      -0.755   2.818  -0.659  0.00  0.00    +0.282 C 
ENDROOT
BRANCH  16  22
ATOM      4  O   UNL     1       0.649   3.140   1.287  0.00  0.00    -0.458 OA
ATOM     22  C   UNL     1       0.562   2.765  -0.017  0.00  0.00    +0.189 A 
ATOM     27  C   UNL     1       1.796   2.390  -0.494  0.00  0.00    +0.054 A 
ATOM     28  C   UNL     1       2.699   2.544   0.585  0.00  0.00    +0.042 A 
ATOM     29  C   UNL     1       1.952   3.003   1.645  0.00  0.00    +0.196 A 
ENDBRANCH  16  22
BRANCH   8  12
ATOM     12  C   UNL     1      -0.968  -0.948  -0.156  0.00  0.00    +0.061 C 
BRANCH  12  15
ATOM      7  N   UNL     1      -0.037  -1.634   1.950  0.00  0.00    -0.287 NA
ATOM     15  C   UNL     1       0.203  -1.339   0.714  0.00  0.00    +0.044 C 
ATOM     17  C   UNL     1       1.562  -1.359   0.117  0.00  0.00    -0.001 A 
ATOM     19  C   UNL     1       2.643  -1.341   1.008  0.00  0.00    -0.033 A 
ATOM     20  C   UNL     1       2.362  -1.288   2.481  0.00  0.00    +0.059 C 
ATOM     21  C   UNL     1       1.091  -2.072   2.779  0.00  0.00    +0.146 C 
ATOM     23  C   UNL     1       1.781  -1.381  -1.261  0.00  0.00    +0.013 A 
ATOM     24  C   UNL     1       3.948  -1.318   0.509  0.00  0.00    +0.050 A 
ATOM     25  C   UNL     1       3.088  -1.374  -1.750  0.00  0.00    +0.046 A 
ATOM     26  C   UNL     1       4.169  -1.340  -0.868  0.00  0.00    +0.120 A 
BRANCH  26   5
ATOM      5  O   UNL     1       5.441  -1.325  -1.352  0.00  0.00    -0.495 OA
ATOM     30  C   UNL     1       5.595  -1.346  -2.771  0.00  0.00    +0.277 C 
ENDBRANCH  26   5
ENDBRANCH  12  15
ENDBRANCH   8  12
BRANCH   9  14
ATOM     14  C   UNL     1      -3.914  -1.710  -0.363  0.00  0.00    +0.124 C 
BRANCH  14  18
ATOM      3  O   UNL     1      -6.213  -0.904  -0.262  0.00  0.00    -0.251 OA
ATOM     18  C   UNL     1      -5.411  -1.803  -0.468  0.00  0.00    +0.305 C 
BRANCH  18   2
ATOM      2  O   UNL     1      -5.766  -3.062  -0.835  0.00  0.00    -0.481 OA
ATOM     31  H   UNL     1      -6.739  -3.159  -0.913  0.00  0.00    +0.295 HD
ENDBRANCH  18   2
ENDBRANCH  14  18
ENDBRANCH   9  14
TORSDOF 7
