REMARK  Name = 56774574
REMARK  13 active torsions:
REMARK  status: ('A' for Active; 'I' for Inactive)
REMARK    1  A    between atoms: O_2  and  C_9
REMARK    2  A    between atoms: O_4  and  C_35
REMARK    3  A    between atoms: O_4  and  C_37
REMARK    4  A    between atoms: N_6  and  C_11
REMARK    5  A    between atoms: N_7  and  C_25
REMARK    6  A    between atoms: C_8  and  C_9
REMARK    7  A    between atoms: C_9  and  C_13
REMARK    8  A    between atoms: C_11  and  C_15
REMARK    9  A    between atoms: C_16  and  C_19
REMARK   10  A    between atoms: C_16  and  C_22
REMARK   11  A    between atoms: C_16  and  C_23
REMARK   12  A    between atoms: C_16  and  C_24
REMARK   13  A    between atoms: C_30  and  C_36
REMARK                            x       y       z     vdW  Elec       q    Type
REMARK                         _______ _______ _______ _____ _____    ______ ____
ROOT
ATOM     13  C   UNL     1       0.710  -1.234  -0.771  0.00  0.00    -0.017 A 
ATOM     17  C   UNL     1       0.312   0.093  -0.936  0.00  0.00    +0.008 A 
ATOM     18  C   UNL     1      -0.237  -2.214  -0.476  0.00  0.00    +0.008 A 
ATOM     20  C   UNL     1      -1.033   0.439  -0.806  0.00  0.00    +0.023 A 
ATOM     21  C   UNL     1      -1.582  -1.868  -0.347  0.00  0.00    +0.023 A 
ATOM     25  C   UNL     1      -1.980  -0.541  -0.512  0.00  0.00    +0.034 A 
ENDROOT
BRANCH  25   7
ATOM      5  O   UNL     1      -4.369  -2.245   0.103  0.00  0.00    -0.270 OA
ATOM      7  N   UNL     1      -3.325  -0.195  -0.383  0.00  0.00    -0.282 N 
ATOM     36  C   UNL     1      -4.409  -1.035  -0.093  0.00  0.00    +0.248 C 
ATOM     39  H   UNL     1      -3.502   0.802  -0.475  0.00  0.00    +0.155 HD
BRANCH  36  30
ATOM     19  C   UNL     1      -8.207   0.907   0.196  0.00  0.00    -0.042 A 
ATOM     28  C   UNL     1      -7.974  -0.276   0.897  0.00  0.00    +0.005 A 
ATOM     29  C   UNL     1      -7.202   1.457  -0.599  0.00  0.00    +0.005 A 
ATOM     30  C   UNL     1      -5.729  -0.360   0.008  0.00  0.00    +0.037 A 
ATOM     33  C   UNL     1      -6.735  -0.909   0.803  0.00  0.00    +0.013 A 
ATOM     34  C   UNL     1      -5.962   0.824  -0.692  0.00  0.00    +0.013 A 
BRANCH  19  16
ATOM     16  C   UNL     1      -9.533   1.584   0.297  0.00  0.00    -0.013 C 
ATOM     22  C   UNL     1      -9.852   1.984   1.771  0.00  0.00    +0.015 C 
ATOM     23  C   UNL     1      -9.678   2.902  -0.533  0.00  0.00    +0.015 C 
ATOM     24  C   UNL     1     -10.683   0.652  -0.197  0.00  0.00    +0.015 C 
ENDBRANCH  19  16
ENDBRANCH  36  30
ENDBRANCH  25   7
BRANCH  13   9
ATOM      9  C   UNL     1       2.164  -1.608  -0.911  0.00  0.00    +0.167 C 
BRANCH   9   8
ATOM      1  O   UNL     1       2.853  -2.506   1.796  0.00  0.00    -0.369 OA
ATOM      3  O   UNL     1       6.162  -2.720   0.367  0.00  0.00    -0.273 OA
ATOM      6  N   UNL     1       4.458  -1.206  -0.100  0.00  0.00    -0.287 N 
ATOM      8  C   UNL     1       3.046  -0.849   0.084  0.00  0.00    +0.135 C 
ATOM     10  C   UNL     1       2.620  -1.130   1.520  0.00  0.00    +0.185 C 
ATOM     12  C   UNL     1       5.042  -2.262   0.597  0.00  0.00    +0.242 C 
ATOM     14  C   UNL     1       4.232  -2.800   1.771  0.00  0.00    +0.255 C 
BRANCH   6  11
ATOM     11  C   UNL     1       5.187  -0.539  -1.171  0.00  0.00    +0.143 C 
BRANCH  11  15
ATOM     15  C   UNL     1       6.035   0.588  -0.656  0.00  0.00    -0.030 A 
ATOM     26  C   UNL     1       5.441   1.794  -0.282  0.00  0.00    +0.009 A 
ATOM     27  C   UNL     1       7.417   0.429  -0.551  0.00  0.00    +0.009 A 
ATOM     31  C   UNL     1       6.229   2.840   0.197  0.00  0.00    +0.046 A 
ATOM     32  C   UNL     1       8.205   1.476  -0.073  0.00  0.00    +0.046 A 
ATOM     35  C   UNL     1       7.611   2.681   0.301  0.00  0.00    +0.120 A 
BRANCH  35   4
ATOM      4  O   UNL     1       8.380   3.702   0.768  0.00  0.00    -0.495 OA
ATOM     37  C   UNL     1       9.786   3.472   0.849  0.00  0.00    +0.277 C 
ENDBRANCH  35   4
ENDBRANCH  11  15
ENDBRANCH   6  11
ENDBRANCH   9   8
BRANCH   9   2
ATOM      2  O   UNL     1       2.601  -1.327  -2.237  0.00  0.00    -0.385 OA
ATOM     38  H   UNL     1       2.350  -0.418  -2.471  0.00  0.00    +0.210 HD
ENDBRANCH   9   2
ENDBRANCH  13   9
TORSDOF 9
