REMARK  Name = 45784274
REMARK  5 active torsions:
REMARK  status: ('A' for Active; 'I' for Inactive)
REMARK    1  A    between atoms: N_7  and  C_15
REMARK    2  A    between atoms: C_10  and  C_14
REMARK    3  A    between atoms: C_15  and  C_16
REMARK    4  A    between atoms: C_23  and  C_28
REMARK    5  A    between atoms: C_27  and  C_29
REMARK                            x       y       z     vdW  Elec       q    Type
REMARK                         _______ _______ _______ _____ _____    ______ ____
ROOT
ATOM      7  N   UNL     1      -1.646  -0.166  -0.268  0.00  0.00    -0.297 NA
ATOM     10  C   UNL     1       0.535  -0.721   0.394  0.00  0.00    +0.070 C 
ATOM     11  C   UNL     1      -0.220  -0.097   1.581  0.00  0.00    +0.028 C 
ATOM     12  C   UNL     1      -0.310  -0.362  -0.836  0.00  0.00    +0.096 C 
ATOM     13  C   UNL     1      -1.425   0.599   0.960  0.00  0.00    +0.085 C 
ENDROOT
BRANCH  10  14
ATOM      8  N   UNL     1       2.997  -1.201   0.310  0.00  0.00    -0.342 N 
ATOM      9  N   UNL     1       2.421   0.935   0.096  0.00  0.00    -0.232 NA
ATOM     14  C   UNL     1       1.978  -0.291   0.263  0.00  0.00    +0.113 A 
ATOM     17  C   UNL     1       4.176  -0.516   0.164  0.00  0.00    +0.067 A 
ATOM     18  C   UNL     1       3.790   0.815   0.033  0.00  0.00    +0.089 A 
ATOM     19  C   UNL     1       5.507  -0.934   0.137  0.00  0.00    +0.040 A 
ATOM     22  C   UNL     1       4.777   1.801  -0.137  0.00  0.00    +0.030 A 
ATOM     23  C   UNL     1       6.476   0.060  -0.033  0.00  0.00    +0.057 A 
ATOM     24  C   UNL     1       6.119   1.404  -0.167  0.00  0.00    +0.014 A 
ATOM     30  H   UNL     1       2.902  -2.200   0.431  0.00  0.00    +0.167 HD
BRANCH  23  28
ATOM      1  F   UNL     1       8.349  -0.940   1.069  0.00  0.00    -0.166 F 
ATOM      2  F   UNL     1       8.742   0.750  -0.241  0.00  0.00    -0.166 F 
ATOM      3  F   UNL     1       8.226  -1.188  -1.082  0.00  0.00    -0.166 F 
ATOM     28  C   UNL     1       7.919  -0.324  -0.070  0.00  0.00    +0.417 C 
ENDBRANCH  23  28
ENDBRANCH  10  14
BRANCH   7  15
ATOM     15  C   UNL     1      -2.547   0.512  -1.188  0.00  0.00    +0.119 C 
BRANCH  15  16
ATOM     16  C   UNL     1      -3.989   0.325  -0.800  0.00  0.00    -0.033 A 
ATOM     20  C   UNL     1      -4.630  -0.887  -1.057  0.00  0.00    +0.005 A 
ATOM     21  C   UNL     1      -4.686   1.364  -0.182  0.00  0.00    +0.005 A 
ATOM     25  C   UNL     1      -5.966  -1.061  -0.697  0.00  0.00    +0.012 A 
ATOM     26  C   UNL     1      -6.022   1.191   0.178  0.00  0.00    +0.012 A 
ATOM     27  C   UNL     1      -6.662  -0.022  -0.079  0.00  0.00    +0.055 A 
BRANCH  27  29
ATOM      4  F   UNL     1      -8.562  -1.448  -0.010  0.00  0.00    -0.166 F 
ATOM      5  F   UNL     1      -8.317  -0.063   1.648  0.00  0.00    -0.166 F 
ATOM      6  F   UNL     1      -8.941   0.674  -0.294  0.00  0.00    -0.166 F 
ATOM     29  C   UNL     1      -8.090  -0.208   0.309  0.00  0.00    +0.417 C 
ENDBRANCH  27  29
ENDBRANCH  15  16
ENDBRANCH   7  15
TORSDOF 5
