REMARK  Name = 75536675
REMARK  9 active torsions:
REMARK  status: ('A' for Active; 'I' for Inactive)
REMARK    1  A    between atoms: S_1  and  N_7
REMARK    2  A    between atoms: S_1  and  C_16
REMARK    3  A    between atoms: O_3  and  C_9
REMARK    4  A    between atoms: N_6  and  C_8
REMARK    5  A    between atoms: N_6  and  C_13
REMARK    6  A    between atoms: N_7  and  C_12
REMARK    7  A    between atoms: C_10  and  C_12
REMARK    8  A    between atoms: C_13  and  C_14
REMARK    9  A    between atoms: C_13  and  C_15
REMARK                            x       y       z     vdW  Elec       q    Type
REMARK                         _______ _______ _______ _____ _____    ______ ____
ROOT
ATOM      2  O   UNL     1      -1.433   0.747  -1.352  0.00  0.00    -0.371 OA
ATOM      8  C   UNL     1      -3.315   0.144  -0.034  0.00  0.00    +0.111 C 
ATOM      9  C   UNL     1      -2.053  -0.067   0.780  0.00  0.00    +0.164 C 
ATOM     10  C   UNL     1      -1.071   0.828   0.036  0.00  0.00    +0.164 C 
ATOM     11  C   UNL     1      -2.757   0.192  -1.447  0.00  0.00    +0.181 C 
ENDROOT
BRANCH   9   3
ATOM      3  O   UNL     1      -2.203   0.325   2.131  0.00  0.00    -0.388 OA
ATOM     23  H   UNL     1      -2.488   1.254   2.151  0.00  0.00    +0.210 HD
ENDBRANCH   9   3
BRANCH   8   6
ATOM      6  N   UNL     1      -4.308  -0.903   0.147  0.00  0.00    -0.307 NA
ATOM     22  H   UNL     1      -4.391  -1.140   1.135  0.00  0.00    +0.123 HD
BRANCH   6  13
ATOM     13  C   UNL     1      -5.605  -0.492  -0.377  0.00  0.00    +0.048 C 
ATOM     14  C   UNL     1      -6.450  -1.729  -0.667  0.00  0.00    +0.023 C 
ATOM     15  C   UNL     1      -6.308   0.431   0.615  0.00  0.00    +0.023 C 
ENDBRANCH   6  13
ENDBRANCH   8   6
BRANCH  10  12
ATOM     12  C   UNL     1       0.378   0.408   0.213  0.00  0.00    +0.140 C 
BRANCH  12   7
ATOM      7  N   UNL     1       1.255   1.326  -0.539  0.00  0.00    -0.187 NA
ATOM     24  H   UNL     1       1.072   1.392  -1.548  0.00  0.00    +0.148 HD
BRANCH   7   1
ATOM      1  S   UNL     1       2.829   1.651   0.021  0.00  0.00    +0.058 S 
ATOM      4  O   UNL     1       2.765   2.107   1.396  0.00  0.00    -0.153 OA
ATOM      5  O   UNL     1       3.531   2.436  -0.976  0.00  0.00    -0.153 OA
BRANCH   1  16
ATOM     16  C   UNL     1       3.555   0.039   0.015  0.00  0.00    +0.105 A 
ATOM     17  C   UNL     1       4.210  -0.426  -1.125  0.00  0.00    +0.028 A 
ATOM     18  C   UNL     1       3.469  -0.769   1.149  0.00  0.00    +0.028 A 
ATOM     19  C   UNL     1       4.780  -1.699  -1.131  0.00  0.00    +0.002 A 
ATOM     20  C   UNL     1       4.038  -2.042   1.142  0.00  0.00    +0.002 A 
ATOM     21  C   UNL     1       4.694  -2.507   0.003  0.00  0.00    +0.000 A 
ENDBRANCH   1  16
ENDBRANCH   7   1
ENDBRANCH  12   7
ENDBRANCH  10  12
TORSDOF 7
