REMARK  Name = 11884065
REMARK  8 active torsions:
REMARK  status: ('A' for Active; 'I' for Inactive)
REMARK    1  A    between atoms: O_6  and  C_16
REMARK    2  A    between atoms: O_6  and  C_20
REMARK    3  A    between atoms: O_9  and  C_33
REMARK    4  A    between atoms: O_9  and  C_34
REMARK    5  A    between atoms: N_10  and  C_15
REMARK    6  A    between atoms: N_11  and  C_21
REMARK    7  A    between atoms: N_12  and  C_22
REMARK    8  A    between atoms: C_25  and  C_32
REMARK                            x       y       z     vdW  Elec       q    Type
REMARK                         _______ _______ _______ _____ _____    ______ ____
ROOT
ATOM      4  O   UNL     1       1.031   1.771   1.419  0.00  0.00    -0.368 OA
ATOM      5  O   UNL     1       0.432   3.723  -0.869  0.00  0.00    -0.368 OA
ATOM     13  C   UNL     1      -0.141   2.442  -0.530  0.00  0.00    +0.173 C 
ATOM     14  C   UNL     1       0.990   1.581  -0.005  0.00  0.00    +0.192 C 
ATOM     15  C   UNL     1      -1.067   2.586   0.655  0.00  0.00    +0.131 C 
ATOM     16  C   UNL     1       2.198   2.178  -0.685  0.00  0.00    +0.235 C 
ATOM     17  C   UNL     1      -0.100   2.557   1.825  0.00  0.00    +0.185 C 
ATOM     18  C   UNL     1       1.856   3.651  -0.708  0.00  0.00    +0.207 C 
ENDROOT
BRANCH  15  10
ATOM      7  O   UNL     1      -3.732   2.547  -0.397  0.00  0.00    -0.252 OA
ATOM     10  N   UNL     1      -2.005   1.491   0.721  0.00  0.00    -0.292 N 
ATOM     11  N   UNL     1      -3.972   0.349   0.395  0.00  0.00    -0.269 N 
ATOM     19  C   UNL     1      -3.295   1.553   0.179  0.00  0.00    +0.304 C 
ATOM     35  H   UNL     1      -1.694   0.612   1.123  0.00  0.00    +0.151 HD
ATOM     36  H   UNL     1      -3.464  -0.377   0.893  0.00  0.00    +0.156 HD
BRANCH  11  21
ATOM     21  C   UNL     1      -5.288   0.012   0.004  0.00  0.00    +0.035 A 
ATOM     23  C   UNL     1      -5.806  -1.248   0.306  0.00  0.00    +0.035 A 
ATOM     24  C   UNL     1      -6.070   0.940  -0.685  0.00  0.00    +0.023 A 
ATOM     25  C   UNL     1      -7.104  -1.579  -0.080  0.00  0.00    +0.057 A 
ATOM     28  C   UNL     1      -7.369   0.608  -1.072  0.00  0.00    +0.002 A 
ATOM     29  C   UNL     1      -7.886  -0.652  -0.769  0.00  0.00    +0.012 A 
BRANCH  25  32
ATOM      1  F   UNL     1      -6.942  -3.956  -0.300  0.00  0.00    -0.166 F 
ATOM      2  F   UNL     1      -8.938  -3.112  -0.196  0.00  0.00    -0.166 F 
ATOM      3  F   UNL     1      -7.691  -3.172   1.585  0.00  0.00    -0.166 F 
ATOM     32  C   UNL     1      -7.657  -2.926   0.243  0.00  0.00    +0.417 C 
ENDBRANCH  25  32
ENDBRANCH  11  21
ENDBRANCH  15  10
BRANCH  16   6
ATOM      6  O   UNL     1       3.408   1.925  -0.007  0.00  0.00    -0.442 OA
BRANCH   6  20
ATOM      8  O   UNL     1       3.748   0.069  -1.299  0.00  0.00    -0.226 OA
ATOM     12  N   UNL     1       5.275   0.712   0.355  0.00  0.00    -0.251 N 
ATOM     20  C   UNL     1       4.125   0.815  -0.403  0.00  0.00    +0.405 C 
ATOM     37  H   UNL     1       5.416   1.434   1.058  0.00  0.00    +0.158 HD
BRANCH  12  22
ATOM     22  C   UNL     1       6.284  -0.274   0.277  0.00  0.00    +0.037 A 
ATOM     26  C   UNL     1       7.384  -0.216   1.132  0.00  0.00    +0.027 A 
ATOM     27  C   UNL     1       6.179  -1.307  -0.656  0.00  0.00    +0.027 A 
ATOM     30  C   UNL     1       8.380  -1.190   1.055  0.00  0.00    +0.047 A 
ATOM     31  C   UNL     1       7.175  -2.281  -0.733  0.00  0.00    +0.047 A 
ATOM     33  C   UNL     1       8.275  -2.222   0.123  0.00  0.00    +0.120 A 
BRANCH  33   9
ATOM      9  O   UNL     1       9.247  -3.172   0.048  0.00  0.00    -0.495 OA
ATOM     34  C   UNL     1       9.077  -4.199  -0.928  0.00  0.00    +0.277 C 
ENDBRANCH  33   9
ENDBRANCH  12  22
ENDBRANCH   6  20
ENDBRANCH  16   6
TORSDOF 7
