REMARK  Name = 11884600
REMARK  6 active torsions:
REMARK  status: ('A' for Active; 'I' for Inactive)
REMARK    1  A    between atoms: O_3  and  C_11
REMARK    2  A    between atoms: O_3  and  C_15
REMARK    3  A    between atoms: N_6  and  C_10
REMARK    4  A    between atoms: N_6  and  C_14
REMARK    5  A    between atoms: N_7  and  C_18
REMARK    6  A    between atoms: C_14  and  C_16
REMARK                            x       y       z     vdW  Elec       q    Type
REMARK                         _______ _______ _______ _____ _____    ______ ____
ROOT
ATOM      1  O   UNL     1       1.259   1.046  -1.072  0.00  0.00    -0.369 OA
ATOM      2  O   UNL     1       2.536   3.133   0.758  0.00  0.00    -0.369 OA
ATOM      8  C   UNL     1       2.850   1.740   0.539  0.00  0.00    +0.170 C 
ATOM      9  C   UNL     1       1.531   1.021   0.340  0.00  0.00    +0.191 C 
ATOM     10  C   UNL     1       3.565   1.574  -0.785  0.00  0.00    +0.111 C 
ATOM     11  C   UNL     1       0.567   1.891   1.109  0.00  0.00    +0.235 C 
ATOM     12  C   UNL     1       2.402   1.569  -1.767  0.00  0.00    +0.181 C 
ATOM     13  C   UNL     1       1.111   3.278   0.850  0.00  0.00    +0.207 C 
ENDROOT
BRANCH  10   6
ATOM      6  N   UNL     1       4.279   0.300  -0.853  0.00  0.00    -0.302 NA
ATOM     30  H   UNL     1       4.632   0.164  -1.800  0.00  0.00    +0.123 HD
BRANCH   6  14
ATOM     14  C   UNL     1       5.390   0.280   0.086  0.00  0.00    +0.156 C 
BRANCH  14  16
ATOM      4  O   UNL     1       6.643  -1.334  -1.177  0.00  0.00    -0.467 OA
ATOM     16  C   UNL     1       6.127  -1.030   0.025  0.00  0.00    +0.119 A 
ATOM     17  C   UNL     1       6.374  -1.975   0.960  0.00  0.00    +0.046 A 
ATOM     19  C   UNL     1       7.117  -2.973   0.286  0.00  0.00    +0.041 A 
ATOM     20  C   UNL     1       7.255  -2.537  -1.011  0.00  0.00    +0.195 A 
ENDBRANCH  14  16
ENDBRANCH   6  14
ENDBRANCH  10   6
BRANCH  11   3
ATOM      3  O   UNL     1      -0.771   1.758   0.685  0.00  0.00    -0.442 OA
BRANCH   3  15
ATOM      5  O   UNL     1      -0.758  -0.440   1.317  0.00  0.00    -0.226 OA
ATOM      7  N   UNL     1      -2.656   0.558   0.377  0.00  0.00    -0.251 N 
ATOM     15  C   UNL     1      -1.354   0.517   0.838  0.00  0.00    +0.405 C 
ATOM     31  H   UNL     1      -2.943   1.462   0.021  0.00  0.00    +0.158 HD
BRANCH   7  18
ATOM     18  C   UNL     1      -3.603  -0.491   0.350  0.00  0.00    +0.044 A 
ATOM     21  C   UNL     1      -4.893  -0.293  -0.150  0.00  0.00    +0.003 A 
ATOM     22  C   UNL     1      -3.194  -1.724   0.843  0.00  0.00    +0.024 A 
ATOM     23  C   UNL     1      -5.798  -1.380  -0.151  0.00  0.00    -0.016 A 
ATOM     24  C   UNL     1      -5.313   0.951  -0.649  0.00  0.00    +0.010 A 
ATOM     25  C   UNL     1      -4.084  -2.793   0.842  0.00  0.00    +0.002 A 
ATOM     26  C   UNL     1      -5.378  -2.624   0.348  0.00  0.00    +0.008 A 
ATOM     27  C   UNL     1      -7.097  -1.192  -0.651  0.00  0.00    +0.008 A 
ATOM     28  C   UNL     1      -6.607   1.120  -1.143  0.00  0.00    +0.001 A 
ATOM     29  C   UNL     1      -7.497   0.050  -1.144  0.00  0.00    +0.001 A 
ENDBRANCH   7  18
ENDBRANCH   3  15
ENDBRANCH  11   3
TORSDOF 6
