REMARK  Name = 71693787
REMARK  6 active torsions:
REMARK  status: ('A' for Active; 'I' for Inactive)
REMARK    1  A    between atoms: O_1  and  C_10
REMARK    2  A    between atoms: O_2  and  C_11
REMARK    3  A    between atoms: N_4  and  C_8
REMARK    4  A    between atoms: N_5  and  C_18
REMARK    5  A    between atoms: C_6  and  C_7
REMARK    6  A    between atoms: C_18  and  C_19
REMARK                            x       y       z     vdW  Elec       q    Type
REMARK                         _______ _______ _______ _____ _____    ______ ____
ROOT
ATOM      6  C   UNL     1       1.084  -0.565  -0.529  0.00  0.00    +0.017 C 
ATOM      8  C   UNL     1      -0.256  -0.813   0.205  0.00  0.00    +0.109 C 
ATOM      9  C   UNL     1       1.798  -1.919  -0.523  0.00  0.00    +0.039 C 
ATOM     10  C   UNL     1      -0.378  -2.338   0.356  0.00  0.00    +0.163 C 
ATOM     11  C   UNL     1       0.643  -2.902  -0.629  0.00  0.00    +0.145 C 
ENDROOT
BRANCH   8   4
ATOM      3  O   UNL     1      -2.768   0.128   1.275  0.00  0.00    -0.253 OA
ATOM      4  N   UNL     1      -1.369  -0.271  -0.535  0.00  0.00    -0.294 N 
ATOM      5  N   UNL     1      -3.457   0.638  -0.881  0.00  0.00    -0.300 N 
ATOM     17  C   UNL     1      -2.552   0.162   0.064  0.00  0.00    +0.300 C 
ATOM     20  H   UNL     1      -1.327  -0.279  -1.550  0.00  0.00    +0.151 HD
ATOM     23  H   UNL     1      -3.186   0.639  -1.859  0.00  0.00    +0.150 HD
BRANCH   5  18
ATOM     18  C   UNL     1      -4.761   1.148  -0.528  0.00  0.00    +0.102 C 
ATOM     19  C   UNL     1      -4.681   2.575  -0.026  0.00  0.00    +0.024 C 
ENDBRANCH   5  18
ENDBRANCH   8   4
BRANCH   6   7
ATOM      7  C   UNL     1       1.918   0.533   0.114  0.00  0.00    -0.006 C 
ATOM     12  C   UNL     1       1.142   1.857   0.144  0.00  0.00    +0.004 C 
ATOM     13  C   UNL     1       3.255   0.700  -0.622  0.00  0.00    +0.004 C 
ATOM     14  C   UNL     1       1.979   2.988   0.736  0.00  0.00    +0.000 C 
ATOM     15  C   UNL     1       4.088   1.833  -0.028  0.00  0.00    +0.000 C 
ATOM     16  C   UNL     1       3.310   3.145   0.008  0.00  0.00    +0.000 C 
ENDBRANCH   6   7
BRANCH  10   1
ATOM      1  O   UNL     1      -0.023  -2.677   1.696  0.00  0.00    -0.387 OA
ATOM     21  H   UNL     1      -0.705  -2.303   2.280  0.00  0.00    +0.210 HD
ENDBRANCH  10   1
BRANCH  11   2
ATOM      2  O   UNL     1       1.028  -4.221  -0.298  0.00  0.00    -0.389 OA
ATOM     22  H   UNL     1       1.742  -4.477  -0.906  0.00  0.00    +0.210 HD
ENDBRANCH  11   2
TORSDOF 5
