REMARK  Name = 75537067
REMARK  3 active torsions:
REMARK  status: ('A' for Active; 'I' for Inactive)
REMARK    1  A    between atoms: N_3  and  C_9
REMARK    2  A    between atoms: N_5  and  C_18
REMARK    3  A    between atoms: C_18  and  C_19
REMARK                            x       y       z     vdW  Elec       q    Type
REMARK                         _______ _______ _______ _____ _____    ______ ____
ROOT
ATOM      2  O   UNL     1       1.985  -2.709  -0.704  0.00  0.00    -0.252 OA
ATOM      3  N   UNL     1      -2.519  -0.521   0.122  0.00  0.00    -0.296 NA
ATOM      4  N   UNL     1       0.027  -1.714   0.131  0.00  0.00    -0.278 N 
ATOM      5  N   UNL     1       2.002  -1.038   0.961  0.00  0.00    -0.279 N 
ATOM      7  C   UNL     1      -0.321  -0.795   1.195  0.00  0.00    +0.109 C 
ATOM      8  C   UNL     1      -1.374   0.202   0.713  0.00  0.00    +0.108 C 
ATOM     10  C   UNL     1      -2.088  -1.342  -1.027  0.00  0.00    +0.104 C 
ATOM     11  C   UNL     1       1.017  -0.175   1.591  0.00  0.00    +0.133 C 
ATOM     12  C   UNL     1      -1.027  -2.366  -0.617  0.00  0.00    +0.125 C 
ATOM     15  C   UNL     1       1.410  -1.923   0.038  0.00  0.00    +0.305 C 
ENDROOT
BRANCH   3   9
ATOM      1  O   UNL     1      -6.246   1.410   0.011  0.00  0.00    -0.380 OA
ATOM      9  C   UNL     1      -3.559   0.421  -0.287  0.00  0.00    +0.061 C 
ATOM     13  C   UNL     1      -3.978   1.321   0.880  0.00  0.00    +0.047 C 
ATOM     14  C   UNL     1      -4.776  -0.332  -0.832  0.00  0.00    +0.047 C 
ATOM     16  C   UNL     1      -5.153   2.203   0.473  0.00  0.00    +0.161 C 
ATOM     17  C   UNL     1      -5.906   0.642  -1.144  0.00  0.00    +0.161 C 
ENDBRANCH   3   9
BRANCH   5  18
ATOM     18  C   UNL     1       3.421  -0.864   1.175  0.00  0.00    +0.146 C 
BRANCH  18  19
ATOM      6  N   UNL     1       4.823   2.495   0.149  0.00  0.00    -0.263 NA
ATOM     19  C   UNL     1       3.989   0.232   0.321  0.00  0.00    -0.012 A 
ATOM     20  C   UNL     1       4.208   0.040  -1.039  0.00  0.00    +0.008 A 
ATOM     21  C   UNL     1       4.310   1.467   0.862  0.00  0.00    +0.115 A 
ATOM     22  C   UNL     1       4.734   1.075  -1.805  0.00  0.00    +0.020 A 
ATOM     23  C   UNL     1       5.022   2.272  -1.169  0.00  0.00    +0.111 A 
ENDBRANCH  18  19
ENDBRANCH   5  18
TORSDOF 3
