REMARK  Name = 11911999
REMARK  4 active torsions:
REMARK  status: ('A' for Active; 'I' for Inactive)
REMARK    1  A    between atoms: N_6  and  C_12
REMARK    2  A    between atoms: N_7  and  C_13
REMARK    3  A    between atoms: C_17  and  C_18
REMARK    4  A    between atoms: C_19  and  C_24
REMARK                            x       y       z     vdW  Elec       q    Type
REMARK                         _______ _______ _______ _____ _____    ______ ____
ROOT
ATOM      2  O   UNL     1      -0.970   3.373   0.225  0.00  0.00    -0.370 OA
ATOM      3  O   UNL     1      -0.493   0.693   1.749  0.00  0.00    -0.370 OA
ATOM     10  C   UNL     1      -0.131   1.157   0.438  0.00  0.00    +0.171 C 
ATOM     11  C   UNL     1      -1.281   2.002  -0.074  0.00  0.00    +0.171 C 
ATOM     12  C   UNL     1       1.027   2.122   0.525  0.00  0.00    +0.130 C 
ATOM     13  C   UNL     1      -2.467   1.543   0.743  0.00  0.00    +0.130 C 
ATOM     14  C   UNL     1       0.338   3.444   0.811  0.00  0.00    +0.185 C 
ATOM     15  C   UNL     1      -1.821   1.142   2.057  0.00  0.00    +0.185 C 
ENDROOT
BRANCH  12   6
ATOM      6  N   UNL     1       1.717   2.183  -0.745  0.00  0.00    -0.306 N 
ATOM      8  N   UNL     1       3.045   0.315  -0.237  0.00  0.00    -0.211 NA
ATOM      9  N   UNL     1       3.276   1.463  -2.344  0.00  0.00    -0.223 NA
ATOM     16  C   UNL     1       2.709   1.294  -1.120  0.00  0.00    +0.216 A 
ATOM     19  C   UNL     1       4.015  -0.534  -0.636  0.00  0.00    +0.111 A 
ATOM     21  C   UNL     1       4.239   0.579  -2.678  0.00  0.00    +0.116 A 
ATOM     22  C   UNL     1       4.653  -0.450  -1.857  0.00  0.00    +0.051 A 
ATOM     29  H   UNL     1       1.439   2.875  -1.431  0.00  0.00    +0.149 HD
BRANCH  19  24
ATOM      5  O   UNL     1       3.644  -1.521   1.477  0.00  0.00    -0.461 OA
ATOM     24  C   UNL     1       4.349  -1.557   0.318  0.00  0.00    +0.153 A 
ATOM     26  C   UNL     1       5.247  -2.596   0.327  0.00  0.00    +0.051 A 
ATOM     27  C   UNL     1       5.085  -3.243   1.575  0.00  0.00    +0.042 A 
ATOM     28  C   UNL     1       4.098  -2.551   2.238  0.00  0.00    +0.196 A 
ENDBRANCH  19  24
ENDBRANCH  12   6
BRANCH  13   7
ATOM      4  O   UNL     1      -5.188   0.808   1.079  0.00  0.00    -0.270 OA
ATOM      7  N   UNL     1      -3.127   0.420   0.121  0.00  0.00    -0.303 N 
ATOM     17  C   UNL     1      -4.470   0.132   0.343  0.00  0.00    +0.251 C 
ATOM     30  H   UNL     1      -2.556  -0.192  -0.451  0.00  0.00    +0.149 HD
BRANCH  17  18
ATOM      1  S   UNL     1      -6.612  -1.466  -0.108  0.00  0.00    -0.092 S 
ATOM     18  C   UNL     1      -4.985  -1.064  -0.339  0.00  0.00    +0.074 A 
ATOM     20  C   UNL     1      -4.304  -1.906  -1.147  0.00  0.00    +0.021 A 
ATOM     23  C   UNL     1      -5.154  -2.949  -1.616  0.00  0.00    +0.008 A 
ATOM     25  C   UNL     1      -6.436  -2.831  -1.127  0.00  0.00    +0.046 A 
ENDBRANCH  17  18
ENDBRANCH  13   7
TORSDOF 4
