REMARK  Name = 11941510
REMARK  5 active torsions:
REMARK  status: ('A' for Active; 'I' for Inactive)
REMARK    1  A    between atoms: O_3  and  C_26
REMARK    2  A    between atoms: O_3  and  C_27
REMARK    3  A    between atoms: N_5  and  C_8
REMARK    4  A    between atoms: C_17  and  C_19
REMARK    5  A    between atoms: C_20  and  C_21
REMARK                            x       y       z     vdW  Elec       q    Type
REMARK                         _______ _______ _______ _____ _____    ______ ____
ROOT
ATOM      1  O   UNL     1      -5.724  -1.905  -0.282  0.00  0.00    -0.273 OA
ATOM      2  O   UNL     1      -2.518   2.150  -1.455  0.00  0.00    -0.270 OA
ATOM      4  N   UNL     1      -4.136   1.041  -0.251  0.00  0.00    -0.284 N 
ATOM      6  N   UNL     1      -3.477  -1.831  -0.588  0.00  0.00    -0.283 N 
ATOM      7  C   UNL     1      -4.572  -0.006   0.658  0.00  0.00    +0.179 C 
ATOM      8  C   UNL     1      -5.937   0.479   1.182  0.00  0.00    +0.082 C 
ATOM      9  C   UNL     1      -5.902   1.988   0.952  0.00  0.00    +0.040 C 
ATOM     10  C   UNL     1      -5.129   2.101  -0.349  0.00  0.00    +0.110 C 
ATOM     11  C   UNL     1      -4.662  -1.293  -0.140  0.00  0.00    +0.239 C 
ATOM     12  C   UNL     1      -2.872   1.178  -0.786  0.00  0.00    +0.249 C 
ATOM     13  C   UNL     1      -1.881   0.097  -0.551  0.00  0.00    +0.059 A 
ATOM     14  C   UNL     1      -2.183  -1.273  -0.553  0.00  0.00    +0.046 A 
ATOM     15  C   UNL     1      -0.536   0.507  -0.487  0.00  0.00    +0.022 A 
ATOM     16  C   UNL     1      -1.126  -2.201  -0.559  0.00  0.00    +0.024 A 
ATOM     17  C   UNL     1       0.497  -0.428  -0.446  0.00  0.00    -0.024 A 
ATOM     18  C   UNL     1       0.203  -1.783  -0.495  0.00  0.00    +0.010 A 
ATOM     30  H   UNL     1      -3.533  -2.796  -0.908  0.00  0.00    +0.155 HD
ENDROOT
BRANCH   8   5
ATOM      5  N   UNL     1      -6.149   0.136   2.561  0.00  0.00    -0.325 NA
ATOM     28  H   UNL     1      -7.010   0.564   2.899  0.00  0.00    +0.119 HD
ATOM     29  H   UNL     1      -5.402   0.517   3.141  0.00  0.00    +0.119 HD
ENDBRANCH   8   5
BRANCH  17  19
ATOM     19  C   UNL     1       1.881   0.015  -0.379  0.00  0.00    +0.008 C 
ATOM     20  C   UNL     1       2.926  -0.747   0.020  0.00  0.00    +0.008 C 
BRANCH  20  21
ATOM     21  C   UNL     1       4.331  -0.304   0.070  0.00  0.00    -0.025 A 
ATOM     22  C   UNL     1       4.723   0.793  -0.678  0.00  0.00    +0.011 A 
ATOM     23  C   UNL     1       5.231  -0.996   0.864  0.00  0.00    +0.011 A 
ATOM     24  C   UNL     1       6.053   1.211  -0.632  0.00  0.00    +0.046 A 
ATOM     25  C   UNL     1       6.561  -0.577   0.911  0.00  0.00    +0.046 A 
ATOM     26  C   UNL     1       6.972   0.526   0.163  0.00  0.00    +0.120 A 
BRANCH  26   3
ATOM      3  O   UNL     1       8.270   0.934   0.208  0.00  0.00    -0.495 OA
ATOM     27  C   UNL     1       9.156   0.189   1.042  0.00  0.00    +0.277 C 
ENDBRANCH  26   3
ENDBRANCH  20  21
ENDBRANCH  17  19
TORSDOF 4
