REMARK  Name = 26742630
REMARK  10 active torsions:
REMARK  status: ('A' for Active; 'I' for Inactive)
REMARK    1  A    between atoms: S_1  and  N_7
REMARK    2  A    between atoms: S_1  and  C_19
REMARK    3  A    between atoms: N_8  and  C_22
REMARK    4  A    between atoms: C_10  and  C_15
REMARK    5  A    between atoms: C_11  and  C_16
REMARK    6  A    between atoms: C_15  and  C_17
REMARK    7  A    between atoms: C_16  and  C_18
REMARK    8  A    between atoms: C_20  and  C_23
REMARK    9  A    between atoms: C_21  and  C_24
REMARK   10  A    between atoms: C_22  and  C_25
REMARK                            x       y       z     vdW  Elec       q    Type
REMARK                         _______ _______ _______ _____ _____    ______ ____
ROOT
ATOM      7  N   UNL     1       2.286   0.101   0.680  0.00  0.00    -0.176 NA
ATOM     10  C   UNL     1      -0.180   0.395   0.610  0.00  0.00    +0.008 C 
ATOM     11  C   UNL     1       0.029   1.853   0.135  0.00  0.00    +0.003 C 
ATOM     12  C   UNL     1       1.381   2.024  -0.574  0.00  0.00    +0.021 C 
ATOM     13  C   UNL     1       1.021  -0.056   1.457  0.00  0.00    +0.113 C 
ATOM     14  C   UNL     1       2.532   1.519   0.291  0.00  0.00    +0.110 C 
ENDROOT
BRANCH   7   1
ATOM      1  S   UNL     1       3.644  -0.731   1.314  0.00  0.00    +0.066 S 
ATOM      3  O   UNL     1       3.303  -2.126   1.488  0.00  0.00    -0.153 OA
ATOM      4  O   UNL     1       4.201   0.043   2.402  0.00  0.00    -0.153 OA
BRANCH   1  19
ATOM      6  O   UNL     1       6.510  -0.142  -1.341  0.00  0.00    -0.358 OA
ATOM      9  N   UNL     1       5.614  -0.824  -2.154  0.00  0.00    -0.081 NA
ATOM     19  C   UNL     1       4.747  -0.611  -0.059  0.00  0.00    +0.170 A 
ATOM     20  C   UNL     1       5.982  -0.021  -0.096  0.00  0.00    +0.161 A 
ATOM     21  C   UNL     1       4.569  -1.094  -1.367  0.00  0.00    +0.107 A 
ATOM     23  C   UNL     1       6.808   0.683   0.895  0.00  0.00    +0.091 C 
ATOM     24  C   UNL     1       3.413  -1.823  -1.917  0.00  0.00    +0.071 C 
ENDBRANCH   1  19
ENDBRANCH   7   1
BRANCH  10  15
ATOM     15  C   UNL     1      -0.443  -0.602  -0.526  0.00  0.00    +0.002 C 
ATOM     17  C   UNL     1      -0.659  -2.000   0.013  0.00  0.00    +0.004 C 
ENDBRANCH  10  15
BRANCH  11  16
ATOM     16  C   UNL     1      -1.110   2.367  -0.746  0.00  0.00    +0.099 C 
BRANCH  16  18
ATOM      5  O   UNL     1      -2.590   2.372   1.169  0.00  0.00    -0.276 OA
ATOM      8  N   UNL     1      -3.482   2.120  -0.962  0.00  0.00    -0.311 N 
ATOM     18  C   UNL     1      -2.452   2.292  -0.049  0.00  0.00    +0.214 C 
ATOM     31  H   UNL     1      -3.267   2.055  -1.953  0.00  0.00    +0.149 HD
BRANCH   8  22
ATOM     22  C   UNL     1      -4.870   2.013  -0.576  0.00  0.00    +0.139 C 
BRANCH  22  25
ATOM      2  F   UNL     1      -6.379  -3.329   0.389  0.00  0.00    -0.205 F 
ATOM     25  C   UNL     1      -5.272   0.586  -0.318  0.00  0.00    -0.030 A 
ATOM     26  C   UNL     1      -5.774  -0.197  -1.359  0.00  0.00    +0.008 A 
ATOM     27  C   UNL     1      -5.145   0.045   0.962  0.00  0.00    +0.008 A 
ATOM     28  C   UNL     1      -6.147  -1.519  -1.120  0.00  0.00    +0.038 A 
ATOM     29  C   UNL     1      -5.518  -1.278   1.200  0.00  0.00    +0.038 A 
ATOM     30  C   UNL     1      -6.019  -2.060   0.160  0.00  0.00    +0.123 A 
ENDBRANCH  22  25
ENDBRANCH   8  22
ENDBRANCH  16  18
ENDBRANCH  11  16
TORSDOF 7
