REMARK  Name = 25314512
REMARK  6 active torsions:
REMARK  status: ('A' for Active; 'I' for Inactive)
REMARK    1  A    between atoms: O_4  and  C_10
REMARK    2  A    between atoms: N_6  and  C_9
REMARK    3  A    between atoms: N_7  and  C_11
REMARK    4  A    between atoms: N_8  and  C_27
REMARK    5  A    between atoms: C_16  and  C_20
REMARK    6  A    between atoms: C_20  and  C_21
REMARK                            x       y       z     vdW  Elec       q    Type
REMARK                         _______ _______ _______ _____ _____    ______ ____
ROOT
ATOM      2  O   UNL     1       0.579  -3.558  -1.437  0.00  0.00    -0.342 OA
ATOM      3  O   UNL     1       0.264  -5.208   0.162  0.00  0.00    -0.347 OA
ATOM      9  C   UNL     1      -0.510  -2.966   0.632  0.00  0.00    +0.143 C 
ATOM     10  C   UNL     1       0.852  -2.606   1.268  0.00  0.00    +0.159 C 
ATOM     11  C   UNL     1       2.035  -2.693   0.279  0.00  0.00    +0.136 C 
ATOM     12  C   UNL     1      -0.333  -4.051  -0.446  0.00  0.00    +0.270 C 
ATOM     13  C   UNL     1       1.843  -3.776  -0.803  0.00  0.00    +0.170 C 
ATOM     17  C   UNL     1       1.639  -5.174  -0.253  0.00  0.00    +0.196 C 
ENDROOT
BRANCH  11   7
ATOM      5  O   UNL     1       3.693  -0.574   1.261  0.00  0.00    -0.252 OA
ATOM      7  N   UNL     1       2.257  -1.408  -0.348  0.00  0.00    -0.291 N 
ATOM      8  N   UNL     1       3.107   0.703  -0.620  0.00  0.00    -0.269 N 
ATOM     22  C   UNL     1       3.086  -0.427   0.203  0.00  0.00    +0.304 C 
ATOM     34  H   UNL     1       1.727  -1.182  -1.183  0.00  0.00    +0.151 HD
ATOM     36  H   UNL     1       2.545   0.663  -1.466  0.00  0.00    +0.156 HD
BRANCH   8  27
ATOM      1  F   UNL     1       5.902   5.426   0.162  0.00  0.00    -0.205 F 
ATOM     27  C   UNL     1       3.820   1.908  -0.420  0.00  0.00    +0.035 A 
ATOM     29  C   UNL     1       3.721   2.940  -1.354  0.00  0.00    +0.026 A 
ATOM     30  C   UNL     1       4.623   2.065   0.710  0.00  0.00    +0.026 A 
ATOM     31  C   UNL     1       4.425   4.128  -1.157  0.00  0.00    +0.040 A 
ATOM     32  C   UNL     1       5.327   3.253   0.906  0.00  0.00    +0.040 A 
ATOM     33  C   UNL     1       5.228   4.285  -0.027  0.00  0.00    +0.124 A 
ENDBRANCH   8  27
ENDBRANCH  11   7
BRANCH   9   6
ATOM      6  N   UNL     1      -1.120  -1.774   0.039  0.00  0.00    -0.293 NA
ATOM     14  C   UNL     1      -1.750  -0.948   1.078  0.00  0.00    +0.085 C 
ATOM     15  C   UNL     1      -2.090  -2.154  -0.997  0.00  0.00    +0.085 C 
ATOM     16  C   UNL     1      -3.349   0.009  -0.632  0.00  0.00    -0.004 C 
ATOM     18  C   UNL     1      -2.346   0.329   0.482  0.00  0.00    +0.019 C 
ATOM     19  C   UNL     1      -2.697  -0.918  -1.664  0.00  0.00    +0.019 C 
BRANCH  16  20
ATOM     20  C   UNL     1      -3.864   1.286  -1.290  0.00  0.00    +0.038 C 
BRANCH  20  21
ATOM     21  C   UNL     1      -4.923   1.952  -0.454  0.00  0.00    -0.047 A 
ATOM     23  C   UNL     1      -6.266   1.623  -0.638  0.00  0.00    +0.003 A 
ATOM     24  C   UNL     1      -4.561   2.899   0.504  0.00  0.00    +0.003 A 
ATOM     25  C   UNL     1      -7.248   2.241   0.137  0.00  0.00    +0.000 A 
ATOM     26  C   UNL     1      -5.543   3.517   1.278  0.00  0.00    +0.000 A 
ATOM     28  C   UNL     1      -6.886   3.188   1.095  0.00  0.00    +0.000 A 
ENDBRANCH  20  21
ENDBRANCH  16  20
ENDBRANCH   9   6
BRANCH  10   4
ATOM      4  O   UNL     1       1.085  -3.520   2.347  0.00  0.00    -0.388 OA
ATOM     35  H   UNL     1       1.912  -3.253   2.785  0.00  0.00    +0.210 HD
ENDBRANCH  10   4
TORSDOF 6
