REMARK  Name = 11866353
REMARK  10 active torsions:
REMARK  status: ('A' for Active; 'I' for Inactive)
REMARK    1  A    between atoms: O_1  and  C_11
REMARK    2  A    between atoms: O_2  and  C_14
REMARK    3  A    between atoms: O_3  and  C_16
REMARK    4  A    between atoms: N_7  and  C_12
REMARK    5  A    between atoms: N_8  and  C_19
REMARK    6  A    between atoms: N_9  and  C_22
REMARK    7  A    between atoms: C_11  and  C_17
REMARK    8  A    between atoms: C_19  and  C_20
REMARK    9  A    between atoms: C_19  and  C_21
REMARK   10  A    between atoms: C_27  and  C_28
REMARK                            x       y       z     vdW  Elec       q    Type
REMARK                         _______ _______ _______ _____ _____    ______ ____
ROOT
ATOM     11  C   UNL     1      -2.543  -0.902   0.938  0.00  0.00    +0.146 C 
ATOM     12  C   UNL     1      -0.290  -1.559  -0.036  0.00  0.00    +0.109 C 
ATOM     13  C   UNL     1      -1.217  -0.405   0.361  0.00  0.00    +0.069 C 
ATOM     14  C   UNL     1      -0.985  -2.551  -0.978  0.00  0.00    +0.163 C 
ATOM     15  C   UNL     1      -3.235  -1.873  -0.018  0.00  0.00    +0.078 C 
ATOM     16  C   UNL     1      -2.324  -3.035  -0.415  0.00  0.00    +0.148 C 
ENDROOT
BRANCH  12   7
ATOM      5  O   UNL     1       2.110  -0.766   1.311  0.00  0.00    -0.252 OA
ATOM      7  N   UNL     1       0.911  -1.033  -0.647  0.00  0.00    -0.294 N 
ATOM      9  N   UNL     1       3.042  -0.197  -0.767  0.00  0.00    -0.269 N 
ATOM     18  C   UNL     1       2.042  -0.670   0.088  0.00  0.00    +0.304 C 
ATOM     29  H   UNL     1       0.905  -0.851  -1.647  0.00  0.00    +0.151 HD
ATOM     34  H   UNL     1       2.823  -0.183  -1.760  0.00  0.00    +0.156 HD
BRANCH   9  22
ATOM     22  C   UNL     1       4.333   0.267  -0.421  0.00  0.00    +0.035 A 
ATOM     23  C   UNL     1       5.189   0.699  -1.420  0.00  0.00    +0.023 A 
ATOM     24  C   UNL     1       4.714   0.279   0.911  0.00  0.00    +0.023 A 
ATOM     25  C   UNL     1       6.462   1.157  -1.079  0.00  0.00    +0.005 A 
ATOM     26  C   UNL     1       5.987   0.737   1.252  0.00  0.00    +0.005 A 
ATOM     27  C   UNL     1       6.860   1.176   0.258  0.00  0.00    -0.050 A 
ATOM     28  C   UNL     1       8.221   1.665   0.623  0.00  0.00    +0.044 C 
ENDBRANCH   9  22
ENDBRANCH  12   7
BRANCH  11  17
ATOM      4  O   UNL     1      -3.877   0.455   2.383  0.00  0.00    -0.273 OA
ATOM      8  N   UNL     1      -3.744   1.006   0.125  0.00  0.00    -0.302 N 
ATOM     17  C   UNL     1      -3.451   0.252   1.249  0.00  0.00    +0.245 C 
ATOM     33  H   UNL     1      -3.371   0.734  -0.779  0.00  0.00    +0.150 HD
BRANCH   8  19
ATOM     19  C   UNL     1      -4.614   2.159   0.152  0.00  0.00    +0.156 C 
ATOM     20  C   UNL     1      -6.057   1.762  -0.116  0.00  0.00    +0.038 C 
BRANCH  19  21
ATOM      6  O   UNL     1      -3.606   2.824  -1.956  0.00  0.00    -0.274 OA
ATOM     10  N   UNL     1      -4.349   4.463  -0.529  0.00  0.00    -0.328 N 
ATOM     21  C   UNL     1      -4.120   3.152  -0.889  0.00  0.00    +0.231 C 
ATOM     35  H   UNL     1      -4.078   5.226  -1.140  0.00  0.00    +0.145 HD
ATOM     36  H   UNL     1      -4.793   4.719   0.347  0.00  0.00    +0.145 HD
ENDBRANCH  19  21
ENDBRANCH   8  19
ENDBRANCH  11  17
BRANCH  11   1
ATOM      1  O   UNL     1      -2.331  -1.551   2.187  0.00  0.00    -0.379 OA
ATOM     30  H   UNL     1      -3.173  -1.941   2.478  0.00  0.00    +0.211 HD
ENDBRANCH  11   1
BRANCH  14   2
ATOM      2  O   UNL     1      -0.148  -3.698  -1.150  0.00  0.00    -0.387 OA
ATOM     31  H   UNL     1      -0.520  -4.229  -1.874  0.00  0.00    +0.210 HD
ENDBRANCH  14   2
BRANCH  16   3
ATOM      3  O   UNL     1      -2.980  -3.813  -1.416  0.00  0.00    -0.389 OA
ATOM     32  H   UNL     1      -2.469  -4.631  -1.538  0.00  0.00    +0.210 HD
ENDBRANCH  16   3
TORSDOF 8
