REMARK  Name = 45361570
REMARK  10 active torsions:
REMARK  status: ('A' for Active; 'I' for Inactive)
REMARK    1  A    between atoms: O_1  and  C_11
REMARK    2  A    between atoms: N_4  and  C_15
REMARK    3  A    between atoms: N_5  and  C_25
REMARK    4  A    between atoms: C_8  and  C_18
REMARK    5  A    between atoms: C_10  and  C_20
REMARK    6  A    between atoms: C_14  and  C_19
REMARK    7  A    between atoms: C_19  and  C_21
REMARK    8  A    between atoms: C_19  and  C_22
REMARK    9  A    between atoms: C_23  and  C_24
REMARK   10  A    between atoms: C_25  and  C_28
REMARK                            x       y       z     vdW  Elec       q    Type
REMARK                         _______ _______ _______ _____ _____    ______ ____
ROOT
ATOM      8  C   UNL     1      -0.014   0.469   1.175  0.00  0.00    -0.027 C 
ATOM      9  C   UNL     1      -0.352  -0.453  -0.043  0.00  0.00    +0.028 C 
ATOM     10  C   UNL     1      -1.879  -0.820  -0.060  0.00  0.00    +0.012 C 
ATOM     11  C   UNL     1       0.627  -1.659  -0.126  0.00  0.00    +0.122 C 
ATOM     12  C   UNL     1       1.469   0.903   1.099  0.00  0.00    +0.007 C 
ATOM     13  C   UNL     1      -0.883   1.746   1.098  0.00  0.00    +0.009 C 
ATOM     14  C   UNL     1       2.111  -1.224  -0.098  0.00  0.00    +0.029 C 
ATOM     15  C   UNL     1      -2.744   0.472  -0.061  0.00  0.00    +0.076 C 
ATOM     16  C   UNL     1       2.432  -0.276   1.057  0.00  0.00    +0.007 C 
ATOM     17  C   UNL     1      -2.375   1.451   1.053  0.00  0.00    +0.023 C 
ATOM     18  C   UNL     1      -0.257  -0.232   2.536  0.00  0.00    +0.011 C 
ATOM     20  C   UNL     1      -2.287  -1.703  -1.251  0.00  0.00    +0.010 C 
ENDROOT
BRANCH  15   4
ATOM      3  O   UNL     1      -4.903   1.972  -1.214  0.00  0.00    -0.270 OA
ATOM      4  N   UNL     1      -4.156   0.171   0.040  0.00  0.00    -0.308 N 
ATOM     23  C   UNL     1      -5.126   0.961  -0.554  0.00  0.00    +0.244 C 
ATOM     35  H   UNL     1      -4.421  -0.585   0.663  0.00  0.00    +0.149 HD
BRANCH  23  24
ATOM      6  N   UNL     1      -9.175  -0.272   0.085  0.00  0.00    -0.263 NA
ATOM     24  C   UNL     1      -6.531   0.533  -0.334  0.00  0.00    +0.040 A 
ATOM     26  C   UNL     1      -7.559   1.468  -0.367  0.00  0.00    +0.033 A 
ATOM     27  C   UNL     1      -6.824  -0.805  -0.092  0.00  0.00    +0.033 A 
ATOM     29  C   UNL     1      -8.852   1.019  -0.153  0.00  0.00    +0.111 A 
ATOM     30  C   UNL     1      -8.150  -1.153   0.110  0.00  0.00    +0.111 A 
ENDBRANCH  23  24
ENDBRANCH  15   4
BRANCH  11   1
ATOM      1  O   UNL     1       0.428  -2.351  -1.360  0.00  0.00    -0.391 OA
ATOM     36  H   UNL     1       0.597  -1.728  -2.087  0.00  0.00    +0.210 HD
ENDBRANCH  11   1
BRANCH  14  19
ATOM     19  C   UNL     1       3.057  -2.431  -0.048  0.00  0.00    +0.077 C 
ATOM     21  C   UNL     1       2.775  -3.268   1.195  0.00  0.00    +0.017 C 
BRANCH  19  22
ATOM      2  O   UNL     1       5.313  -2.221   0.807  0.00  0.00    -0.276 OA
ATOM      5  N   UNL     1       4.793  -1.207  -1.214  0.00  0.00    -0.309 N 
ATOM     22  C   UNL     1       4.506  -1.957  -0.082  0.00  0.00    +0.217 C 
ATOM     37  H   UNL     1       4.085  -1.078  -1.929  0.00  0.00    +0.149 HD
BRANCH   5  25
ATOM     25  C   UNL     1       6.100  -0.647  -1.469  0.00  0.00    +0.159 C 
BRANCH  25  28
ATOM      7  N   UNL     1       7.010   0.782   0.272  0.00  0.00    -0.258 NA
ATOM     28  C   UNL     1       6.260   0.712  -0.850  0.00  0.00    +0.058 A 
ATOM     31  C   UNL     1       5.646   1.804  -1.443  0.00  0.00    +0.025 A 
ATOM     32  C   UNL     1       5.813   3.048  -0.845  0.00  0.00    +0.003 A 
ATOM     33  C   UNL     1       7.150   2.008   0.825  0.00  0.00    +0.111 A 
ATOM     34  C   UNL     1       6.577   3.161   0.311  0.00  0.00    +0.020 A 
ENDBRANCH  25  28
ENDBRANCH   5  25
ENDBRANCH  19  22
ENDBRANCH  14  19
TORSDOF 7
