REMARK  Name = 26743666
REMARK  4 active torsions:
REMARK  status: ('A' for Active; 'I' for Inactive)
REMARK    1  A    between atoms: O_1  and  C_13
REMARK    2  A    between atoms: N_3  and  C_7
REMARK    3  A    between atoms: C_8  and  C_17
REMARK    4  A    between atoms: C_18  and  C_19
REMARK                            x       y       z     vdW  Elec       q    Type
REMARK                         _______ _______ _______ _____ _____    ______ ____
ROOT
ATOM      3  N   UNL     1       2.224  -0.406   0.337  0.00  0.00    -0.286 NA
ATOM      8  C   UNL     1       1.568  -1.253  -0.679  0.00  0.00    +0.149 C 
ATOM      9  C   UNL     1       3.366  -1.168   0.837  0.00  0.00    +0.116 C 
ATOM     12  C   UNL     1       1.895  -2.698  -0.258  0.00  0.00    +0.061 C 
ATOM     13  C   UNL     1       2.776  -2.559   0.977  0.00  0.00    +0.130 C 
ENDROOT
BRANCH   3   7
ATOM      7  C   UNL     1       2.619   0.905  -0.174  0.00  0.00    +0.058 C 
ATOM     10  C   UNL     1       1.385   1.659  -0.683  0.00  0.00    +0.019 C 
ATOM     11  C   UNL     1       3.336   1.698   0.924  0.00  0.00    +0.019 C 
ATOM     14  C   UNL     1       1.748   3.066  -1.156  0.00  0.00    +0.002 C 
ATOM     15  C   UNL     1       3.697   3.105   0.450  0.00  0.00    +0.002 C 
ATOM     16  C   UNL     1       2.474   3.855  -0.069  0.00  0.00    +0.000 C 
ENDBRANCH   3   7
BRANCH   8  17
ATOM      2  O   UNL     1      -0.499  -1.249  -1.983  0.00  0.00    -0.336 OA
ATOM      4  N   UNL     1      -0.752  -0.557   0.132  0.00  0.00    -0.189 NA
ATOM      5  N   UNL     1      -1.857  -0.940  -1.834  0.00  0.00    -0.054 NA
ATOM     17  C   UNL     1       0.079  -0.996  -0.780  0.00  0.00    +0.245 A 
ATOM     18  C   UNL     1      -1.927  -0.539  -0.561  0.00  0.00    +0.220 A 
BRANCH  18  19
ATOM      6  N   UNL     1      -4.245  -0.147  -0.749  0.00  0.00    -0.252 NA
ATOM     19  C   UNL     1      -3.155  -0.117   0.049  0.00  0.00    +0.111 A 
ATOM     20  C   UNL     1      -3.174   0.288   1.374  0.00  0.00    +0.031 A 
ATOM     21  C   UNL     1      -4.390   0.688   1.915  0.00  0.00    +0.004 A 
ATOM     22  C   UNL     1      -5.410   0.249  -0.189  0.00  0.00    +0.111 A 
ATOM     23  C   UNL     1      -5.535   0.671   1.125  0.00  0.00    +0.020 A 
ENDBRANCH  18  19
ENDBRANCH   8  17
BRANCH  13   1
ATOM      1  O   UNL     1       3.779  -3.555   0.993  0.00  0.00    -0.390 OA
ATOM     24  H   UNL     1       3.332  -4.419   1.007  0.00  0.00    +0.210 HD
ENDBRANCH  13   1
TORSDOF 4
