REMARK  Name = 11912159
REMARK  3 active torsions:
REMARK  status: ('A' for Active; 'I' for Inactive)
REMARK    1  A    between atoms: C_16  and  C_19
REMARK    2  A    between atoms: C_17  and  C_20
REMARK    3  A    between atoms: C_26  and  C_29
REMARK                            x       y       z     vdW  Elec       q    Type
REMARK                         _______ _______ _______ _____ _____    ______ ____
ROOT
ATOM      1  O   UNL     1      -1.424   1.724  -1.606  0.00  0.00    -0.267 OA
ATOM      2  O   UNL     1       2.113  -1.044  -2.142  0.00  0.00    -0.267 OA
ATOM      4  N   UNL     1       3.180   0.249  -0.541  0.00  0.00    -0.294 N 
ATOM      5  N   UNL     1       0.463   1.823  -0.238  0.00  0.00    -0.311 N 
ATOM      7  C   UNL     1       2.740   2.634  -1.089  0.00  0.00    +0.027 C 
ATOM      8  C   UNL     1       2.508   1.850   1.233  0.00  0.00    +0.054 C 
ATOM      9  C   UNL     1       2.992   3.012   0.366  0.00  0.00    +0.018 C 
ATOM     10  C   UNL     1       3.507   1.349  -1.450  0.00  0.00    +0.113 C 
ATOM     11  C   UNL     1       1.228   2.485  -1.305  0.00  0.00    +0.130 C 
ATOM     12  C   UNL     1       3.311   0.578   0.889  0.00  0.00    +0.117 C 
ATOM     13  C   UNL     1       1.029   1.588   1.019  0.00  0.00    +0.027 A 
ATOM     14  C   UNL     1       0.281   1.088   2.015  0.00  0.00    +0.022 A 
ATOM     15  C   UNL     1      -0.886   1.526  -0.515  0.00  0.00    +0.259 A 
ATOM     16  C   UNL     1       2.701  -0.968  -1.063  0.00  0.00    +0.282 C 
ATOM     17  C   UNL     1      -1.686   0.936   0.613  0.00  0.00    +0.047 A 
ATOM     18  C   UNL     1      -1.101   0.758   1.806  0.00  0.00    +0.015 A 
ENDROOT
BRANCH  17  20
ATOM     20  C   UNL     1      -3.056   0.580   0.426  0.00  0.00    -0.011 A 
ATOM     22  C   UNL     1      -3.392  -0.706   0.001  0.00  0.00    +0.027 A 
ATOM     23  C   UNL     1      -4.059   1.519   0.665  0.00  0.00    +0.009 A 
ATOM     26  C   UNL     1      -4.730  -1.052  -0.183  0.00  0.00    +0.052 A 
ATOM     27  C   UNL     1      -5.398   1.173   0.481  0.00  0.00    +0.002 A 
ATOM     28  C   UNL     1      -5.733  -0.113   0.057  0.00  0.00    +0.019 A 
BRANCH  26  29
ATOM      6  N   UNL     1      -5.355  -3.440  -0.971  0.00  0.00    -0.191 NA
ATOM     29  C   UNL     1      -5.075  -2.369  -0.618  0.00  0.00    +0.099 C 
ENDBRANCH  26  29
ENDBRANCH  17  20
BRANCH  16  19
ATOM      3  O   UNL     1       3.985  -2.195   0.557  0.00  0.00    -0.458 OA
ATOM     19  C   UNL     1       2.900  -2.162  -0.253  0.00  0.00    +0.189 A 
ATOM     21  C   UNL     1       2.166  -3.312  -0.147  0.00  0.00    +0.054 A 
ATOM     24  C   UNL     1       2.846  -4.118   0.798  0.00  0.00    +0.042 A 
ATOM     25  C   UNL     1       3.945  -3.393   1.196  0.00  0.00    +0.196 A 
ENDBRANCH  16  19
TORSDOF 3
