REMARK  Name = 40780112
REMARK  9 active torsions:
REMARK  status: ('A' for Active; 'I' for Inactive)
REMARK    1  A    between atoms: O_1  and  C_16
REMARK    2  A    between atoms: O_1  and  C_21
REMARK    3  A    between atoms: O_3  and  C_22
REMARK    4  A    between atoms: O_3  and  C_30
REMARK    5  A    between atoms: N_5  and  C_19
REMARK    6  A    between atoms: N_7  and  C_26
REMARK    7  A    between atoms: C_9  and  C_15
REMARK    8  A    between atoms: C_10  and  C_16
REMARK    9  A    between atoms: C_18  and  C_20
REMARK                            x       y       z     vdW  Elec       q    Type
REMARK                         _______ _______ _______ _____ _____    ______ ____
ROOT
ATOM      4  N   UNL     1      -0.497   3.948   0.674  0.00  0.00    -0.296 NA
ATOM      8  C   UNL     1      -1.632   2.961  -1.453  0.00  0.00    +0.002 C 
ATOM      9  C   UNL     1      -2.442   2.586  -0.181  0.00  0.00    +0.055 C 
ATOM     10  C   UNL     1       0.507   3.223  -0.148  0.00  0.00    +0.095 C 
ATOM     11  C   UNL     1      -0.181   2.458  -1.300  0.00  0.00    +0.026 C 
ATOM     12  C   UNL     1      -1.575   4.502  -1.506  0.00  0.00    +0.019 C 
ATOM     13  C   UNL     1      -1.603   3.031   1.051  0.00  0.00    +0.094 C 
ATOM     14  C   UNL     1      -1.063   5.037  -0.157  0.00  0.00    +0.085 C 
ENDROOT
BRANCH   9  15
ATOM      5  N   UNL     1      -4.097   0.835   0.616  0.00  0.00    -0.270 N 
ATOM      6  N   UNL     1      -4.370  -0.481   0.621  0.00  0.00    -0.171 NA
ATOM     15  C   UNL     1      -2.950   1.157  -0.047  0.00  0.00    +0.044 A 
ATOM     17  C   UNL     1      -2.436  -0.030  -0.508  0.00  0.00    +0.053 A 
ATOM     18  C   UNL     1      -3.352  -1.004  -0.068  0.00  0.00    +0.096 A 
ATOM     19  C   UNL     1      -4.998   1.745   1.284  0.00  0.00    +0.172 C 
BRANCH  18  20
ATOM     20  C   UNL     1      -3.272  -2.425  -0.290  0.00  0.00    +0.044 A 
ATOM     22  C   UNL     1      -2.184  -3.162   0.176  0.00  0.00    +0.129 A 
ATOM     23  C   UNL     1      -4.302  -3.062  -0.982  0.00  0.00    +0.014 A 
ATOM     24  C   UNL     1      -2.126  -4.537  -0.050  0.00  0.00    +0.046 A 
ATOM     25  C   UNL     1      -4.244  -4.437  -1.208  0.00  0.00    +0.001 A 
ATOM     27  C   UNL     1      -3.156  -5.175  -0.742  0.00  0.00    +0.004 A 
BRANCH  22   3
ATOM      3  O   UNL     1      -1.163  -2.566   0.856  0.00  0.00    -0.494 OA
ATOM     30  C   UNL     1      -1.289  -2.489   2.273  0.00  0.00    +0.277 C 
ENDBRANCH  22   3
ENDBRANCH  18  20
ENDBRANCH   9  15
BRANCH  10  16
ATOM     16  C   UNL     1       1.396   2.305   0.694  0.00  0.00    +0.252 C 
BRANCH  16   1
ATOM      1  O   UNL     1       2.385   1.746  -0.149  0.00  0.00    -0.449 OA
BRANCH   1  21
ATOM      2  O   UNL     1       3.253   0.602   1.631  0.00  0.00    -0.226 OA
ATOM      7  N   UNL     1       4.176   0.431  -0.514  0.00  0.00    -0.251 N 
ATOM     21  C   UNL     1       3.285   0.885   0.439  0.00  0.00    +0.405 C 
ATOM     34  H   UNL     1       4.040   0.781  -1.459  0.00  0.00    +0.158 HD
BRANCH   7  26
ATOM     26  C   UNL     1       5.256  -0.464  -0.340  0.00  0.00    +0.036 A 
ATOM     28  C   UNL     1       6.055  -0.812  -1.429  0.00  0.00    +0.023 A 
ATOM     29  C   UNL     1       5.522  -0.999   0.920  0.00  0.00    +0.023 A 
ATOM     31  C   UNL     1       7.121  -1.695  -1.257  0.00  0.00    +0.002 A 
ATOM     32  C   UNL     1       6.588  -1.883   1.092  0.00  0.00    +0.002 A 
ATOM     33  C   UNL     1       7.388  -2.231   0.003  0.00  0.00    +0.000 A 
ENDBRANCH   7  26
ENDBRANCH   1  21
ENDBRANCH  16   1
ENDBRANCH  10  16
TORSDOF 7
