REMARK  Name = 7144272
REMARK  5 active torsions:
REMARK  status: ('A' for Active; 'I' for Inactive)
REMARK    1  A    between atoms: O_4  and  C_29
REMARK    2  A    between atoms: N_5  and  C_14
REMARK    3  A    between atoms: C_14  and  C_19
REMARK    4  A    between atoms: C_15  and  C_20
REMARK    5  A    between atoms: C_24  and  C_29
REMARK                            x       y       z     vdW  Elec       q    Type
REMARK                         _______ _______ _______ _____ _____    ______ ____
ROOT
ATOM      2  O   UNL     1       2.111  -3.291   2.394  0.00  0.00    -0.268 OA
ATOM      5  N   UNL     1       2.040  -0.111  -1.446  0.00  0.00    -0.294 NA
ATOM      6  N   UNL     1       1.015  -2.379   0.536  0.00  0.00    -0.311 N 
ATOM      7  C   UNL     1       1.980  -2.582  -1.833  0.00  0.00    +0.024 C 
ATOM      8  C   UNL     1      -0.119  -1.376  -1.469  0.00  0.00    +0.051 C 
ATOM      9  C   UNL     1       0.525  -2.507  -2.267  0.00  0.00    +0.017 C 
ATOM     10  C   UNL     1       2.692  -1.244  -2.114  0.00  0.00    +0.090 C 
ATOM     11  C   UNL     1       0.611  -0.047  -1.782  0.00  0.00    +0.094 C 
ATOM     12  C   UNL     1       2.025  -2.970  -0.353  0.00  0.00    +0.130 C 
ATOM     13  C   UNL     1      -0.094  -1.670   0.033  0.00  0.00    +0.034 A 
ATOM     15  C   UNL     1      -1.076  -1.263   0.878  0.00  0.00    +0.002 A 
ATOM     16  C   UNL     1       1.171  -2.664   1.904  0.00  0.00    +0.252 A 
ATOM     17  C   UNL     1      -0.947  -1.535   2.297  0.00  0.00    +0.015 A 
ATOM     18  C   UNL     1       0.103  -2.179   2.806  0.00  0.00    +0.071 A 
ENDROOT
BRANCH  15  20
ATOM      1 CL   UNL     1      -5.899   1.685  -1.083  0.00  0.00    -0.084 Cl
ATOM     20  C   UNL     1      -2.268  -0.534   0.393  0.00  0.00    -0.016 A 
ATOM     22  C   UNL     1      -2.244   0.855   0.315  0.00  0.00    +0.010 A 
ATOM     23  C   UNL     1      -3.406  -1.242   0.019  0.00  0.00    +0.010 A 
ATOM     26  C   UNL     1      -3.369   1.543  -0.142  0.00  0.00    +0.020 A 
ATOM     27  C   UNL     1      -4.531  -0.555  -0.438  0.00  0.00    +0.020 A 
ATOM     28  C   UNL     1      -4.512   0.838  -0.519  0.00  0.00    +0.041 A 
ENDBRANCH  15  20
BRANCH   5  14
ATOM     14  C   UNL     1       2.711   1.145  -1.771  0.00  0.00    +0.158 C 
BRANCH  14  19
ATOM      3  O   UNL     1       1.885   2.052   0.295  0.00  0.00    -0.461 OA
ATOM     19  C   UNL     1       2.109   2.293  -1.008  0.00  0.00    +0.119 A 
ATOM     21  C   UNL     1       1.744   3.539  -1.383  0.00  0.00    +0.046 A 
ATOM     24  C   UNL     1       1.348   3.200   0.786  0.00  0.00    +0.131 A 
ATOM     25  C   UNL     1       1.241   4.145  -0.208  0.00  0.00    +0.047 A 
BRANCH  24  29
ATOM     29  C   UNL     1       1.006   3.199   2.215  0.00  0.00    +0.230 C 
BRANCH  29   4
ATOM      4  O   UNL     1       2.148   3.654   2.944  0.00  0.00    -0.387 OA
ATOM     30  H   UNL     1       2.848   2.987   2.837  0.00  0.00    +0.210 HD
ENDBRANCH  29   4
ENDBRANCH  24  29
ENDBRANCH  14  19
ENDBRANCH   5  14
TORSDOF 5
