REMARK  Name = 11882049
REMARK  13 active torsions:
REMARK  status: ('A' for Active; 'I' for Inactive)
REMARK    1  A    between atoms: O_5  and  C_36
REMARK    2  A    between atoms: O_5  and  C_40
REMARK    3  A    between atoms: O_6  and  C_37
REMARK    4  A    between atoms: O_6  and  C_41
REMARK    5  A    between atoms: N_8  and  C_13
REMARK    6  A    between atoms: N_9  and  C_20
REMARK    7  A    between atoms: N_10  and  C_28
REMARK    8  A    between atoms: N_11  and  C_29
REMARK    9  A    between atoms: C_14  and  C_17
REMARK   10  A    between atoms: C_18  and  C_19
REMARK   11  A    between atoms: C_20  and  C_22
REMARK   12  A    between atoms: C_20  and  C_24
REMARK   13  A    between atoms: C_22  and  C_27
REMARK                            x       y       z     vdW  Elec       q    Type
REMARK                         _______ _______ _______ _____ _____    ______ ____
ROOT
ATOM      2  O   UNL     1      -3.306  -1.019   0.734  0.00  0.00    -0.268 OA
ATOM      7  N   UNL     1      -1.113  -1.606   1.144  0.00  0.00    -0.283 N 
ATOM     13  C   UNL     1       1.223  -1.730   1.579  0.00  0.00    +0.094 C 
ATOM     14  C   UNL     1      -0.747  -0.338   1.758  0.00  0.00    +0.164 C 
ATOM     15  C   UNL     1       0.621  -0.581   2.393  0.00  0.00    +0.056 C 
ATOM     16  C   UNL     1       0.006  -2.551   1.166  0.00  0.00    +0.131 C 
ATOM     18  C   UNL     1      -2.418  -1.873   0.720  0.00  0.00    +0.264 C 
ENDROOT
BRANCH  13   8
ATOM      3  O   UNL     1       4.028  -1.160   1.476  0.00  0.00    -0.253 OA
ATOM      8  N   UNL     1       1.966  -1.264   0.436  0.00  0.00    -0.295 N 
ATOM     11  N   UNL     1       3.786  -0.569  -0.783  0.00  0.00    -0.269 N 
ATOM     21  C   UNL     1       3.343  -1.007   0.468  0.00  0.00    +0.304 C 
ATOM     42  H   UNL     1       1.457  -1.050  -0.416  0.00  0.00    +0.151 HD
ATOM     44  H   UNL     1       3.086  -0.497  -1.516  0.00  0.00    +0.156 HD
BRANCH  11  29
ATOM     29  C   UNL     1       5.101  -0.209  -1.160  0.00  0.00    +0.038 A 
ATOM     32  C   UNL     1       6.137  -0.274  -0.228  0.00  0.00    +0.069 A 
ATOM     33  C   UNL     1       5.362   0.211  -2.465  0.00  0.00    +0.023 A 
ATOM     37  C   UNL     1       7.434   0.081  -0.601  0.00  0.00    +0.122 A 
ATOM     38  C   UNL     1       6.658   0.565  -2.837  0.00  0.00    +0.005 A 
ATOM     39  C   UNL     1       7.694   0.500  -1.905  0.00  0.00    +0.046 A 
BRANCH  37   6
ATOM      6  O   UNL     1       8.444   0.017   0.308  0.00  0.00    -0.495 OA
ATOM     41  C   UNL     1       8.108  -0.420   1.624  0.00  0.00    +0.277 C 
ENDBRANCH  37   6
ENDBRANCH  11  29
ENDBRANCH  13   8
BRANCH  18  19
ATOM     10  N   UNL     1      -3.121  -3.510  -1.040  0.00  0.00    -0.346 N 
ATOM     19  C   UNL     1      -2.677  -3.218   0.224  0.00  0.00    +0.104 A 
ATOM     23  C   UNL     1      -2.533  -4.406   0.905  0.00  0.00    +0.032 A 
ATOM     25  C   UNL     1      -3.261  -4.866  -1.175  0.00  0.00    +0.086 A 
ATOM     26  C   UNL     1      -2.902  -5.449   0.020  0.00  0.00    +0.020 A 
ATOM     28  C   UNL     1      -3.402  -2.547  -2.082  0.00  0.00    +0.149 C 
ENDBRANCH  18  19
BRANCH  14  17
ATOM      1  O   UNL     1      -0.376   0.446  -0.466  0.00  0.00    -0.274 OA
ATOM      9  N   UNL     1      -0.965   1.977   1.185  0.00  0.00    -0.302 N 
ATOM     17  C   UNL     1      -0.678   0.716   0.693  0.00  0.00    +0.234 C 
ATOM     43  H   UNL     1      -1.160   2.091   2.175  0.00  0.00    +0.150 HD
BRANCH   9  20
ATOM     20  C   UNL     1      -0.944   3.168   0.366  0.00  0.00    +0.163 C 
BRANCH  20  24
ATOM      4  O   UNL     1       0.426   4.160   2.110  0.00  0.00    -0.274 OA
ATOM     12  N   UNL     1       0.836   4.743  -0.073  0.00  0.00    -0.328 N 
ATOM     24  C   UNL     1       0.150   4.071   0.916  0.00  0.00    +0.231 C 
ATOM     45  H   UNL     1       1.602   5.367   0.157  0.00  0.00    +0.145 HD
ATOM     46  H   UNL     1       0.601   4.657  -1.057  0.00  0.00    +0.145 HD
ENDBRANCH  20  24
BRANCH  20  22
ATOM     22  C   UNL     1      -2.292   3.898   0.371  0.00  0.00    +0.067 C 
BRANCH  22  27
ATOM     27  C   UNL     1      -3.423   3.039  -0.140  0.00  0.00    -0.045 A 
ATOM     30  C   UNL     1      -4.154   2.251   0.749  0.00  0.00    +0.007 A 
ATOM     31  C   UNL     1      -3.738   3.034  -1.498  0.00  0.00    +0.007 A 
ATOM     34  C   UNL     1      -5.200   1.456   0.278  0.00  0.00    +0.046 A 
ATOM     35  C   UNL     1      -4.783   2.240  -1.969  0.00  0.00    +0.046 A 
ATOM     36  C   UNL     1      -5.514   1.451  -1.081  0.00  0.00    +0.120 A 
BRANCH  36   5
ATOM      5  O   UNL     1      -6.535   0.676  -1.541  0.00  0.00    -0.495 OA
ATOM     40  C   UNL     1      -7.240  -0.106  -0.578  0.00  0.00    +0.277 C 
ENDBRANCH  36   5
ENDBRANCH  22  27
ENDBRANCH  20  22
ENDBRANCH   9  20
ENDBRANCH  14  17
TORSDOF 10
