REMARK  Name = 45360667
REMARK  8 active torsions:
REMARK  status: ('A' for Active; 'I' for Inactive)
REMARK    1  A    between atoms: N_5  and  C_9
REMARK    2  A    between atoms: N_5  and  C_17
REMARK    3  A    between atoms: N_6  and  C_21
REMARK    4  A    between atoms: C_10  and  C_15
REMARK    5  A    between atoms: C_15  and  C_16
REMARK    6  A    between atoms: C_16  and  C_18
REMARK    7  A    between atoms: C_17  and  C_19
REMARK    8  A    between atoms: C_21  and  C_24
REMARK                            x       y       z     vdW  Elec       q    Type
REMARK                         _______ _______ _______ _____ _____    ______ ____
ROOT
ATOM      1  O   UNL     1      -0.185   1.970  -2.994  0.00  0.00    -0.274 OA
ATOM      3  N   UNL     1      -0.508  -0.797  -0.634  0.00  0.00    -0.286 NA
ATOM      4  N   UNL     1      -1.018  -0.123  -3.310  0.00  0.00    -0.313 N 
ATOM      8  C   UNL     1      -0.368   0.613  -1.022  0.00  0.00    +0.145 C 
ATOM      9  C   UNL     1       1.600  -0.261   0.099  0.00  0.00    +0.070 C 
ATOM     10  C   UNL     1      -1.543  -1.521  -1.364  0.00  0.00    +0.075 C 
ATOM     11  C   UNL     1       1.026   1.015  -0.516  0.00  0.00    +0.048 C 
ATOM     12  C   UNL     1       0.835  -1.372  -0.608  0.00  0.00    +0.104 C 
ATOM     13  C   UNL     1      -1.286  -1.470  -2.861  0.00  0.00    +0.123 C 
ATOM     14  C   UNL     1      -0.492   0.871  -2.521  0.00  0.00    +0.230 C 
ATOM     31  H   UNL     1      -1.115   0.069  -4.302  0.00  0.00    +0.149 HD
ENDROOT
BRANCH   9   5
ATOM      5  N   UNL     1       3.043  -0.367  -0.048  0.00  0.00    -0.307 NA
ATOM     32  H   UNL     1       3.318  -1.342   0.073  0.00  0.00    +0.123 HD
BRANCH   5  17
ATOM     17  C   UNL     1       3.731   0.447   0.946  0.00  0.00    +0.136 C 
BRANCH  17  19
ATOM      7  N   UNL     1       5.839   1.433   0.249  0.00  0.00    -0.259 NA
ATOM     19  C   UNL     1       5.223   0.365   0.804  0.00  0.00    +0.055 A 
ATOM     20  C   UNL     1       5.885  -0.773   1.238  0.00  0.00    +0.024 A 
ATOM     22  C   UNL     1       7.267  -0.817   1.093  0.00  0.00    +0.003 A 
ATOM     23  C   UNL     1       7.183   1.354   0.125  0.00  0.00    +0.111 A 
ATOM     25  C   UNL     1       7.936   0.262   0.527  0.00  0.00    +0.020 A 
ENDBRANCH  17  19
ENDBRANCH   5  17
ENDBRANCH   9   5
BRANCH  10  15
ATOM     15  C   UNL     1      -1.708  -2.963  -0.884  0.00  0.00    +0.029 C 
BRANCH  15  16
ATOM     16  C   UNL     1      -1.924  -3.021   0.622  0.00  0.00    +0.097 C 
BRANCH  16  18
ATOM      2  O   UNL     1      -4.302  -2.568   0.654  0.00  0.00    -0.276 OA
ATOM      6  N   UNL     1      -2.883  -1.246   1.930  0.00  0.00    -0.311 N 
ATOM     18  C   UNL     1      -3.176  -2.277   1.050  0.00  0.00    +0.213 C 
ATOM     33  H   UNL     1      -1.919  -1.054   2.186  0.00  0.00    +0.149 HD
BRANCH   6  21
ATOM     21  C   UNL     1      -3.906  -0.389   2.481  0.00  0.00    +0.139 C 
BRANCH  21  24
ATOM     24  C   UNL     1      -4.151   0.818   1.622  0.00  0.00    -0.030 A 
ATOM     26  C   UNL     1      -3.422   1.987   1.838  0.00  0.00    +0.005 A 
ATOM     27  C   UNL     1      -5.107   0.769   0.607  0.00  0.00    +0.005 A 
ATOM     28  C   UNL     1      -3.649   3.108   1.040  0.00  0.00    +0.000 A 
ATOM     29  C   UNL     1      -5.334   1.890  -0.191  0.00  0.00    +0.000 A 
ATOM     30  C   UNL     1      -4.605   3.060   0.025  0.00  0.00    +0.000 A 
ENDBRANCH  21  24
ENDBRANCH   6  21
ENDBRANCH  16  18
ENDBRANCH  15  16
ENDBRANCH  10  15
TORSDOF 8
