REMARK  Name = 56774179
REMARK  8 active torsions:
REMARK  status: ('A' for Active; 'I' for Inactive)
REMARK    1  A    between atoms: N_3  and  C_7
REMARK    2  A    between atoms: C_5  and  C_10
REMARK    3  A    between atoms: C_5  and  C_11
REMARK    4  A    between atoms: C_6  and  C_9
REMARK    5  A    between atoms: C_9  and  C_14
REMARK    6  A    between atoms: C_12  and  C_13
REMARK    7  A    between atoms: C_19  and  C_20
REMARK    8  A    between atoms: C_20  and  C_21
REMARK                            x       y       z     vdW  Elec       q    Type
REMARK                         _______ _______ _______ _____ _____    ______ ____
ROOT
ATOM      5  C   UNL     1      -2.346   1.599   0.493  0.00  0.00    -0.013 C 
ATOM      6  C   UNL     1      -0.804   1.624   0.533  0.00  0.00    +0.004 C 
ATOM      7  C   UNL     1      -2.260   0.148   1.009  0.00  0.00    +0.079 C 
ATOM      8  C   UNL     1      -0.852   0.089   0.380  0.00  0.00    +0.027 C 
ATOM     10  C   UNL     1      -2.991   2.602   1.424  0.00  0.00    +0.013 C 
ATOM     11  C   UNL     1      -2.973   1.695  -0.886  0.00  0.00    +0.013 C 
ENDROOT
BRANCH   7   3
ATOM      1  O   UNL     1      -5.091   0.016   1.485  0.00  0.00    -0.276 OA
ATOM      3  N   UNL     1      -3.212  -0.797   0.411  0.00  0.00    -0.312 N 
ATOM     13  C   UNL     1      -4.573  -0.786   0.703  0.00  0.00    +0.216 C 
ATOM     27  H   UNL     1      -2.879  -1.502  -0.243  0.00  0.00    +0.149 HD
BRANCH  13  12
ATOM     12  C   UNL     1      -5.359  -1.877  -0.048  0.00  0.00    +0.075 C 
ATOM     15  C   UNL     1      -5.509  -1.718  -1.575  0.00  0.00    +0.013 C 
ATOM     16  C   UNL     1      -6.899  -1.823   0.032  0.00  0.00    +0.013 C 
ATOM     17  C   UNL     1      -6.915  -2.335  -1.423  0.00  0.00    +0.001 C 
ENDBRANCH  13  12
ENDBRANCH   7   3
BRANCH   6   9
ATOM      9  C   UNL     1      -0.083   2.362  -0.603  0.00  0.00    +0.063 C 
BRANCH   9  14
ATOM      2  O   UNL     1       3.451   2.295  -0.098  0.00  0.00    -0.359 OA
ATOM      4  N   UNL     1       2.191   2.841   0.109  0.00  0.00    -0.083 NA
ATOM     14  C   UNL     1       1.359   2.069  -0.596  0.00  0.00    +0.084 A 
ATOM     18  C   UNL     1       2.031   1.030  -1.263  0.00  0.00    +0.071 A 
ATOM     21  C   UNL     1       3.343   1.217  -0.917  0.00  0.00    +0.138 A 
BRANCH  21  20
ATOM     20  C   UNL     1       4.621   0.496  -1.251  0.00  0.00    +0.080 C 
BRANCH  20  19
ATOM     19  C   UNL     1       4.710  -0.798  -0.445  0.00  0.00    -0.004 C 
ATOM     22  C   UNL     1       5.144  -0.510   0.998  0.00  0.00    +0.004 C 
ATOM     23  C   UNL     1       5.670  -1.790  -1.117  0.00  0.00    +0.004 C 
ATOM     24  C   UNL     1       5.292  -1.794   1.810  0.00  0.00    +0.000 C 
ATOM     25  C   UNL     1       5.816  -3.073  -0.301  0.00  0.00    +0.000 C 
ATOM     26  C   UNL     1       6.240  -2.781   1.135  0.00  0.00    +0.000 C 
ENDBRANCH  20  19
ENDBRANCH  21  20
ENDBRANCH   9  14
ENDBRANCH   6   9
TORSDOF 6
