REMARK  Name = 75367706
REMARK  3 active torsions:
REMARK  status: ('A' for Active; 'I' for Inactive)
REMARK    1  A    between atoms: O_3  and  C_8
REMARK    2  A    between atoms: O_3  and  C_15
REMARK    3  A    between atoms: C_13  and  C_14
REMARK                            x       y       z     vdW  Elec       q    Type
REMARK                         _______ _______ _______ _____ _____    ______ ____
ROOT
ATOM      2  O   UNL     1       1.302  -3.671   0.472  0.00  0.00    -0.375 OA
ATOM      4  O   UNL     1      -2.993  -1.873  -1.388  0.00  0.00    -0.270 OA
ATOM      5  N   UNL     1      -1.245  -2.035   0.166  0.00  0.00    -0.292 N 
ATOM      8  C   UNL     1       1.044  -1.179   0.525  0.00  0.00    +0.218 C 
ATOM      9  C   UNL     1      -0.341  -1.393   1.133  0.00  0.00    +0.155 C 
ATOM     10  C   UNL     1      -1.035  -3.466  -0.071  0.00  0.00    +0.136 C 
ATOM     11  C   UNL     1       1.949  -2.412   0.597  0.00  0.00    +0.206 C 
ATOM     12  C   UNL     1       0.365  -3.771  -0.595  0.00  0.00    +0.179 C 
ATOM     13  C   UNL     1      -2.246  -1.367  -0.551  0.00  0.00    +0.247 C 
ENDROOT
BRANCH  13  14
ATOM      1  F   UNL     1      -2.979   4.099   0.400  0.00  0.00    -0.205 F 
ATOM     14  C   UNL     1      -2.438   0.066  -0.302  0.00  0.00    +0.037 A 
ATOM     16  C   UNL     1      -1.733   1.006  -1.054  0.00  0.00    +0.016 A 
ATOM     17  C   UNL     1      -3.326   0.490   0.688  0.00  0.00    +0.016 A 
ATOM     18  C   UNL     1      -1.915   2.368  -0.817  0.00  0.00    +0.039 A 
ATOM     19  C   UNL     1      -3.508   1.852   0.925  0.00  0.00    +0.039 A 
ATOM     21  C   UNL     1      -2.803   2.791   0.172  0.00  0.00    +0.123 A 
ENDBRANCH  13  14
BRANCH   8   3
ATOM      3  O   UNL     1       1.681  -0.097   1.203  0.00  0.00    -0.468 OA
BRANCH   3  15
ATOM      6  N   UNL     1       2.702   0.348  -0.838  0.00  0.00    -0.219 NA
ATOM      7  N   UNL     1       4.039   2.516   0.337  0.00  0.00    -0.256 NA
ATOM     15  C   UNL     1       2.534   0.671   0.460  0.00  0.00    +0.234 A 
ATOM     20  C   UNL     1       3.191   1.736   1.037  0.00  0.00    +0.177 A 
ATOM     22  C   UNL     1       3.550   1.128  -1.538  0.00  0.00    +0.134 A 
ATOM     23  C   UNL     1       4.206   2.193  -0.960  0.00  0.00    +0.130 A 
ENDBRANCH   3  15
ENDBRANCH   8   3
TORSDOF 3
