REMARK  Name = 56774833
REMARK  7 active torsions:
REMARK  status: ('A' for Active; 'I' for Inactive)
REMARK    1  A    between atoms: O_2  and  C_14
REMARK    2  A    between atoms: N_5  and  C_17
REMARK    3  A    between atoms: N_6  and  C_20
REMARK    4  A    between atoms: C_9  and  C_13
REMARK    5  A    between atoms: C_12  and  C_14
REMARK    6  A    between atoms: C_14  and  C_16
REMARK    7  A    between atoms: C_17  and  C_25
REMARK                            x       y       z     vdW  Elec       q    Type
REMARK                         _______ _______ _______ _____ _____    ______ ____
ROOT
ATOM     14  C   UNL     1      -0.727   0.723  -1.034  0.00  0.00    +0.167 C 
ENDROOT
BRANCH  14  12
ATOM      1  O   UNL     1      -1.319   2.281   1.381  0.00  0.00    -0.369 OA
ATOM      4  O   UNL     1      -4.640   2.322  -0.036  0.00  0.00    -0.273 OA
ATOM      5  N   UNL     1      -3.023   0.651  -0.135  0.00  0.00    -0.284 N 
ATOM     12  C   UNL     1      -1.627   0.274   0.120  0.00  0.00    +0.135 C 
ATOM     15  C   UNL     1      -1.160   0.869   1.444  0.00  0.00    +0.185 C 
ATOM     18  C   UNL     1      -3.540   1.873   0.290  0.00  0.00    +0.242 C 
ATOM     19  C   UNL     1      -2.681   2.634   1.295  0.00  0.00    +0.255 C 
BRANCH   5  17
ATOM     17  C   UNL     1      -3.804  -0.214  -1.009  0.00  0.00    +0.182 C 
BRANCH  17  25
ATOM      7  N   UNL     1      -6.044  -0.917  -0.143  0.00  0.00    -0.347 N 
ATOM      8  N   UNL     1      -4.335  -2.215   0.427  0.00  0.00    -0.239 NA
ATOM     25  C   UNL     1      -4.698  -1.137  -0.233  0.00  0.00    +0.125 A 
ATOM     26  C   UNL     1      -6.573  -1.918   0.622  0.00  0.00    +0.104 A 
ATOM     27  C   UNL     1      -5.500  -2.706   0.962  0.00  0.00    +0.130 A 
ATOM     30  H   UNL     1      -6.557  -0.153  -0.564  0.00  0.00    +0.167 HD
ENDBRANCH  17  25
ENDBRANCH   5  17
ENDBRANCH  14  12
BRANCH  14  16
ATOM     16  C   UNL     1       0.708   0.316  -0.817  0.00  0.00    -0.017 A 
ATOM     20  C   UNL     1       3.365  -0.436  -0.416  0.00  0.00    +0.033 A 
ATOM     21  C   UNL     1       1.709   1.287  -0.773  0.00  0.00    +0.008 A 
ATOM     22  C   UNL     1       1.036  -1.030  -0.659  0.00  0.00    +0.008 A 
ATOM     23  C   UNL     1       3.037   0.911  -0.573  0.00  0.00    +0.023 A 
ATOM     24  C   UNL     1       2.364  -1.406  -0.459  0.00  0.00    +0.023 A 
BRANCH  20   6
ATOM      3  O   UNL     1       5.866   1.230  -0.240  0.00  0.00    -0.275 OA
ATOM      6  N   UNL     1       4.693  -0.812  -0.215  0.00  0.00    -0.285 N 
ATOM     13  C   UNL     1       5.820   0.011  -0.142  0.00  0.00    +0.220 C 
ATOM     28  H   UNL     1       4.850  -1.813  -0.116  0.00  0.00    +0.155 HD
BRANCH  13   9
ATOM      9  C   UNL     1       7.099  -0.733   0.083  0.00  0.00    +0.075 C 
ATOM     10  C   UNL     1       7.210  -1.654   1.262  0.00  0.00    +0.013 C 
ATOM     11  C   UNL     1       7.966  -0.358   1.249  0.00  0.00    +0.013 C 
ENDBRANCH  13   9
ENDBRANCH  20   6
ENDBRANCH  14  16
BRANCH  14   2
ATOM      2  O   UNL     1      -1.202   0.156  -2.250  0.00  0.00    -0.385 OA
ATOM     29  H   UNL     1      -0.998  -0.794  -2.263  0.00  0.00    +0.210 HD
ENDBRANCH  14   2
TORSDOF 7
