REMARK  Name = 25314763
REMARK  10 active torsions:
REMARK  status: ('A' for Active; 'I' for Inactive)
REMARK    1  A    between atoms: O_3  and  C_13
REMARK    2  A    between atoms: O_4  and  C_18
REMARK    3  A    between atoms: O_4  and  C_20
REMARK    4  A    between atoms: O_6  and  C_23
REMARK    5  A    between atoms: O_6  and  C_26
REMARK    6  A    between atoms: N_7  and  C_11
REMARK    7  A    between atoms: N_7  and  C_16
REMARK    8  A    between atoms: N_8  and  C_10
REMARK    9  A    between atoms: N_9  and  C_19
REMARK   10  A    between atoms: C_16  and  C_18
REMARK                            x       y       z     vdW  Elec       q    Type
REMARK                         _______ _______ _______ _____ _____    ______ ____
ROOT
ATOM      1  O   UNL     1       3.227   1.137  -1.786  0.00  0.00    -0.342 OA
ATOM      2  O   UNL     1       4.969   1.619  -0.333  0.00  0.00    -0.347 OA
ATOM     10  C   UNL     1       1.935   1.659   0.182  0.00  0.00    +0.136 C 
ATOM     11  C   UNL     1       3.592  -0.321   0.100  0.00  0.00    +0.141 C 
ATOM     12  C   UNL     1       2.799   2.227  -0.963  0.00  0.00    +0.170 C 
ATOM     13  C   UNL     1       2.633   0.526   0.966  0.00  0.00    +0.159 C 
ATOM     14  C   UNL     1       4.258   0.551  -0.980  0.00  0.00    +0.270 C 
ATOM     15  C   UNL     1       4.140   2.777  -0.515  0.00  0.00    +0.196 C 
ENDROOT
BRANCH  10   8
ATOM      5  O   UNL     1      -0.598   1.723   1.517  0.00  0.00    -0.252 OA
ATOM      8  N   UNL     1       0.669   1.195  -0.343  0.00  0.00    -0.291 N 
ATOM      9  N   UNL     1      -1.578   0.745  -0.379  0.00  0.00    -0.269 N 
ATOM     17  C   UNL     1      -0.525   1.264   0.379  0.00  0.00    +0.304 C 
ATOM     28  H   UNL     1       0.663   0.730  -1.246  0.00  0.00    +0.151 HD
ATOM     30  H   UNL     1      -1.346   0.403  -1.308  0.00  0.00    +0.156 HD
BRANCH   9  19
ATOM     19  C   UNL     1      -2.940   0.633  -0.012  0.00  0.00    +0.038 A 
ATOM     21  C   UNL     1      -3.859   0.084  -0.905  0.00  0.00    +0.069 A 
ATOM     22  C   UNL     1      -3.363   1.074   1.242  0.00  0.00    +0.023 A 
ATOM     23  C   UNL     1      -5.202  -0.025  -0.544  0.00  0.00    +0.122 A 
ATOM     24  C   UNL     1      -4.706   0.966   1.603  0.00  0.00    +0.005 A 
ATOM     25  C   UNL     1      -5.626   0.416   0.710  0.00  0.00    +0.046 A 
BRANCH  23   6
ATOM      6  O   UNL     1      -6.100  -0.563  -1.415  0.00  0.00    -0.495 OA
ATOM     26  C   UNL     1      -7.457  -0.644  -0.980  0.00  0.00    +0.277 C 
ENDBRANCH  23   6
ENDBRANCH   9  19
ENDBRANCH  10   8
BRANCH  13   3
ATOM      3  O   UNL     1       3.401   1.107   2.029  0.00  0.00    -0.388 OA
ATOM     29  H   UNL     1       2.785   1.588   2.607  0.00  0.00    +0.210 HD
ENDBRANCH  13   3
BRANCH  11   7
ATOM      7  N   UNL     1       2.862  -1.421  -0.533  0.00  0.00    -0.305 NA
ATOM     27  H   UNL     1       3.392  -1.770  -1.331  0.00  0.00    +0.123 HD
BRANCH   7  16
ATOM     16  C   UNL     1       2.660  -2.512   0.408  0.00  0.00    +0.109 C 
BRANCH  16  18
ATOM     18  C   UNL     1       1.939  -3.671  -0.262  0.00  0.00    +0.174 C 
BRANCH  18   4
ATOM      4  O   UNL     1       1.779  -4.718   0.686  0.00  0.00    -0.382 OA
ATOM     20  C   UNL     1       1.091  -5.828   0.126  0.00  0.00    +0.194 C 
ENDBRANCH  18   4
ENDBRANCH  16  18
ENDBRANCH   7  16
ENDBRANCH  11   7
TORSDOF 8
