REMARK  Name = 28962146
REMARK  13 active torsions:
REMARK  status: ('A' for Active; 'I' for Inactive)
REMARK    1  A    between atoms: O_2  and  C_10
REMARK    2  A    between atoms: O_3  and  C_13
REMARK    3  A    between atoms: O_5  and  C_21
REMARK    4  A    between atoms: O_5  and  C_25
REMARK    5  A    between atoms: N_6  and  C_8
REMARK    6  A    between atoms: N_6  and  C_14
REMARK    7  A    between atoms: N_6  and  C_15
REMARK    8  A    between atoms: N_7  and  C_12
REMARK    9  A    between atoms: C_9  and  C_12
REMARK   10  A    between atoms: C_11  and  C_13
REMARK   11  A    between atoms: C_14  and  C_16
REMARK   12  A    between atoms: C_16  and  C_17
REMARK   13  A    between atoms: C_18  and  C_21
REMARK                            x       y       z     vdW  Elec       q    Type
REMARK                         _______ _______ _______ _____ _____    ______ ____
ROOT
ATOM      1  O   UNL     1      -2.856   0.849  -0.730  0.00  0.00    -0.365 OA
ATOM      8  C   UNL     1      -0.752   1.902  -0.368  0.00  0.00    +0.118 C 
ATOM      9  C   UNL     1      -1.483   0.553  -0.392  0.00  0.00    +0.155 C 
ATOM     10  C   UNL     1      -1.866   2.889  -0.052  0.00  0.00    +0.165 C 
ATOM     11  C   UNL     1      -3.017   2.276  -0.841  0.00  0.00    +0.174 C 
ENDROOT
BRANCH  10   2
ATOM      2  O   UNL     1      -2.170   2.905   1.336  0.00  0.00    -0.388 OA
ATOM     26  H   UNL     1      -2.807   3.623   1.490  0.00  0.00    +0.210 HD
ENDBRANCH  10   2
BRANCH   8   6
ATOM      6  N   UNL     1       0.413   1.986   0.495  0.00  0.00    -0.297 NA
ATOM     15  C   UNL     1       0.743   3.384   0.792  0.00  0.00    +0.105 C 
BRANCH   6  14
ATOM     14  C   UNL     1       1.565   1.317  -0.117  0.00  0.00    +0.089 C 
BRANCH  14  16
ATOM     16  C   UNL     1       2.637   1.006   0.928  0.00  0.00    +0.050 C 
BRANCH  16  17
ATOM     17  C   UNL     1       3.838   0.337   0.308  0.00  0.00    -0.046 A 
ATOM     19  C   UNL     1       3.890  -1.054   0.215  0.00  0.00    +0.003 A 
ATOM     20  C   UNL     1       4.895   1.109  -0.173  0.00  0.00    +0.003 A 
ATOM     22  C   UNL     1       5.001  -1.673  -0.359  0.00  0.00    +0.000 A 
ATOM     23  C   UNL     1       6.006   0.489  -0.747  0.00  0.00    +0.000 A 
ATOM     24  C   UNL     1       6.059  -0.901  -0.840  0.00  0.00    +0.000 A 
ENDBRANCH  16  17
ENDBRANCH  14  16
ENDBRANCH   6  14
ENDBRANCH   8   6
BRANCH   9  12
ATOM     12  C   UNL     1      -1.499  -0.239   0.911  0.00  0.00    +0.137 C 
BRANCH  12   7
ATOM      4  O   UNL     1      -0.413  -2.796   0.105  0.00  0.00    -0.273 OA
ATOM      7  N   UNL     1      -2.212  -1.471   0.757  0.00  0.00    -0.311 N 
ATOM     18  C   UNL     1      -1.607  -2.662   0.362  0.00  0.00    +0.239 C 
ATOM     27  H   UNL     1      -3.212  -1.465   0.935  0.00  0.00    +0.149 HD
BRANCH  18  21
ATOM     21  C   UNL     1      -2.596  -3.805   0.282  0.00  0.00    +0.255 C 
BRANCH  21   5
ATOM      5  O   UNL     1      -1.948  -4.998  -0.106  0.00  0.00    -0.374 OA
ATOM     25  C   UNL     1      -2.856  -6.092  -0.190  0.00  0.00    +0.194 C 
ENDBRANCH  21   5
ENDBRANCH  18  21
ENDBRANCH  12   7
ENDBRANCH   9  12
BRANCH  11  13
ATOM     13  C   UNL     1      -4.408   2.662  -0.373  0.00  0.00    +0.190 C 
BRANCH  13   3
ATOM      3  O   UNL     1      -5.365   2.026  -1.205  0.00  0.00    -0.392 OA
ATOM     28  H   UNL     1      -6.244   2.292  -0.886  0.00  0.00    +0.210 HD
ENDBRANCH  13   3
ENDBRANCH  11  13
TORSDOF 11
