REMARK  Name = 9424347
REMARK  5 active torsions:
REMARK  status: ('A' for Active; 'I' for Inactive)
REMARK    1  A    between atoms: O_4  and  C_27
REMARK    2  A    between atoms: C_15  and  C_20
REMARK    3  A    between atoms: C_17  and  C_21
REMARK    4  A    between atoms: C_21  and  C_22
REMARK    5  A    between atoms: C_22  and  C_27
REMARK                            x       y       z     vdW  Elec       q    Type
REMARK                         _______ _______ _______ _____ _____    ______ ____
ROOT
ATOM      2  O   UNL     1       0.055   3.239   2.727  0.00  0.00    -0.268 OA
ATOM      3  O   UNL     1      -3.626   1.383  -0.552  0.00  0.00    -0.276 OA
ATOM      6  N   UNL     1      -1.521   1.098  -1.494  0.00  0.00    -0.301 N 
ATOM      7  N   UNL     1       0.520   2.113   0.727  0.00  0.00    -0.311 N 
ATOM      8  C   UNL     1      -0.076   3.125  -1.552  0.00  0.00    +0.027 C 
ATOM      9  C   UNL     1       0.959   0.899  -1.431  0.00  0.00    +0.054 C 
ATOM     10  C   UNL     1       1.081   2.283  -2.066  0.00  0.00    +0.018 C 
ATOM     11  C   UNL     1      -1.424   2.490  -1.930  0.00  0.00    +0.113 C 
ATOM     12  C   UNL     1       0.075   3.286  -0.038  0.00  0.00    +0.130 C 
ATOM     13  C   UNL     1      -0.376   0.254  -1.858  0.00  0.00    +0.117 C 
ATOM     14  C   UNL     1       1.049   0.969   0.096  0.00  0.00    +0.034 A 
ATOM     15  C   UNL     1       1.587  -0.028   0.845  0.00  0.00    +0.005 A 
ATOM     16  C   UNL     1       0.492   2.258   2.126  0.00  0.00    +0.252 A 
ATOM     17  C   UNL     1      -2.675   0.654  -0.848  0.00  0.00    +0.216 C 
ATOM     18  C   UNL     1       1.573   0.085   2.292  0.00  0.00    +0.015 A 
ATOM     19  C   UNL     1       1.052   1.140   2.918  0.00  0.00    +0.071 A 
ENDROOT
BRANCH  15  20
ATOM      1  F   UNL     1       4.317  -0.217   0.146  0.00  0.00    -0.205 F 
ATOM     20  C   UNL     1       2.171  -1.239   0.228  0.00  0.00    +0.019 A 
ATOM     23  C   UNL     1       3.525  -1.272  -0.095  0.00  0.00    +0.131 A 
ATOM     24  C   UNL     1       1.359  -2.340  -0.027  0.00  0.00    +0.011 A 
ATOM     25  C   UNL     1       4.071  -2.416  -0.677  0.00  0.00    +0.039 A 
ATOM     26  C   UNL     1       1.904  -3.484  -0.610  0.00  0.00    +0.001 A 
ATOM     28  C   UNL     1       3.260  -3.522  -0.934  0.00  0.00    +0.003 A 
ENDBRANCH  15  20
BRANCH  17  21
ATOM     21  C   UNL     1      -2.731  -0.810  -0.493  0.00  0.00    +0.107 C 
BRANCH  21  22
ATOM     22  C   UNL     1      -4.043  -1.123   0.198  0.00  0.00    +0.129 C 
BRANCH  22  27
ATOM      5  O   UNL     1      -3.211  -3.380   0.420  0.00  0.00    -0.251 OA
ATOM     27  C   UNL     1      -4.102  -2.567   0.628  0.00  0.00    +0.305 C 
BRANCH  27   4
ATOM      4  O   UNL     1      -5.264  -2.878   1.254  0.00  0.00    -0.481 OA
ATOM     29  H   UNL     1      -5.296  -3.822   1.519  0.00  0.00    +0.295 HD
ENDBRANCH  27   4
ENDBRANCH  22  27
ENDBRANCH  21  22
ENDBRANCH  17  21
TORSDOF 5
