REMARK  Name = 75536908
REMARK  3 active torsions:
REMARK  status: ('A' for Active; 'I' for Inactive)
REMARK    1  A    between atoms: O_3  and  C_15
REMARK    2  A    between atoms: O_3  and  C_18
REMARK    3  A    between atoms: C_7  and  C_12
REMARK                            x       y       z     vdW  Elec       q    Type
REMARK                         _______ _______ _______ _____ _____    ______ ____
ROOT
ATOM      1  O   UNL     1       0.244  -3.371   0.525  0.00  0.00    -0.375 OA
ATOM      2  O   UNL     1      -3.453  -0.680  -1.264  0.00  0.00    -0.275 OA
ATOM      4  N   UNL     1      -1.221  -0.817  -0.602  0.00  0.00    -0.295 N 
ATOM     12  C   UNL     1      -2.465  -0.180  -0.721  0.00  0.00    +0.219 C 
ATOM     13  C   UNL     1      -0.066  -0.180   0.039  0.00  0.00    +0.154 C 
ATOM     14  C   UNL     1      -1.062  -2.165  -1.154  0.00  0.00    +0.136 C 
ATOM     15  C   UNL     1       1.105  -1.087   0.429  0.00  0.00    +0.218 C 
ATOM     16  C   UNL     1      -1.048  -3.215  -0.051  0.00  0.00    +0.179 C 
ATOM     17  C   UNL     1       0.683  -2.264   1.304  0.00  0.00    +0.206 C 
ENDROOT
BRANCH  12   7
ATOM      7  C   UNL     1      -2.570   1.193  -0.131  0.00  0.00    +0.075 C 
ATOM      8  C   UNL     1      -3.046   1.111   1.324  0.00  0.00    +0.013 C 
ATOM      9  C   UNL     1      -3.615   2.022  -0.878  0.00  0.00    +0.013 C 
ATOM     10  C   UNL     1      -4.298   1.979   1.401  0.00  0.00    +0.001 C 
ATOM     11  C   UNL     1      -4.862   1.943  -0.009  0.00  0.00    +0.001 C 
ENDBRANCH  12   7
BRANCH  15   3
ATOM      3  O   UNL     1       2.035  -0.301   1.175  0.00  0.00    -0.468 OA
BRANCH   3  18
ATOM      5  N   UNL     1       2.986   0.208  -0.884  0.00  0.00    -0.219 NA
ATOM      6  N   UNL     1       4.893   1.796   0.422  0.00  0.00    -0.256 NA
ATOM     18  C   UNL     1       2.995   0.355   0.455  0.00  0.00    +0.234 A 
ATOM     19  C   UNL     1       3.932   1.135   1.097  0.00  0.00    +0.177 A 
ATOM     20  C   UNL     1       3.947   0.869  -1.560  0.00  0.00    +0.134 A 
ATOM     21  C   UNL     1       4.884   1.649  -0.918  0.00  0.00    +0.130 A 
ENDBRANCH   3  18
ENDBRANCH  15   3
TORSDOF 3
