REMARK  Name = 40777339
REMARK  10 active torsions:
REMARK  status: ('A' for Active; 'I' for Inactive)
REMARK    1  A    between atoms: N_4  and  C_24
REMARK    2  A    between atoms: N_4  and  C_25
REMARK    3  A    between atoms: C_6  and  C_10
REMARK    4  A    between atoms: C_7  and  C_12
REMARK    5  A    between atoms: C_10  and  C_20
REMARK    6  A    between atoms: C_11  and  C_16
REMARK    7  A    between atoms: C_12  and  C_22
REMARK    8  A    between atoms: C_16  and  C_21
REMARK    9  A    between atoms: C_24  and  C_26
REMARK   10  A    between atoms: C_25  and  C_27
REMARK                            x       y       z     vdW  Elec       q    Type
REMARK                         _______ _______ _______ _____ _____    ______ ____
ROOT
ATOM      3  N   UNL     1       0.558   2.837   0.057  0.00  0.00    -0.316 NA
ATOM      6  C   UNL     1       0.788   0.435  -0.531  0.00  0.00    +0.012 C 
ATOM      7  C   UNL     1       2.258   0.651  -0.963  0.00  0.00    +0.004 C 
ATOM      8  C   UNL     1       2.454   2.125  -1.358  0.00  0.00    +0.019 C 
ATOM      9  C   UNL     1       0.348   1.466   0.523  0.00  0.00    +0.085 C 
ATOM     13  C   UNL     1       1.958   3.088  -0.280  0.00  0.00    +0.081 C 
ATOM     28  H   UNL     1       0.264   3.489   0.784  0.00  0.00    +0.122 HD
ENDROOT
BRANCH   6  10
ATOM     10  C   UNL     1       0.510  -0.986  -0.041  0.00  0.00    +0.064 C 
BRANCH  10  20
ATOM      1  O   UNL     1      -2.787  -2.056  -1.015  0.00  0.00    -0.359 OA
ATOM      5  N   UNL     1      -1.430  -1.876  -1.258  0.00  0.00    -0.083 NA
ATOM     20  C   UNL     1      -0.949  -1.324  -0.140  0.00  0.00    +0.084 A 
ATOM     21  C   UNL     1      -3.082  -1.610   0.233  0.00  0.00    +0.138 A 
ATOM     23  C   UNL     1      -1.946  -1.134   0.833  0.00  0.00    +0.071 A 
BRANCH  21  16
ATOM     16  C   UNL     1      -4.482  -1.726   0.656  0.00  0.00    +0.080 C 
BRANCH  16  11
ATOM     11  C   UNL     1      -5.386  -0.657   0.045  0.00  0.00    -0.004 C 
ATOM     14  C   UNL     1      -6.840  -0.856   0.491  0.00  0.00    +0.004 C 
ATOM     15  C   UNL     1      -4.888   0.748   0.413  0.00  0.00    +0.004 C 
ATOM     17  C   UNL     1      -7.755   0.233  -0.064  0.00  0.00    +0.000 C 
ATOM     18  C   UNL     1      -5.806   1.834  -0.142  0.00  0.00    +0.000 C 
ATOM     19  C   UNL     1      -7.253   1.628   0.296  0.00  0.00    +0.000 C 
ENDBRANCH  16  11
ENDBRANCH  21  16
ENDBRANCH  10  20
ENDBRANCH   6  10
BRANCH   7  12
ATOM     12  C   UNL     1       3.287   0.228   0.092  0.00  0.00    +0.100 C 
BRANCH  12  22
ATOM      2  O   UNL     1       4.852   0.100  -1.718  0.00  0.00    -0.276 OA
ATOM      4  N   UNL     1       5.656  -0.418   0.395  0.00  0.00    -0.302 N 
ATOM     22  C   UNL     1       4.659  -0.031  -0.507  0.00  0.00    +0.216 C 
BRANCH   4  24
ATOM     24  C   UNL     1       7.023  -0.702  -0.027  0.00  0.00    +0.104 C 
ATOM     26  C   UNL     1       7.199  -2.162  -0.388  0.00  0.00    +0.024 C 
ENDBRANCH   4  24
BRANCH   4  25
ATOM     25  C   UNL     1       5.404  -0.567   1.826  0.00  0.00    +0.104 C 
ATOM     27  C   UNL     1       5.651   0.729   2.570  0.00  0.00    +0.024 C 
ENDBRANCH   4  25
ENDBRANCH  12  22
ENDBRANCH   7  12
TORSDOF 8
