REMARK  Name = 26744542
REMARK  7 active torsions:
REMARK  status: ('A' for Active; 'I' for Inactive)
REMARK    1  A    between atoms: O_2  and  C_13
REMARK    2  A    between atoms: O_3  and  C_24
REMARK    3  A    between atoms: N_5  and  C_17
REMARK    4  A    between atoms: C_8  and  C_15
REMARK    5  A    between atoms: C_9  and  C_16
REMARK    6  A    between atoms: C_17  and  C_18
REMARK    7  A    between atoms: C_23  and  C_24
REMARK                            x       y       z     vdW  Elec       q    Type
REMARK                         _______ _______ _______ _____ _____    ______ ____
ROOT
ATOM      5  N   UNL     1       2.334   1.092   0.332  0.00  0.00    -0.285 NA
ATOM      9  C   UNL     1       2.490   0.048  -0.702  0.00  0.00    +0.149 C 
ATOM     12  C   UNL     1       3.844  -0.616  -0.389  0.00  0.00    +0.061 C 
ATOM     13  C   UNL     1       4.393   0.152   0.806  0.00  0.00    +0.130 C 
ATOM     14  C   UNL     1       3.684   1.491   0.724  0.00  0.00    +0.116 C 
ENDROOT
BRANCH   9  16
ATOM      1  O   UNL     1       0.664  -1.070  -1.881  0.00  0.00    -0.336 OA
ATOM      6  N   UNL     1       0.895  -1.701   0.256  0.00  0.00    -0.194 NA
ATOM      7  N   UNL     1      -0.334  -2.025  -1.646  0.00  0.00    -0.061 NA
ATOM     15  C   UNL     1      -0.133  -2.348  -0.365  0.00  0.00    +0.175 A 
ATOM     16  C   UNL     1       1.342  -0.939  -0.711  0.00  0.00    +0.245 A 
BRANCH  15   8
ATOM      8  C   UNL     1      -1.003  -3.381   0.357  0.00  0.00    +0.060 C 
ATOM     10  C   UNL     1      -2.490  -3.184   0.377  0.00  0.00    +0.012 C 
ATOM     11  C   UNL     1      -1.690  -2.982   1.630  0.00  0.00    +0.012 C 
ENDBRANCH  15   8
ENDBRANCH   9  16
BRANCH  13   2
ATOM      2  O   UNL     1       5.797   0.295   0.708  0.00  0.00    -0.390 OA
ATOM     25  H   UNL     1       6.181  -0.598   0.691  0.00  0.00    +0.210 HD
ENDBRANCH  13   2
BRANCH   5  17
ATOM     17  C   UNL     1       1.535   2.226  -0.114  0.00  0.00    +0.120 C 
BRANCH  17  18
ATOM     18  C   UNL     1       0.060   1.931  -0.055  0.00  0.00    -0.033 A 
ATOM     19  C   UNL     1      -0.714   2.014  -1.212  0.00  0.00    +0.006 A 
ATOM     20  C   UNL     1      -0.533   1.574   1.156  0.00  0.00    +0.006 A 
ATOM     21  C   UNL     1      -2.081   1.740  -1.158  0.00  0.00    +0.015 A 
ATOM     22  C   UNL     1      -1.899   1.300   1.210  0.00  0.00    +0.015 A 
ATOM     23  C   UNL     1      -2.673   1.383   0.053  0.00  0.00    +0.059 A 
BRANCH  23  24
ATOM      4  O   UNL     1      -4.876   1.138  -0.849  0.00  0.00    -0.245 OA
ATOM     24  C   UNL     1      -4.098   1.096   0.110  0.00  0.00    +0.337 C 
BRANCH  24   3
ATOM      3  O   UNL     1      -4.513   0.765   1.364  0.00  0.00    -0.477 OA
ATOM     26  H   UNL     1      -5.475   0.573   1.391  0.00  0.00    +0.295 HD
ENDBRANCH  24   3
ENDBRANCH  23  24
ENDBRANCH  17  18
ENDBRANCH   5  17
TORSDOF 7
