REMARK  Name = 28960541
REMARK  6 active torsions:
REMARK  status: ('A' for Active; 'I' for Inactive)
REMARK    1  A    between atoms: O_6  and  C_14
REMARK    2  A    between atoms: N_9  and  C_13
REMARK    3  A    between atoms: N_10  and  C_15
REMARK    4  A    between atoms: N_12  and  C_26
REMARK    5  A    between atoms: C_23  and  C_24
REMARK    6  A    between atoms: C_29  and  C_32
REMARK                            x       y       z     vdW  Elec       q    Type
REMARK                         _______ _______ _______ _____ _____    ______ ____
ROOT
ATOM      4  O   UNL     1       3.156  -1.403   1.808  0.00  0.00    -0.342 OA
ATOM      5  O   UNL     1       4.840  -2.498   0.649  0.00  0.00    -0.347 OA
ATOM     13  C   UNL     1       3.630  -0.718  -0.455  0.00  0.00    +0.143 C 
ATOM     14  C   UNL     1       2.595  -1.730  -0.999  0.00  0.00    +0.159 C 
ATOM     15  C   UNL     1       1.809  -2.462   0.111  0.00  0.00    +0.136 C 
ATOM     16  C   UNL     1       4.227  -1.217   0.874  0.00  0.00    +0.270 C 
ATOM     17  C   UNL     1       2.630  -2.670   1.401  0.00  0.00    +0.170 C 
ATOM     18  C   UNL     1       3.916  -3.450   1.198  0.00  0.00    +0.196 C 
ENDROOT
BRANCH  15  10
ATOM      8  O   UNL     1      -0.732  -2.777  -1.171  0.00  0.00    -0.252 OA
ATOM     10  N   UNL     1       0.591  -1.742   0.417  0.00  0.00    -0.291 N 
ATOM     12  N   UNL     1      -1.609  -1.125   0.248  0.00  0.00    -0.269 N 
ATOM     25  C   UNL     1      -0.611  -1.960  -0.262  0.00  0.00    +0.304 C 
ATOM     33  H   UNL     1       0.633  -0.994   1.102  0.00  0.00    +0.151 HD
ATOM     37  H   UNL     1      -1.341  -0.503   1.006  0.00  0.00    +0.156 HD
BRANCH  12  26
ATOM     26  C   UNL     1      -2.960  -1.037  -0.164  0.00  0.00    +0.035 A 
ATOM     27  C   UNL     1      -3.823  -0.138   0.463  0.00  0.00    +0.035 A 
ATOM     28  C   UNL     1      -3.428  -1.849  -1.196  0.00  0.00    +0.023 A 
ATOM     29  C   UNL     1      -5.155  -0.051   0.057  0.00  0.00    +0.057 A 
ATOM     30  C   UNL     1      -4.760  -1.763  -1.602  0.00  0.00    +0.002 A 
ATOM     31  C   UNL     1      -5.623  -0.864  -0.976  0.00  0.00    +0.012 A 
BRANCH  29  32
ATOM      1  F   UNL     1      -7.341   0.870   0.212  0.00  0.00    -0.166 F 
ATOM      2  F   UNL     1      -6.221   0.688   2.067  0.00  0.00    -0.166 F 
ATOM      3  F   UNL     1      -5.681   2.213   0.622  0.00  0.00    -0.166 F 
ATOM     32  C   UNL     1      -6.078   0.910   0.727  0.00  0.00    +0.417 C 
ENDBRANCH  29  32
ENDBRANCH  12  26
ENDBRANCH  15  10
BRANCH  13   9
ATOM      9  N   UNL     1       3.000   0.589  -0.255  0.00  0.00    -0.293 NA
ATOM     19  C   UNL     1       3.803   1.411   0.661  0.00  0.00    +0.085 C 
ATOM     20  C   UNL     1       2.805   1.267  -1.543  0.00  0.00    +0.085 C 
ATOM     21  C   UNL     1       3.130   2.759   0.924  0.00  0.00    +0.028 C 
ATOM     22  C   UNL     1       2.099   2.611  -1.357  0.00  0.00    +0.028 C 
ATOM     23  C   UNL     1       2.859   3.506  -0.380  0.00  0.00    +0.077 C 
BRANCH  23  24
ATOM      7  O   UNL     1       1.262   4.819   0.818  0.00  0.00    -0.276 OA
ATOM     11  N   UNL     1       2.303   5.763  -1.004  0.00  0.00    -0.329 N 
ATOM     24  C   UNL     1       2.063   4.746  -0.111  0.00  0.00    +0.214 C 
ATOM     35  H   UNL     1       2.961   5.672  -1.771  0.00  0.00    +0.145 HD
ATOM     36  H   UNL     1       1.818   6.651  -0.925  0.00  0.00    +0.145 HD
ENDBRANCH  23  24
ENDBRANCH  13   9
BRANCH  14   6
ATOM      6  O   UNL     1       3.303  -2.701  -1.780  0.00  0.00    -0.388 OA
ATOM     34  H   UNL     1       2.645  -3.302  -2.168  0.00  0.00    +0.210 HD
ENDBRANCH  14   6
TORSDOF 6
