REMARK  Name = 45783907
REMARK  9 active torsions:
REMARK  status: ('A' for Active; 'I' for Inactive)
REMARK    1  A    between atoms: N_2  and  C_13
REMARK    2  A    between atoms: C_8  and  C_12
REMARK    3  A    between atoms: C_9  and  C_13
REMARK    4  A    between atoms: C_11  and  C_16
REMARK    5  A    between atoms: C_12  and  C_17
REMARK    6  A    between atoms: C_12  and  C_18
REMARK    7  A    between atoms: C_15  and  C_21
REMARK    8  A    between atoms: C_16  and  C_24
REMARK    9  A    between atoms: C_26  and  C_27
REMARK                            x       y       z     vdW  Elec       q    Type
REMARK                         _______ _______ _______ _____ _____    ______ ____
ROOT
ATOM      8  C   UNL     1      -0.456  -1.684  -0.690  0.00  0.00    +0.000 C 
ATOM      9  C   UNL     1      -1.182  -2.475   0.423  0.00  0.00    +0.029 C 
ATOM     10  C   UNL     1       0.887  -1.146  -0.178  0.00  0.00    +0.012 C 
ATOM     11  C   UNL     1       1.823  -2.249   0.361  0.00  0.00    +0.024 C 
ATOM     14  C   UNL     1      -0.257  -3.397   1.176  0.00  0.00    -0.023 C 
ATOM     15  C   UNL     1       1.087  -3.320   1.152  0.00  0.00    -0.073 C 
ATOM     21  C   UNL     1       1.918  -4.346   1.872  0.00  0.00    +0.039 C 
ENDROOT
BRANCH   8  12
ATOM     12  C   UNL     1      -0.268  -2.538  -1.951  0.00  0.00    -0.013 C 
ATOM     17  C   UNL     1      -1.609  -3.092  -2.423  0.00  0.00    +0.007 C 
ATOM     18  C   UNL     1       0.397  -1.720  -3.053  0.00  0.00    +0.007 C 
ENDBRANCH   8  12
BRANCH   9  13
ATOM     13  C   UNL     1      -1.882  -1.542   1.417  0.00  0.00    +0.092 C 
BRANCH  13   2
ATOM      2  N   UNL     1      -2.807  -0.648   0.722  0.00  0.00    -0.299 NA
ATOM      3  N   UNL     1      -5.227   0.824   0.352  0.00  0.00    -0.297 N 
ATOM      6  N   UNL     1      -7.455   0.871  -0.348  0.00  0.00    -0.223 NA
ATOM      7  N   UNL     1      -6.278   2.903   0.193  0.00  0.00    -0.223 NA
ATOM     19  C   UNL     1      -3.088   0.539   1.539  0.00  0.00    +0.103 C 
ATOM     20  C   UNL     1      -4.060  -1.347   0.410  0.00  0.00    +0.103 C 
ATOM     22  C   UNL     1      -4.011   1.510   0.799  0.00  0.00    +0.123 C 
ATOM     23  C   UNL     1      -5.016  -0.439  -0.368  0.00  0.00    +0.123 C 
ATOM     25  C   UNL     1      -6.374   1.567   0.052  0.00  0.00    +0.218 A 
ATOM     28  C   UNL     1      -8.542   1.619  -0.629  0.00  0.00    +0.116 A 
ATOM     29  C   UNL     1      -7.401   3.589  -0.105  0.00  0.00    +0.116 A 
ATOM     30  C   UNL     1      -8.573   2.995  -0.525  0.00  0.00    +0.039 A 
ENDBRANCH  13   2
ENDBRANCH   9  13
BRANCH  11  16
ATOM     16  C   UNL     1       2.951  -1.587   1.161  0.00  0.00    +0.105 C 
BRANCH  16  24
ATOM      1  O   UNL     1       4.569   0.191   0.740  0.00  0.00    -0.420 OA
ATOM      4  N   UNL     1       4.320  -1.242  -0.959  0.00  0.00    -0.112 NA
ATOM      5  N   UNL     1       5.257  -0.297  -1.332  0.00  0.00    -0.107 NA
ATOM     24  C   UNL     1       3.946  -0.918   0.257  0.00  0.00    +0.218 A 
ATOM     26  C   UNL     1       5.370   0.519  -0.310  0.00  0.00    +0.248 A 
BRANCH  26  27
ATOM     27  C   UNL     1       6.193   1.681  -0.132  0.00  0.00    +0.038 A 
ATOM     31  C   UNL     1       5.865   2.625   0.840  0.00  0.00    +0.013 A 
ATOM     32  C   UNL     1       7.321   1.865  -0.932  0.00  0.00    +0.013 A 
ATOM     33  C   UNL     1       6.666   3.755   1.013  0.00  0.00    +0.001 A 
ATOM     34  C   UNL     1       8.121   2.995  -0.759  0.00  0.00    +0.001 A 
ATOM     35  C   UNL     1       7.793   3.939   0.213  0.00  0.00    +0.000 A 
ENDBRANCH  26  27
ENDBRANCH  16  24
ENDBRANCH  11  16
TORSDOF 6
