REMARK  Name = 11885141
REMARK  2 active torsions:
REMARK  status: ('A' for Active; 'I' for Inactive)
REMARK    1  A    between atoms: C_15  and  C_18
REMARK    2  A    between atoms: C_16  and  C_19
REMARK                            x       y       z     vdW  Elec       q    Type
REMARK                         _______ _______ _______ _____ _____    ______ ____
ROOT
ATOM      2  O   UNL     1      -0.522  -1.988   1.500  0.00  0.00    -0.267 OA
ATOM      3  O   UNL     1       3.104   1.411   2.400  0.00  0.00    -0.269 OA
ATOM      4  N   UNL     1       3.861   0.162   0.600  0.00  0.00    -0.296 N 
ATOM      5  N   UNL     1       1.376  -1.731   0.169  0.00  0.00    -0.311 N 
ATOM      6  C   UNL     1       3.732  -2.288   1.008  0.00  0.00    +0.027 C 
ATOM      7  C   UNL     1       3.417  -1.409  -1.270  0.00  0.00    +0.054 C 
ATOM      8  C   UNL     1       4.043  -2.545  -0.463  0.00  0.00    +0.018 C 
ATOM      9  C   UNL     1       2.213  -2.349   1.208  0.00  0.00    +0.130 C 
ATOM     10  C   UNL     1       4.322  -0.936   1.452  0.00  0.00    +0.113 C 
ATOM     11  C   UNL     1       4.044  -0.065  -0.844  0.00  0.00    +0.117 C 
ATOM     12  C   UNL     1       1.916  -1.356  -1.064  0.00  0.00    +0.027 A 
ATOM     13  C   UNL     1       1.114  -0.907  -2.043  0.00  0.00    +0.022 A 
ATOM     14  C   UNL     1      -0.003  -1.636   0.439  0.00  0.00    +0.259 A 
ATOM     15  C   UNL     1       3.227   1.276   1.182  0.00  0.00    +0.253 C 
ATOM     16  C   UNL     1      -0.869  -1.085  -0.661  0.00  0.00    +0.047 A 
ATOM     17  C   UNL     1      -0.299  -0.767  -1.833  0.00  0.00    +0.015 A 
ENDROOT
BRANCH  16  19
ATOM     19  C   UNL     1      -2.314  -0.879  -0.463  0.00  0.00    -0.012 A 
ATOM     20  C   UNL     1      -2.785   0.335   0.038  0.00  0.00    +0.017 A 
ATOM     22  C   UNL     1      -3.211  -1.896  -0.777  0.00  0.00    +0.009 A 
ATOM     23  C   UNL     1      -4.160   0.547   0.232  0.00  0.00    -0.017 A 
ATOM     24  C   UNL     1      -4.580  -1.704  -0.591  0.00  0.00    +0.009 A 
ATOM     25  C   UNL     1      -5.071  -0.488  -0.087  0.00  0.00    -0.018 A 
ATOM     28  C   UNL     1      -4.650   1.763   0.736  0.00  0.00    +0.008 A 
ATOM     29  C   UNL     1      -6.446  -0.276   0.107  0.00  0.00    +0.008 A 
ATOM     30  C   UNL     1      -6.019   1.956   0.922  0.00  0.00    +0.001 A 
ATOM     31  C   UNL     1      -6.915   0.938   0.608  0.00  0.00    +0.001 A 
ENDBRANCH  16  19
BRANCH  15  18
ATOM      1  S   UNL     1       3.677   3.577  -0.217  0.00  0.00    -0.092 S 
ATOM     18  C   UNL     1       2.681   2.278   0.276  0.00  0.00    +0.074 A 
ATOM     21  C   UNL     1       1.424   2.343  -0.273  0.00  0.00    +0.021 A 
ATOM     26  C   UNL     1       1.272   3.482  -1.115  0.00  0.00    +0.008 A 
ATOM     27  C   UNL     1       2.421   4.239  -1.175  0.00  0.00    +0.046 A 
ENDBRANCH  15  18
TORSDOF 2
