REMARK  Name = 45784037
REMARK  12 active torsions:
REMARK  status: ('A' for Active; 'I' for Inactive)
REMARK    1  A    between atoms: O_3  and  C_27
REMARK    2  A    between atoms: O_3  and  C_28
REMARK    3  A    between atoms: N_4  and  C_13
REMARK    4  A    between atoms: N_5  and  C_25
REMARK    5  A    between atoms: C_8  and  C_12
REMARK    6  A    between atoms: C_9  and  C_13
REMARK    7  A    between atoms: C_11  and  C_16
REMARK    8  A    between atoms: C_12  and  C_17
REMARK    9  A    between atoms: C_12  and  C_18
REMARK   10  A    between atoms: C_15  and  C_21
REMARK   11  A    between atoms: C_16  and  C_24
REMARK   12  A    between atoms: C_26  and  C_27
REMARK                            x       y       z     vdW  Elec       q    Type
REMARK                         _______ _______ _______ _____ _____    ______ ____
ROOT
ATOM      8  C   UNL     1       1.222   0.033  -0.474  0.00  0.00    +0.000 C 
ATOM      9  C   UNL     1       2.771   0.060  -0.496  0.00  0.00    +0.029 C 
ATOM     10  C   UNL     1       0.653   1.252  -1.216  0.00  0.00    +0.012 C 
ATOM     11  C   UNL     1       1.127   2.582  -0.600  0.00  0.00    +0.024 C 
ATOM     14  C   UNL     1       3.340   1.448  -0.312  0.00  0.00    -0.023 C 
ATOM     15  C   UNL     1       2.620   2.583  -0.342  0.00  0.00    -0.073 C 
ATOM     21  C   UNL     1       3.275   3.924  -0.163  0.00  0.00    +0.039 C 
ENDROOT
BRANCH   8  12
ATOM     12  C   UNL     1       0.668  -1.255  -1.090  0.00  0.00    -0.013 C 
ATOM     17  C   UNL     1       0.642  -1.149  -2.612  0.00  0.00    +0.007 C 
ATOM     18  C   UNL     1      -0.727  -1.548  -0.545  0.00  0.00    +0.007 C 
ENDBRANCH   8  12
BRANCH   9  13
ATOM     13  C   UNL     1       3.357  -0.877   0.566  0.00  0.00    +0.092 C 
BRANCH  13   4
ATOM      4  N   UNL     1       4.814  -0.925   0.465  0.00  0.00    -0.299 NA
ATOM      5  N   UNL     1       7.355  -2.304   0.502  0.00  0.00    -0.303 NA
ATOM     19  C   UNL     1       5.231  -1.783  -0.650  0.00  0.00    +0.100 C 
ATOM     20  C   UNL     1       5.409  -1.394   1.723  0.00  0.00    +0.100 C 
ATOM     22  C   UNL     1       6.759  -1.835  -0.756  0.00  0.00    +0.099 C 
ATOM     23  C   UNL     1       6.936  -1.447   1.618  0.00  0.00    +0.099 C 
ATOM     25  C   UNL     1       8.812  -2.350   0.401  0.00  0.00    +0.105 C 
ENDBRANCH  13   4
ENDBRANCH   9  13
BRANCH  11  16
ATOM     16  C   UNL     1       0.348   2.906   0.680  0.00  0.00    +0.105 C 
BRANCH  16  24
ATOM      2  O   UNL     1      -1.853   1.868   0.851  0.00  0.00    -0.421 OA
ATOM      6  N   UNL     1      -1.860   3.869  -0.150  0.00  0.00    -0.112 NA
ATOM      7  N   UNL     1      -3.160   3.401  -0.121  0.00  0.00    -0.109 NA
ATOM     24  C   UNL     1      -1.132   2.942   0.428  0.00  0.00    +0.218 A 
ATOM     26  C   UNL     1      -3.109   2.231   0.471  0.00  0.00    +0.254 A 
BRANCH  26  27
ATOM     27  C   UNL     1      -4.192   1.288   0.775  0.00  0.00    +0.326 C 
BRANCH  27   3
ATOM      3  O   UNL     1      -4.153   0.180  -0.129  0.00  0.00    -0.483 OA
BRANCH   3  28
ATOM      1  F   UNL     1      -8.159  -3.547   0.388  0.00  0.00    -0.205 F 
ATOM     28  C   UNL     1      -5.149  -0.747  -0.000  0.00  0.00    +0.121 A 
ATOM     29  C   UNL     1      -6.133  -0.582   0.975  0.00  0.00    +0.048 A 
ATOM     30  C   UNL     1      -5.182  -1.857  -0.844  0.00  0.00    +0.048 A 
ATOM     31  C   UNL     1      -7.150  -1.528   1.106  0.00  0.00    +0.042 A 
ATOM     32  C   UNL     1      -6.199  -2.803  -0.713  0.00  0.00    +0.042 A 
ATOM     33  C   UNL     1      -7.183  -2.638   0.262  0.00  0.00    +0.124 A 
ENDBRANCH   3  28
ENDBRANCH  27   3
ENDBRANCH  26  27
ENDBRANCH  16  24
ENDBRANCH  11  16
TORSDOF 8
