REMARK  Name = 25390480
REMARK  9 active torsions:
REMARK  status: ('A' for Active; 'I' for Inactive)
REMARK    1  A    between atoms: O_2  and  C_11
REMARK    2  A    between atoms: O_3  and  C_12
REMARK    3  A    between atoms: O_6  and  C_29
REMARK    4  A    between atoms: O_6  and  C_32
REMARK    5  A    between atoms: N_8  and  C_15
REMARK    6  A    between atoms: N_9  and  C_26
REMARK    7  A    between atoms: C_10  and  C_14
REMARK    8  A    between atoms: C_13  and  C_15
REMARK    9  A    between atoms: C_14  and  C_16
REMARK                            x       y       z     vdW  Elec       q    Type
REMARK                         _______ _______ _______ _____ _____    ______ ____
ROOT
ATOM      1  O   UNL     1       3.074   0.373  -1.086  0.00  0.00    -0.366 OA
ATOM     10  C   UNL     1       3.064   1.514  -0.198  0.00  0.00    +0.159 C 
ATOM     11  C   UNL     1       4.362   1.450   0.600  0.00  0.00    +0.175 C 
ATOM     12  C   UNL     1       4.641  -0.039   0.627  0.00  0.00    +0.176 C 
ATOM     13  C   UNL     1       4.205  -0.456  -0.767  0.00  0.00    +0.167 C 
ENDROOT
BRANCH  11   2
ATOM      2  O   UNL     1       5.373   2.129  -0.144  0.00  0.00    -0.387 OA
ATOM     33  H   UNL     1       5.140   3.074  -0.155  0.00  0.00    +0.210 HD
ENDBRANCH  11   2
BRANCH  12   3
ATOM      3  O   UNL     1       5.996  -0.349   0.874  0.00  0.00    -0.387 OA
ATOM     34  H   UNL     1       6.237   0.056   1.725  0.00  0.00    +0.210 HD
ENDBRANCH  12   3
BRANCH  10  14
ATOM     14  C   UNL     1       1.821   1.413   0.676  0.00  0.00    +0.130 C 
BRANCH  14  16
ATOM      4  O   UNL     1       0.742   2.225  -1.272  0.00  0.00    -0.275 OA
ATOM      7  N   UNL     1      -0.595   1.759   0.583  0.00  0.00    -0.271 N 
ATOM     16  C   UNL     1       0.605   1.842  -0.110  0.00  0.00    +0.222 C 
ATOM     17  C   UNL     1      -0.758   1.300   1.979  0.00  0.00    +0.118 C 
ATOM     18  C   UNL     1      -1.867   2.100   0.077  0.00  0.00    +0.039 A 
ATOM     19  C   UNL     1      -2.250   1.367   2.323  0.00  0.00    +0.056 C 
ATOM     20  C   UNL     1      -2.842   1.887   1.054  0.00  0.00    -0.024 A 
ATOM     21  C   UNL     1      -2.217   2.580  -1.176  0.00  0.00    +0.024 A 
ATOM     22  C   UNL     1      -4.182   2.146   0.804  0.00  0.00    +0.005 A 
ATOM     24  C   UNL     1      -3.565   2.845  -1.436  0.00  0.00    +0.002 A 
ATOM     25  C   UNL     1      -4.541   2.630  -0.453  0.00  0.00    +0.000 A 
ENDBRANCH  14  16
ENDBRANCH  10  14
BRANCH  13  15
ATOM     15  C   UNL     1       3.810  -1.919  -0.862  0.00  0.00    +0.140 C 
BRANCH  15   8
ATOM      5  O   UNL     1       1.032  -1.762  -1.542  0.00  0.00    -0.253 OA
ATOM      8  N   UNL     1       2.682  -2.214   0.011  0.00  0.00    -0.297 N 
ATOM      9  N   UNL     1       0.498  -2.452   0.638  0.00  0.00    -0.269 N 
ATOM     23  C   UNL     1       1.359  -2.109  -0.409  0.00  0.00    +0.304 C 
ATOM     35  H   UNL     1       2.874  -2.514   0.962  0.00  0.00    +0.150 HD
ATOM     36  H   UNL     1       0.933  -2.716   1.518  0.00  0.00    +0.156 HD
BRANCH   9  26
ATOM     26  C   UNL     1      -0.916  -2.477   0.627  0.00  0.00    +0.038 A 
ATOM     27  C   UNL     1      -1.610  -2.129  -0.532  0.00  0.00    +0.069 A 
ATOM     28  C   UNL     1      -1.616  -2.847   1.775  0.00  0.00    +0.023 A 
ATOM     29  C   UNL     1      -3.004  -2.152  -0.543  0.00  0.00    +0.122 A 
ATOM     30  C   UNL     1      -3.011  -2.870   1.763  0.00  0.00    +0.005 A 
ATOM     31  C   UNL     1      -3.705  -2.523   0.604  0.00  0.00    +0.046 A 
BRANCH  29   6
ATOM      6  O   UNL     1      -3.682  -1.814  -1.674  0.00  0.00    -0.495 OA
ATOM     32  C   UNL     1      -2.903  -1.446  -2.812  0.00  0.00    +0.277 C 
ENDBRANCH  29   6
ENDBRANCH   9  26
ENDBRANCH  15   8
ENDBRANCH  13  15
TORSDOF 8
