REMARK  Name = 11885153
REMARK  6 active torsions:
REMARK  status: ('A' for Active; 'I' for Inactive)
REMARK    1  A    between atoms: S_1  and  C_20
REMARK    2  A    between atoms: S_1  and  C_27
REMARK    3  A    between atoms: O_4  and  C_31
REMARK    4  A    between atoms: C_17  and  C_20
REMARK    5  A    between atoms: C_18  and  C_21
REMARK    6  A    between atoms: C_27  and  C_31
REMARK                            x       y       z     vdW  Elec       q    Type
REMARK                         _______ _______ _______ _____ _____    ______ ____
ROOT
ATOM      2  O   UNL     1       0.111  -2.446  -1.166  0.00  0.00    -0.267 OA
ATOM      3  O   UNL     1      -3.527   1.131  -2.767  0.00  0.00    -0.275 OA
ATOM      6  N   UNL     1      -4.124   0.213  -0.718  0.00  0.00    -0.300 N 
ATOM      7  N   UNL     1      -1.729  -1.742   0.081  0.00  0.00    -0.311 N 
ATOM      8  C   UNL     1      -4.139  -2.282  -0.596  0.00  0.00    +0.027 C 
ATOM      9  C   UNL     1      -3.706  -0.963   1.434  0.00  0.00    +0.054 C 
ATOM     10  C   UNL     1      -4.431  -2.196   0.897  0.00  0.00    +0.018 C 
ATOM     11  C   UNL     1      -4.642  -1.019  -1.317  0.00  0.00    +0.113 C 
ATOM     12  C   UNL     1      -2.634  -2.499  -0.795  0.00  0.00    +0.130 C 
ATOM     13  C   UNL     1      -4.257   0.300   0.744  0.00  0.00    +0.117 C 
ATOM     14  C   UNL     1      -2.210  -1.064   1.204  0.00  0.00    +0.027 A 
ATOM     15  C   UNL     1      -1.353  -0.481   2.057  0.00  0.00    +0.022 A 
ATOM     16  C   UNL     1      -0.353  -1.829  -0.206  0.00  0.00    +0.259 A 
ATOM     17  C   UNL     1      -3.630   1.224  -1.541  0.00  0.00    +0.225 C 
ATOM     18  C   UNL     1       0.581  -1.134   0.748  0.00  0.00    +0.047 A 
ATOM     19  C   UNL     1       0.062  -0.515   1.819  0.00  0.00    +0.015 A 
ENDROOT
BRANCH  18  21
ATOM     21  C   UNL     1       2.036  -1.121   0.518  0.00  0.00    -0.012 A 
ATOM     22  C   UNL     1       2.616  -0.097  -0.232  0.00  0.00    +0.017 A 
ATOM     23  C   UNL     1       2.834  -2.130   1.051  0.00  0.00    +0.009 A 
ATOM     24  C   UNL     1       4.002  -0.070  -0.460  0.00  0.00    -0.017 A 
ATOM     25  C   UNL     1       4.212  -2.119   0.835  0.00  0.00    +0.009 A 
ATOM     26  C   UNL     1       4.812  -1.097   0.082  0.00  0.00    -0.018 A 
ATOM     28  C   UNL     1       4.601   0.953  -1.212  0.00  0.00    +0.008 A 
ATOM     29  C   UNL     1       6.198  -1.070  -0.145  0.00  0.00    +0.008 A 
ATOM     30  C   UNL     1       5.980   0.963  -1.428  0.00  0.00    +0.001 A 
ATOM     32  C   UNL     1       6.776  -0.046  -0.896  0.00  0.00    +0.001 A 
ENDBRANCH  18  21
BRANCH  17  20
ATOM     20  C   UNL     1      -3.196   2.498  -0.860  0.00  0.00    +0.165 C 
BRANCH  20   1
ATOM      1  S   UNL     1      -1.457   2.323  -0.433  0.00  0.00    -0.140 S 
BRANCH   1  27
ATOM     27  C   UNL     1      -1.198   3.937   0.346  0.00  0.00    +0.189 C 
BRANCH  27  31
ATOM      5  O   UNL     1       1.167   3.481   0.261  0.00  0.00    -0.250 OA
ATOM     31  C   UNL     1       0.227   4.045   0.806  0.00  0.00    +0.315 C 
BRANCH  31   4
ATOM      4  O   UNL     1       0.369   4.853   1.887  0.00  0.00    -0.480 OA
ATOM     33  H   UNL     1       1.305   4.921   2.174  0.00  0.00    +0.295 HD
ENDBRANCH  31   4
ENDBRANCH  27  31
ENDBRANCH   1  27
ENDBRANCH  20   1
ENDBRANCH  17  20
TORSDOF 6
