REMARK  Name = 7134512
REMARK  13 active torsions:
REMARK  status: ('A' for Active; 'I' for Inactive)
REMARK    1  A    between atoms: O_2  and  C_12
REMARK    2  A    between atoms: O_3  and  C_15
REMARK    3  A    between atoms: O_4  and  C_17
REMARK    4  A    between atoms: O_8  and  C_32
REMARK    5  A    between atoms: O_8  and  C_34
REMARK    6  A    between atoms: N_9  and  C_13
REMARK    7  A    between atoms: N_10  and  C_20
REMARK    8  A    between atoms: C_12  and  C_18
REMARK    9  A    between atoms: C_19  and  C_22
REMARK   10  A    between atoms: C_20  and  C_21
REMARK   11  A    between atoms: C_20  and  C_23
REMARK   12  A    between atoms: C_21  and  C_24
REMARK   13  A    between atoms: C_22  and  C_25
REMARK                            x       y       z     vdW  Elec       q    Type
REMARK                         _______ _______ _______ _____ _____    ______ ____
ROOT
ATOM     12  C   UNL     1      -0.792  -2.157  -1.100  0.00  0.00    +0.146 C 
ATOM     13  C   UNL     1      -2.851  -0.772  -0.552  0.00  0.00    +0.107 C 
ATOM     14  C   UNL     1      -1.321  -0.848  -0.510  0.00  0.00    +0.069 C 
ATOM     15  C   UNL     1      -3.502  -1.997   0.104  0.00  0.00    +0.163 C 
ATOM     16  C   UNL     1      -1.433  -3.368  -0.425  0.00  0.00    +0.078 C 
ATOM     17  C   UNL     1      -2.961  -3.310  -0.468  0.00  0.00    +0.148 C 
ENDROOT
BRANCH  12  18
ATOM      5  O   UNL     1       1.428  -2.345  -1.961  0.00  0.00    -0.273 OA
ATOM     10  N   UNL     1       1.123  -2.165   0.340  0.00  0.00    -0.301 N 
ATOM     18  C   UNL     1       0.702  -2.227  -0.977  0.00  0.00    +0.246 C 
ATOM     39  H   UNL     1       0.443  -2.110   1.091  0.00  0.00    +0.150 HD
BRANCH  10  20
ATOM     20  C   UNL     1       2.513  -2.235   0.730  0.00  0.00    +0.163 C 
BRANCH  20  23
ATOM      7  O   UNL     1       1.821  -3.925   2.333  0.00  0.00    -0.274 OA
ATOM     11  N   UNL     1       3.881  -4.133   1.337  0.00  0.00    -0.328 N 
ATOM     23  C   UNL     1       2.680  -3.495   1.567  0.00  0.00    +0.231 C 
ATOM     40  H   UNL     1       4.582  -3.767   0.700  0.00  0.00    +0.145 HD
ATOM     41  H   UNL     1       4.113  -4.994   1.821  0.00  0.00    +0.145 HD
ENDBRANCH  20  23
BRANCH  20  21
ATOM     21  C   UNL     1       2.957  -1.000   1.524  0.00  0.00    +0.067 C 
BRANCH  21  24
ATOM     24  C   UNL     1       3.246   0.188   0.651  0.00  0.00    -0.045 A 
ATOM     26  C   UNL     1       4.530   0.380   0.157  0.00  0.00    +0.007 A 
ATOM     27  C   UNL     1       2.227   1.083   0.349  0.00  0.00    +0.007 A 
ATOM     29  C   UNL     1       4.799   1.484  -0.653  0.00  0.00    +0.046 A 
ATOM     30  C   UNL     1       2.495   2.186  -0.460  0.00  0.00    +0.046 A 
ATOM     32  C   UNL     1       3.781   2.387  -0.961  0.00  0.00    +0.120 A 
BRANCH  32   8
ATOM      8  O   UNL     1       4.044   3.463  -1.752  0.00  0.00    -0.495 OA
ATOM     34  C   UNL     1       2.958   4.347  -2.027  0.00  0.00    +0.277 C 
ENDBRANCH  32   8
ENDBRANCH  21  24
ENDBRANCH  20  21
ENDBRANCH  10  20
ENDBRANCH  12  18
BRANCH  13   9
ATOM      6  O   UNL     1      -3.197   1.800  -1.795  0.00  0.00    -0.275 OA
ATOM      9  N   UNL     1      -3.297   0.446   0.088  0.00  0.00    -0.310 N 
ATOM     19  C   UNL     1      -3.432   1.640  -0.599  0.00  0.00    +0.218 C 
ATOM     35  H   UNL     1      -3.453   0.431   1.092  0.00  0.00    +0.149 HD
BRANCH  19  22
ATOM     22  C   UNL     1      -3.930   2.772   0.278  0.00  0.00    +0.138 C 
BRANCH  22  25
ATOM      1  S   UNL     1      -2.571   3.540   2.554  0.00  0.00    -0.101 S 
ATOM     25  C   UNL     1      -2.750   3.497   0.863  0.00  0.00    -0.001 A 
ATOM     28  C   UNL     1      -1.760   4.153   0.194  0.00  0.00    +0.011 A 
ATOM     31  C   UNL     1      -0.813   4.717   1.097  0.00  0.00    +0.008 A 
ATOM     33  C   UNL     1      -1.133   4.459   2.411  0.00  0.00    +0.045 A 
ENDBRANCH  22  25
ENDBRANCH  19  22
ENDBRANCH  13   9
BRANCH  12   2
ATOM      2  O   UNL     1      -1.050  -2.214  -2.498  0.00  0.00    -0.379 OA
ATOM     36  H   UNL     1      -0.731  -1.388  -2.901  0.00  0.00    +0.211 HD
ENDBRANCH  12   2
BRANCH  15   3
ATOM      3  O   UNL     1      -4.910  -1.966  -0.144  0.00  0.00    -0.387 OA
ATOM     37  H   UNL     1      -5.323  -2.644   0.417  0.00  0.00    +0.210 HD
ENDBRANCH  15   3
BRANCH  17   4
ATOM      4  O   UNL     1      -3.485  -4.389   0.305  0.00  0.00    -0.389 OA
ATOM     38  H   UNL     1      -4.441  -4.437   0.136  0.00  0.00    +0.210 HD
ENDBRANCH  17   4
TORSDOF 12
