REMARK  Name = 11942816
REMARK  4 active torsions:
REMARK  status: ('A' for Active; 'I' for Inactive)
REMARK    1  A    between atoms: C_15  and  C_18
REMARK    2  A    between atoms: C_16  and  C_19
REMARK    3  A    between atoms: C_20  and  C_27
REMARK    4  A    between atoms: C_29  and  C_31
REMARK                            x       y       z     vdW  Elec       q    Type
REMARK                         _______ _______ _______ _____ _____    ______ ____
ROOT
ATOM      1  O   UNL     1       2.221   1.763   1.392  0.00  0.00    -0.267 OA
ATOM      2  O   UNL     1      -2.608   0.869   2.570  0.00  0.00    -0.270 OA
ATOM      3  N   UNL     1      -2.648   1.757   0.429  0.00  0.00    -0.297 N 
ATOM      4  N   UNL     1       0.448   2.058  -0.093  0.00  0.00    -0.311 N 
ATOM      6  C   UNL     1      -1.340   3.864   0.237  0.00  0.00    +0.027 C 
ATOM      7  C   UNL     1      -1.483   2.334  -1.687  0.00  0.00    +0.054 C 
ATOM      8  C   UNL     1      -1.477   3.807  -1.281  0.00  0.00    +0.018 C 
ATOM      9  C   UNL     1      -2.518   3.134   0.909  0.00  0.00    +0.113 C 
ATOM     10  C   UNL     1       0.015   3.262   0.632  0.00  0.00    +0.130 C 
ATOM     11  C   UNL     1      -2.689   1.623  -1.038  0.00  0.00    +0.117 C 
ATOM     12  C   UNL     1      -0.200   1.645  -1.260  0.00  0.00    +0.027 A 
ATOM     13  C   UNL     1       0.285   0.617  -1.974  0.00  0.00    +0.022 A 
ATOM     14  C   UNL     1       1.602   1.410   0.387  0.00  0.00    +0.259 A 
ATOM     15  C   UNL     1      -2.643   0.694   1.351  0.00  0.00    +0.247 C 
ATOM     16  C   UNL     1       2.095   0.231  -0.408  0.00  0.00    +0.047 A 
ATOM     17  C   UNL     1       1.448  -0.101  -1.535  0.00  0.00    +0.015 A 
ENDROOT
BRANCH  16  19
ATOM     19  C   UNL     1       3.253  -0.560   0.039  0.00  0.00    -0.010 A 
ATOM     20  C   UNL     1       4.551  -0.243  -0.365  0.00  0.00    -0.043 A 
ATOM     23  C   UNL     1       3.037  -1.649   0.886  0.00  0.00    +0.009 A 
ATOM     24  C   UNL     1       5.629  -1.012   0.075  0.00  0.00    +0.004 A 
ATOM     27  C   UNL     1       4.823   0.914  -1.272  0.00  0.00    +0.044 C 
ATOM     28  C   UNL     1       4.114  -2.418   1.327  0.00  0.00    +0.001 A 
ATOM     30  C   UNL     1       5.410  -2.099   0.921  0.00  0.00    +0.000 A 
ENDBRANCH  16  19
BRANCH  15  18
ATOM     18  C   UNL     1      -2.652  -0.657   0.806  0.00  0.00    +0.037 A 
ATOM     21  C   UNL     1      -1.448  -1.303   0.537  0.00  0.00    +0.014 A 
ATOM     22  C   UNL     1      -3.864  -1.296   0.559  0.00  0.00    +0.014 A 
ATOM     25  C   UNL     1      -1.457  -2.598   0.017  0.00  0.00    +0.019 A 
ATOM     26  C   UNL     1      -3.873  -2.591   0.039  0.00  0.00    +0.019 A 
ATOM     29  C   UNL     1      -2.669  -3.241  -0.232  0.00  0.00    +0.052 A 
BRANCH  29  31
ATOM      5  N   UNL     1      -2.684  -5.644  -1.202  0.00  0.00    -0.191 NA
ATOM     31  C   UNL     1      -2.677  -4.566  -0.767  0.00  0.00    +0.099 C 
ENDBRANCH  29  31
ENDBRANCH  15  18
TORSDOF 3
