REMARK  Name = 75367756
REMARK  3 active torsions:
REMARK  status: ('A' for Active; 'I' for Inactive)
REMARK    1  A    between atoms: O_3  and  C_6
REMARK    2  A    between atoms: N_4  and  C_8
REMARK    3  A    between atoms: C_8  and  C_11
REMARK                            x       y       z     vdW  Elec       q    Type
REMARK                         _______ _______ _______ _____ _____    ______ ____
ROOT
ATOM      2  O   UNL     1       2.948   1.682  -0.766  0.00  0.00    -0.376 OA
ATOM      4  N   UNL     1       0.751  -0.143   0.486  0.00  0.00    -0.293 NA
ATOM      5  C   UNL     1       1.923  -0.986   0.745  0.00  0.00    +0.118 C 
ATOM      6  C   UNL     1       3.301  -0.444   0.335  0.00  0.00    +0.154 C 
ATOM      7  C   UNL     1       0.983   1.289   0.680  0.00  0.00    +0.113 C 
ATOM      9  C   UNL     1       3.308   0.322  -0.981  0.00  0.00    +0.192 C 
ATOM     10  C   UNL     1       1.554   1.903  -0.599  0.00  0.00    +0.175 C 
ENDROOT
BRANCH   6   3
ATOM      3  O   UNL     1       4.193  -1.552   0.204  0.00  0.00    -0.388 OA
ATOM     17  H   UNL     1       4.212  -2.015   1.059  0.00  0.00    +0.210 HD
ENDBRANCH   6   3
BRANCH   4   8
ATOM      8  C   UNL     1      -0.390  -0.613   1.272  0.00  0.00    +0.122 C 
BRANCH   8  11
ATOM      1  F   UNL     1      -1.073  -1.524  -1.322  0.00  0.00    -0.205 F 
ATOM     11  C   UNL     1      -1.701  -0.290   0.606  0.00  0.00    +0.002 A 
ATOM     12  C   UNL     1      -1.973  -0.771  -0.674  0.00  0.00    +0.128 A 
ATOM     13  C   UNL     1      -2.645   0.493   1.272  0.00  0.00    +0.008 A 
ATOM     14  C   UNL     1      -3.188  -0.471  -1.289  0.00  0.00    +0.038 A 
ATOM     15  C   UNL     1      -3.860   0.794   0.657  0.00  0.00    +0.000 A 
ATOM     16  C   UNL     1      -4.132   0.312  -0.624  0.00  0.00    +0.003 A 
ENDBRANCH   8  11
ENDBRANCH   4   8
TORSDOF 3
