REMARK  Name = 11941380
REMARK  7 active torsions:
REMARK  status: ('A' for Active; 'I' for Inactive)
REMARK    1  A    between atoms: O_4  and  C_26
REMARK    2  A    between atoms: O_4  and  C_34
REMARK    3  A    between atoms: O_5  and  C_31
REMARK    4  A    between atoms: O_5  and  C_35
REMARK    5  A    between atoms: N_7  and  C_12
REMARK    6  A    between atoms: C_19  and  C_24
REMARK    7  A    between atoms: C_22  and  C_25
REMARK                            x       y       z     vdW  Elec       q    Type
REMARK                         _______ _______ _______ _____ _____    ______ ____
ROOT
ATOM      1  O   UNL     1      -2.509  -3.825   1.268  0.00  0.00    -0.273 OA
ATOM      2  O   UNL     1       0.318  -1.552  -2.553  0.00  0.00    -0.270 OA
ATOM      6  N   UNL     1      -1.453  -1.799  -1.107  0.00  0.00    -0.284 N 
ATOM      8  N   UNL     1      -0.338  -3.137   1.265  0.00  0.00    -0.283 N 
ATOM     11  C   UNL     1      -2.044  -1.706   0.215  0.00  0.00    +0.183 C 
ATOM     12  C   UNL     1      -3.550  -1.557  -0.041  0.00  0.00    +0.104 C 
ATOM     13  C   UNL     1      -3.750  -2.240  -1.396  0.00  0.00    +0.043 C 
ATOM     14  C   UNL     1      -2.466  -1.918  -2.144  0.00  0.00    +0.111 C 
ATOM     15  C   UNL     1      -1.667  -2.994   0.923  0.00  0.00    +0.240 C 
ATOM     16  C   UNL     1      -0.118  -1.628  -1.404  0.00  0.00    +0.249 C 
ATOM     17  C   UNL     1       0.847  -1.554  -0.276  0.00  0.00    +0.059 A 
ATOM     18  C   UNL     1       0.758  -2.328   0.893  0.00  0.00    +0.046 A 
ATOM     20  C   UNL     1       1.996  -0.775  -0.504  0.00  0.00    +0.023 A 
ATOM     21  C   UNL     1       1.853  -2.352   1.775  0.00  0.00    +0.024 A 
ATOM     22  C   UNL     1       3.052  -0.776   0.406  0.00  0.00    -0.014 A 
ATOM     23  C   UNL     1       2.986  -1.575   1.540  0.00  0.00    +0.010 A 
ATOM     37  H   UNL     1      -0.138  -3.874   1.937  0.00  0.00    +0.155 HD
ENDROOT
BRANCH  22  25
ATOM     25  C   UNL     1       4.224   0.036   0.158  0.00  0.00    +0.024 A 
ATOM     26  C   UNL     1       4.309   1.342   0.643  0.00  0.00    +0.131 A 
ATOM     28  C   UNL     1       5.282  -0.502  -0.578  0.00  0.00    +0.016 A 
ATOM     29  C   UNL     1       5.448   2.108   0.393  0.00  0.00    +0.091 A 
ATOM     30  C   UNL     1       6.421   0.264  -0.827  0.00  0.00    +0.046 A 
ATOM     31  C   UNL     1       6.504   1.569  -0.342  0.00  0.00    +0.124 A 
BRANCH  26   4
ATOM      4  O   UNL     1       3.292   1.894   1.364  0.00  0.00    -0.494 OA
ATOM     34  C   UNL     1       3.473   3.234   1.816  0.00  0.00    +0.277 C 
ENDBRANCH  26   4
BRANCH  31   5
ATOM      5  O   UNL     1       7.615   2.316  -0.585  0.00  0.00    -0.495 OA
ATOM     35  C   UNL     1       8.656   1.702  -1.343  0.00  0.00    +0.277 C 
ENDBRANCH  31   5
ENDBRANCH  22  25
BRANCH  12   7
ATOM      3  O   UNL     1      -6.134  -0.457   0.556  0.00  0.00    -0.268 OA
ATOM      7  N   UNL     1      -3.929  -0.163  -0.097  0.00  0.00    -0.305 N 
ATOM     19  C   UNL     1      -5.208   0.272   0.211  0.00  0.00    +0.264 C 
ATOM     36  H   UNL     1      -3.243   0.512  -0.424  0.00  0.00    +0.149 HD
BRANCH  19  24
ATOM      9  N   UNL     1      -4.392   2.445  -0.320  0.00  0.00    -0.247 NA
ATOM     10  N   UNL     1      -6.895   3.578   0.245  0.00  0.00    -0.259 NA
ATOM     24  C   UNL     1      -5.445   1.732   0.080  0.00  0.00    +0.143 A 
ATOM     27  C   UNL     1      -6.668   2.254   0.360  0.00  0.00    +0.143 A 
ATOM     32  C   UNL     1      -4.619   3.769  -0.436  0.00  0.00    +0.131 A 
ATOM     33  C   UNL     1      -5.848   4.325  -0.158  0.00  0.00    +0.130 A 
ENDBRANCH  19  24
ENDBRANCH  12   7
TORSDOF 5
