REMARK  Name = 45360854
REMARK  10 active torsions:
REMARK  status: ('A' for Active; 'I' for Inactive)
REMARK    1  A    between atoms: O_4  and  C_29
REMARK    2  A    between atoms: N_6  and  C_17
REMARK    3  A    between atoms: N_7  and  C_19
REMARK    4  A    between atoms: N_9  and  C_28
REMARK    5  A    between atoms: C_14  and  C_18
REMARK    6  A    between atoms: C_17  and  C_21
REMARK    7  A    between atoms: C_18  and  C_20
REMARK    8  A    between atoms: C_20  and  C_22
REMARK    9  A    between atoms: C_27  and  C_29
REMARK   10  A    between atoms: C_28  and  C_30
REMARK                            x       y       z     vdW  Elec       q    Type
REMARK                         _______ _______ _______ _____ _____    ______ ____
ROOT
ATOM      1  O   UNL     1       1.340   1.388   0.287  0.00  0.00    -0.274 OA
ATOM      6  N   UNL     1       2.775  -0.786  -0.425  0.00  0.00    -0.286 NA
ATOM      7  N   UNL     1      -0.564  -1.978   0.483  0.00  0.00    -0.296 NA
ATOM      8  N   UNL     1      -0.609   0.666  -0.671  0.00  0.00    -0.312 N 
ATOM     10  C   UNL     1       0.729  -2.078  -0.229  0.00  0.00    +0.084 C 
ATOM     11  C   UNL     1       1.353  -0.780  -0.820  0.00  0.00    +0.161 C 
ATOM     12  C   UNL     1       1.879  -2.621   0.639  0.00  0.00    +0.036 C 
ATOM     13  C   UNL     1       3.122  -2.165  -0.097  0.00  0.00    +0.087 C 
ATOM     14  C   UNL     1      -1.704  -1.535  -0.369  0.00  0.00    +0.074 C 
ATOM     15  C   UNL     1       0.722   0.521  -0.330  0.00  0.00    +0.232 C 
ATOM     16  C   UNL     1      -1.384  -0.369  -1.325  0.00  0.00    +0.123 C 
ATOM     19  C   UNL     1      -0.893  -3.246   1.155  0.00  0.00    +0.105 C 
ATOM     34  H   UNL     1      -1.083   1.521  -0.395  0.00  0.00    +0.149 HD
ENDROOT
BRANCH   6  17
ATOM     17  C   UNL     1       3.658  -0.225  -1.439  0.00  0.00    +0.120 C 
BRANCH  17  21
ATOM     21  C   UNL     1       4.968   0.230  -0.853  0.00  0.00    -0.033 A 
ATOM     23  C   UNL     1       5.031   1.422  -0.131  0.00  0.00    +0.006 A 
ATOM     24  C   UNL     1       6.117  -0.540  -1.031  0.00  0.00    +0.006 A 
ATOM     25  C   UNL     1       6.244   1.843   0.413  0.00  0.00    +0.015 A 
ATOM     26  C   UNL     1       7.330  -0.118  -0.487  0.00  0.00    +0.015 A 
ATOM     27  C   UNL     1       7.394   1.074   0.235  0.00  0.00    +0.059 A 
BRANCH  27  29
ATOM      5  O   UNL     1       8.829   2.546   1.458  0.00  0.00    -0.245 OA
ATOM     29  C   UNL     1       8.659   1.513   0.803  0.00  0.00    +0.337 C 
BRANCH  29   4
ATOM      4  O   UNL     1       9.676   0.649   0.537  0.00  0.00    -0.477 OA
ATOM     36  H   UNL     1      10.525   0.954   0.924  0.00  0.00    +0.295 HD
ENDBRANCH  29   4
ENDBRANCH  27  29
ENDBRANCH  17  21
ENDBRANCH   6  17
BRANCH  14  18
ATOM     18  C   UNL     1      -2.897  -1.102   0.509  0.00  0.00    +0.029 C 
BRANCH  18  20
ATOM     20  C   UNL     1      -4.200  -1.224  -0.259  0.00  0.00    +0.097 C 
BRANCH  20  22
ATOM      2  O   UNL     1      -5.289  -0.413   1.745  0.00  0.00    -0.276 OA
ATOM      9  N   UNL     1      -6.580  -0.913  -0.117  0.00  0.00    -0.308 N 
ATOM     22  C   UNL     1      -5.389  -0.802   0.585  0.00  0.00    +0.213 C 
ATOM     35  H   UNL     1      -6.565  -1.229  -1.083  0.00  0.00    +0.149 HD
BRANCH   9  28
ATOM     28  C   UNL     1      -7.855  -0.572   0.468  0.00  0.00    +0.178 C 
BRANCH  28  30
ATOM      3  O   UNL     1      -8.309   1.242  -1.090  0.00  0.00    -0.466 OA
ATOM     30  C   UNL     1      -8.223   0.865   0.212  0.00  0.00    +0.122 A 
ATOM     31  C   UNL     1      -8.504   1.926   1.042  0.00  0.00    +0.046 A 
ATOM     32  C   UNL     1      -8.780   3.025   0.194  0.00  0.00    +0.041 A 
ATOM     33  C   UNL     1      -8.648   2.558  -1.093  0.00  0.00    +0.195 A 
ENDBRANCH  28  30
ENDBRANCH   9  28
ENDBRANCH  20  22
ENDBRANCH  18  20
ENDBRANCH  14  18
TORSDOF 9
