REMARK  Name = 51137135
REMARK  9 active torsions:
REMARK  status: ('A' for Active; 'I' for Inactive)
REMARK    1  A    between atoms: S_1  and  C_21
REMARK    2  A    between atoms: S_1  and  C_26
REMARK    3  A    between atoms: N_5  and  C_12
REMARK    4  A    between atoms: N_7  and  C_25
REMARK    5  A    between atoms: N_7  and  C_28
REMARK    6  A    between atoms: N_7  and  C_29
REMARK    7  A    between atoms: C_8  and  C_13
REMARK    8  A    between atoms: C_12  and  C_14
REMARK    9  A    between atoms: C_26  and  C_27
REMARK                            x       y       z     vdW  Elec       q    Type
REMARK                         _______ _______ _______ _____ _____    ______ ____
ROOT
ATOM      5  N   UNL     1      -2.244  -0.402  -0.220  0.00  0.00    -0.297 NA
ATOM      8  C   UNL     1      -0.137  -1.149   0.488  0.00  0.00    +0.090 C 
ATOM      9  C   UNL     1      -0.797  -0.331   1.611  0.00  0.00    +0.029 C 
ATOM     10  C   UNL     1      -0.949  -0.809  -0.769  0.00  0.00    +0.097 C 
ATOM     11  C   UNL     1      -1.917   0.443   0.929  0.00  0.00    +0.085 C 
ENDROOT
BRANCH   8  13
ATOM      2  O   UNL     1       2.147  -2.001   0.471  0.00  0.00    -0.439 OA
ATOM      6  N   UNL     1       1.964   0.215   0.032  0.00  0.00    -0.213 NA
ATOM     13  C   UNL     1       1.345  -0.910   0.314  0.00  0.00    +0.201 A 
ATOM     15  C   UNL     1       3.288  -0.152  -0.003  0.00  0.00    +0.111 A 
ATOM     16  C   UNL     1       3.403  -1.508   0.265  0.00  0.00    +0.155 A 
ATOM     19  C   UNL     1       4.451   0.591  -0.252  0.00  0.00    +0.058 A 
ATOM     20  C   UNL     1       4.603  -2.207   0.308  0.00  0.00    +0.050 A 
ATOM     21  C   UNL     1       5.681  -0.080  -0.218  0.00  0.00    +0.090 A 
ATOM     22  C   UNL     1       5.754  -1.451   0.057  0.00  0.00    +0.030 A 
BRANCH  21   1
ATOM      1  S   UNL     1       7.153   0.814  -0.526  0.00  0.00    -0.003 S 
ATOM      3  O   UNL     1       8.174  -0.111  -0.995  0.00  0.00    -0.169 OA
ATOM      4  O   UNL     1       6.807   1.979  -1.326  0.00  0.00    -0.169 OA
BRANCH   1  26
ATOM     26  C   UNL     1       7.665   1.383   1.079  0.00  0.00    +0.168 C 
ATOM     27  C   UNL     1       8.943   2.188   1.000  0.00  0.00    +0.028 C 
ENDBRANCH   1  26
ENDBRANCH  21   1
ENDBRANCH   8  13
BRANCH   5  12
ATOM     12  C   UNL     1      -3.070   0.289  -1.199  0.00  0.00    +0.119 C 
BRANCH  12  14
ATOM     14  C   UNL     1      -4.519   0.315  -0.792  0.00  0.00    -0.033 A 
ATOM     17  C   UNL     1      -5.303  -0.831  -0.932  0.00  0.00    +0.007 A 
ATOM     18  C   UNL     1      -5.078   1.483  -0.274  0.00  0.00    +0.007 A 
ATOM     23  C   UNL     1      -6.646  -0.807  -0.554  0.00  0.00    +0.023 A 
ATOM     24  C   UNL     1      -6.420   1.507   0.103  0.00  0.00    +0.023 A 
ATOM     25  C   UNL     1      -7.204   0.362  -0.037  0.00  0.00    +0.029 A 
BRANCH  25   7
ATOM      7  N   UNL     1      -8.562   0.386   0.345  0.00  0.00    -0.336 N 
ATOM     28  C   UNL     1      -9.385  -0.799   0.204  0.00  0.00    +0.129 C 
ATOM     29  C   UNL     1      -9.149   1.593   0.891  0.00  0.00    +0.129 C 
ENDBRANCH  25   7
ENDBRANCH  12  14
ENDBRANCH   5  12
TORSDOF 6
