REMARK  Name = 40780152
REMARK  6 active torsions:
REMARK  status: ('A' for Active; 'I' for Inactive)
REMARK    1  A    between atoms: N_4  and  C_14
REMARK    2  A    between atoms: C_8  and  C_14
REMARK    3  A    between atoms: C_9  and  C_15
REMARK    4  A    between atoms: C_16  and  C_19
REMARK    5  A    between atoms: C_21  and  C_23
REMARK    6  A    between atoms: C_22  and  C_24
REMARK                            x       y       z     vdW  Elec       q    Type
REMARK                         _______ _______ _______ _____ _____    ______ ____
ROOT
ATOM      3  N   UNL     1      -1.604  -2.341   0.635  0.00  0.00    -0.297 NA
ATOM      7  C   UNL     1      -0.931  -1.468  -1.725  0.00  0.00    +0.002 C 
ATOM      8  C   UNL     1      -2.443  -1.170   0.268  0.00  0.00    +0.074 C 
ATOM      9  C   UNL     1       0.327  -1.642  -0.830  0.00  0.00    +0.055 C 
ATOM     10  C   UNL     1      -1.923  -0.513  -1.029  0.00  0.00    +0.024 C 
ATOM     11  C   UNL     1      -1.613  -2.851  -1.807  0.00  0.00    +0.019 C 
ATOM     12  C   UNL     1      -0.168  -1.967   0.609  0.00  0.00    +0.094 C 
ATOM     13  C   UNL     1      -1.826  -3.396  -0.384  0.00  0.00    +0.085 C 
ENDROOT
BRANCH   9  15
ATOM      5  N   UNL     1       1.127   0.526  -1.632  0.00  0.00    -0.237 NA
ATOM      6  N   UNL     1       3.224   1.468  -0.910  0.00  0.00    -0.232 NA
ATOM     15  C   UNL     1       1.377  -0.540  -0.844  0.00  0.00    +0.050 A 
ATOM     20  C   UNL     1       2.512  -0.672  -0.070  0.00  0.00    +0.052 A 
ATOM     21  C   UNL     1       3.410   0.373  -0.143  0.00  0.00    +0.081 A 
ATOM     22  C   UNL     1       2.079   1.479  -1.618  0.00  0.00    +0.127 A 
ATOM     24  C   UNL     1       1.838   2.674  -2.476  0.00  0.00    +0.088 C 
BRANCH  21  23
ATOM      1  S   UNL     1       6.003   1.178  -0.024  0.00  0.00    -0.095 S 
ATOM     23  C   UNL     1       4.635   0.365   0.610  0.00  0.00    +0.038 A 
ATOM     25  C   UNL     1       4.902  -0.224   1.827  0.00  0.00    +0.017 A 
ATOM     26  C   UNL     1       6.247  -0.005   2.244  0.00  0.00    +0.008 A 
ATOM     27  C   UNL     1       6.956   0.744   1.331  0.00  0.00    +0.046 A 
ENDBRANCH  21  23
ENDBRANCH   9  15
BRANCH   8  14
ATOM     14  C   UNL     1      -2.564  -0.159   1.410  0.00  0.00    +0.123 C 
BRANCH  14   4
ATOM      2  O   UNL     1      -5.433  -0.066   1.871  0.00  0.00    -0.276 OA
ATOM      4  N   UNL     1      -3.468   0.894   1.066  0.00  0.00    -0.314 N 
ATOM     19  C   UNL     1      -4.833   0.853   1.326  0.00  0.00    +0.216 C 
ATOM     28  H   UNL     1      -3.083   1.717   0.611  0.00  0.00    +0.149 HD
BRANCH  19  16
ATOM     16  C   UNL     1      -5.585   2.063   0.882  0.00  0.00    +0.075 C 
ATOM     17  C   UNL     1      -5.486   2.501  -0.549  0.00  0.00    +0.013 C 
ATOM     18  C   UNL     1      -6.760   1.897  -0.037  0.00  0.00    +0.013 C 
ENDBRANCH  19  16
ENDBRANCH  14   4
ENDBRANCH   8  14
TORSDOF 5
