REMARK  Name = 75536837
REMARK  5 active torsions:
REMARK  status: ('A' for Active; 'I' for Inactive)
REMARK    1  A    between atoms: O_3  and  C_10
REMARK    2  A    between atoms: N_6  and  C_9
REMARK    3  A    between atoms: N_6  and  C_12
REMARK    4  A    between atoms: N_7  and  C_14
REMARK    5  A    between atoms: C_11  and  C_14
REMARK                            x       y       z     vdW  Elec       q    Type
REMARK                         _______ _______ _______ _____ _____    ______ ____
ROOT
ATOM      1  O   UNL     1       0.827  -0.899  -0.093  0.00  0.00    -0.371 OA
ATOM      9  C   UNL     1       2.858   0.287   0.238  0.00  0.00    +0.111 C 
ATOM     10  C   UNL     1       1.882   1.176  -0.512  0.00  0.00    +0.164 C 
ATOM     11  C   UNL     1       0.556   0.511  -0.169  0.00  0.00    +0.165 C 
ATOM     13  C   UNL     1       2.249  -1.087   0.010  0.00  0.00    +0.181 C 
ENDROOT
BRANCH  10   3
ATOM      3  O   UNL     1       1.925   2.521  -0.079  0.00  0.00    -0.388 OA
ATOM     23  H   UNL     1       1.757   2.540   0.879  0.00  0.00    +0.210 HD
ENDBRANCH  10   3
BRANCH   9   6
ATOM      6  N   UNL     1       4.226   0.387  -0.243  0.00  0.00    -0.302 NA
ATOM     22  H   UNL     1       4.452   1.376  -0.356  0.00  0.00    +0.123 HD
BRANCH   6  12
ATOM      2  O   UNL     1       6.980  -1.169   0.083  0.00  0.00    -0.377 OA
ATOM     12  C   UNL     1       5.127  -0.301   0.690  0.00  0.00    +0.106 C 
ATOM     15  C   UNL     1       6.558   0.173   0.440  0.00  0.00    +0.180 C 
ATOM     16  C   UNL     1       5.598  -1.611   0.059  0.00  0.00    +0.180 C 
ENDBRANCH   6  12
ENDBRANCH   9   6
BRANCH  11  14
ATOM     14  C   UNL     1      -0.530   0.771  -1.197  0.00  0.00    +0.140 C 
BRANCH  14   7
ATOM      4  O   UNL     1      -6.457  -1.178   0.309  0.00  0.00    -0.377 OA
ATOM      5  O   UNL     1      -2.581   1.897   0.367  0.00  0.00    -0.253 OA
ATOM      7  N   UNL     1      -1.769   0.119  -0.834  0.00  0.00    -0.297 N 
ATOM      8  N   UNL     1      -3.881  -0.018   0.218  0.00  0.00    -0.281 N 
ATOM     17  C   UNL     1      -2.734   0.746  -0.056  0.00  0.00    +0.302 C 
ATOM     18  C   UNL     1      -4.077  -1.437  -0.115  0.00  0.00    +0.137 C 
ATOM     19  C   UNL     1      -4.947   0.562   1.038  0.00  0.00    +0.137 C 
ATOM     20  C   UNL     1      -5.495  -1.685  -0.617  0.00  0.00    +0.179 C 
ATOM     21  C   UNL     1      -6.316   0.236   0.463  0.00  0.00    +0.179 C 
ATOM     24  H   UNL     1      -1.885  -0.828  -1.166  0.00  0.00    +0.150 HD
ENDBRANCH  14   7
ENDBRANCH  11  14
TORSDOF 5
