REMARK  Name = 40781599
REMARK  10 active torsions:
REMARK  status: ('A' for Active; 'I' for Inactive)
REMARK    1  A    between atoms: O_2  and  C_8
REMARK    2  A    between atoms: O_3  and  C_9
REMARK    3  A    between atoms: N_6  and  C_12
REMARK    4  A    between atoms: N_7  and  C_17
REMARK    5  A    between atoms: C_10  and  C_12
REMARK    6  A    between atoms: C_11  and  C_13
REMARK    7  A    between atoms: C_13  and  C_14
REMARK    8  A    between atoms: C_15  and  C_16
REMARK    9  A    between atoms: C_17  and  C_23
REMARK   10  A    between atoms: C_22  and  C_24
REMARK                            x       y       z     vdW  Elec       q    Type
REMARK                         _______ _______ _______ _____ _____    ______ ____
ROOT
ATOM      1  O   UNL     1      -2.566  -0.448  -0.881  0.00  0.00    -0.366 OA
ATOM      8  C   UNL     1      -3.368   0.746   0.987  0.00  0.00    +0.176 C 
ATOM      9  C   UNL     1      -3.563  -0.731   1.260  0.00  0.00    +0.175 C 
ATOM     10  C   UNL     1      -3.256   0.764  -0.528  0.00  0.00    +0.167 C 
ATOM     11  C   UNL     1      -2.635  -1.369   0.232  0.00  0.00    +0.158 C 
ENDROOT
BRANCH   8   2
ATOM      2  O   UNL     1      -4.436   1.546   1.448  0.00  0.00    -0.387 OA
ATOM     26  H   UNL     1      -4.528   1.387   2.403  0.00  0.00    +0.210 HD
ENDBRANCH   8   2
BRANCH   9   3
ATOM      3  O   UNL     1      -4.901  -1.120   0.949  0.00  0.00    -0.387 OA
ATOM     27  H   UNL     1      -4.968  -2.078   1.103  0.00  0.00    +0.210 HD
ENDBRANCH   9   3
BRANCH  10  12
ATOM     12  C   UNL     1      -2.490   1.962  -1.061  0.00  0.00    +0.138 C 
BRANCH  12   6
ATOM      5  O   UNL     1      -0.175   0.742  -2.243  0.00  0.00    -0.270 OA
ATOM      6  N   UNL     1      -1.152   1.991  -0.549  0.00  0.00    -0.309 N 
ATOM     15  C   UNL     1      -0.084   1.369  -1.191  0.00  0.00    +0.244 C 
ATOM     28  H   UNL     1      -0.996   2.539   0.290  0.00  0.00    +0.149 HD
BRANCH  15  16
ATOM     16  C   UNL     1       1.236   1.469  -0.517  0.00  0.00    +0.037 A 
ATOM     18  C   UNL     1       2.410   1.407  -1.269  0.00  0.00    +0.013 A 
ATOM     19  C   UNL     1       1.302   1.625   0.867  0.00  0.00    +0.013 A 
ATOM     20  C   UNL     1       3.649   1.500  -0.636  0.00  0.00    +0.004 A 
ATOM     21  C   UNL     1       2.542   1.718   1.500  0.00  0.00    +0.004 A 
ATOM     22  C   UNL     1       3.715   1.655   0.749  0.00  0.00    -0.050 A 
ATOM     24  C   UNL     1       5.041   1.755   1.425  0.00  0.00    +0.044 C 
ENDBRANCH  15  16
ENDBRANCH  12   6
ENDBRANCH  10  12
BRANCH  11  13
ATOM     13  C   UNL     1      -1.219  -1.575   0.754  0.00  0.00    +0.130 C 
BRANCH  13  14
ATOM      4  O   UNL     1      -0.629  -2.342  -1.463  0.00  0.00    -0.276 OA
ATOM      7  N   UNL     1       1.015  -2.243   0.177  0.00  0.00    -0.304 N 
ATOM     14  C   UNL     1      -0.274  -2.093  -0.314  0.00  0.00    +0.216 C 
ATOM     29  H   UNL     1       1.196  -2.001   1.147  0.00  0.00    +0.150 HD
BRANCH   7  17
ATOM     17  C   UNL     1       2.115  -2.722  -0.629  0.00  0.00    +0.193 C 
BRANCH  17  23
ATOM     23  C   UNL     1       3.352  -2.778   0.149  0.00  0.00    -0.087 C 
ATOM     25  C   UNL     1       4.370  -2.825   0.785  0.00  0.00    +0.005 C 
ENDBRANCH  17  23
ENDBRANCH   7  17
ENDBRANCH  13  14
ENDBRANCH  11  13
TORSDOF 9
