REMARK  Name = 40780655
REMARK  12 active torsions:
REMARK  status: ('A' for Active; 'I' for Inactive)
REMARK    1  A    between atoms: O_3  and  C_10
REMARK    2  A    between atoms: O_4  and  C_11
REMARK    3  A    between atoms: N_7  and  C_15
REMARK    4  A    between atoms: N_8  and  C_18
REMARK    5  A    between atoms: N_9  and  C_23
REMARK    6  A    between atoms: N_9  and  C_31
REMARK    7  A    between atoms: N_9  and  C_32
REMARK    8  A    between atoms: C_12  and  C_14
REMARK    9  A    between atoms: C_13  and  C_15
REMARK   10  A    between atoms: C_14  and  C_16
REMARK   11  A    between atoms: C_17  and  C_19
REMARK   12  A    between atoms: C_18  and  C_20
REMARK                            x       y       z     vdW  Elec       q    Type
REMARK                         _______ _______ _______ _____ _____    ______ ____
ROOT
ATOM      2  O   UNL     1      -2.870  -0.591   0.495  0.00  0.00    -0.366 OA
ATOM     10  C   UNL     1      -5.012  -0.946  -0.423  0.00  0.00    +0.175 C 
ATOM     11  C   UNL     1      -4.692  -2.120   0.479  0.00  0.00    +0.176 C 
ATOM     12  C   UNL     1      -4.062   0.114   0.109  0.00  0.00    +0.158 C 
ATOM     13  C   UNL     1      -3.180  -1.996   0.636  0.00  0.00    +0.167 C 
ENDROOT
BRANCH  10   3
ATOM      3  O   UNL     1      -6.360  -0.534  -0.349  0.00  0.00    -0.387 OA
ATOM     33  H   UNL     1      -6.911  -1.297  -0.593  0.00  0.00    +0.210 HD
ENDBRANCH  10   3
BRANCH  11   4
ATOM      4  O   UNL     1      -5.288  -1.935   1.762  0.00  0.00    -0.387 OA
ATOM     34  H   UNL     1      -5.026  -2.691   2.316  0.00  0.00    +0.210 HD
ENDBRANCH  11   4
BRANCH  12  14
ATOM     14  C   UNL     1      -3.716   1.181  -0.915  0.00  0.00    +0.130 C 
BRANCH  14  16
ATOM      5  O   UNL     1      -3.756   3.384   0.083  0.00  0.00    -0.276 OA
ATOM      8  N   UNL     1      -1.719   2.299  -0.185  0.00  0.00    -0.311 N 
ATOM     16  C   UNL     1      -3.097   2.415  -0.284  0.00  0.00    +0.216 C 
ATOM     36  H   UNL     1      -1.275   1.443  -0.509  0.00  0.00    +0.149 HD
BRANCH   8  18
ATOM     18  C   UNL     1      -0.878   3.331   0.376  0.00  0.00    +0.139 C 
BRANCH  18  20
ATOM      1  F   UNL     1       4.564   1.871   0.314  0.00  0.00    -0.205 F 
ATOM     20  C   UNL     1       0.576   2.941   0.359  0.00  0.00    -0.030 A 
ATOM     26  C   UNL     1       1.129   2.264   1.446  0.00  0.00    +0.008 A 
ATOM     27  C   UNL     1       1.371   3.257  -0.743  0.00  0.00    +0.008 A 
ATOM     28  C   UNL     1       2.476   1.903   1.431  0.00  0.00    +0.038 A 
ATOM     29  C   UNL     1       2.718   2.896  -0.758  0.00  0.00    +0.038 A 
ATOM     30  C   UNL     1       3.270   2.219   0.329  0.00  0.00    +0.123 A 
ENDBRANCH  18  20
ENDBRANCH   8  18
ENDBRANCH  14  16
ENDBRANCH  12  14
BRANCH  13  15
ATOM     15  C   UNL     1      -2.406  -2.754  -0.433  0.00  0.00    +0.138 C 
BRANCH  15   7
ATOM      6  O   UNL     1      -0.734  -0.707  -1.555  0.00  0.00    -0.270 OA
ATOM      7  N   UNL     1      -0.992  -2.608  -0.249  0.00  0.00    -0.309 N 
ATOM     17  C   UNL     1      -0.257  -1.580  -0.834  0.00  0.00    +0.244 C 
ATOM     35  H   UNL     1      -0.527  -3.330   0.291  0.00  0.00    +0.149 HD
BRANCH  17  19
ATOM     19  C   UNL     1       1.204  -1.583  -0.568  0.00  0.00    +0.037 A 
ATOM     21  C   UNL     1       2.082  -1.009  -1.487  0.00  0.00    +0.015 A 
ATOM     22  C   UNL     1       1.700  -2.161   0.601  0.00  0.00    +0.015 A 
ATOM     23  C   UNL     1       3.949  -1.591  -0.069  0.00  0.00    +0.029 A 
ATOM     24  C   UNL     1       3.454  -1.012  -1.238  0.00  0.00    +0.024 A 
ATOM     25  C   UNL     1       3.072  -2.165   0.851  0.00  0.00    +0.024 A 
BRANCH  23   9
ATOM      9  N   UNL     1       5.337  -1.594   0.184  0.00  0.00    -0.336 N 
ATOM     31  C   UNL     1       6.258  -1.000  -0.764  0.00  0.00    +0.129 C 
ATOM     32  C   UNL     1       5.859  -2.186   1.399  0.00  0.00    +0.129 C 
ENDBRANCH  23   9
ENDBRANCH  17  19
ENDBRANCH  15   7
ENDBRANCH  13  15
TORSDOF 10
