REMARK  Name = 51138169
REMARK  8 active torsions:
REMARK  status: ('A' for Active; 'I' for Inactive)
REMARK    1  A    between atoms: O_1  and  C_18
REMARK    2  A    between atoms: N_4  and  C_21
REMARK    3  A    between atoms: C_5  and  C_8
REMARK    4  A    between atoms: C_8  and  C_13
REMARK    5  A    between atoms: CA_9  and  C_18
REMARK    6  A    between atoms: C_13  and  C_19
REMARK    7  A    between atoms: C_13  and  C_20
REMARK    8  A    between atoms: C_21  and  C_22
REMARK                            x       y       z     vdW  Elec       q    Type
REMARK                         _______ _______ _______ _____ _____    ______ ____
ROOT
ATOM      3  N   UNL     1      -2.006   0.385  -0.348  0.00  0.00    -0.297 NA
ATOM      4  N   UNL     1       3.007   0.752   0.144  0.00  0.00    -0.343 N 
ATOM      5  C   UNL     1      -1.580  -0.852   0.321  0.00  0.00    +0.085 C 
ATOM      6  C   UNL     1      -0.067  -1.070   0.425  0.00  0.00    -0.021 A 
ATOM      7  C   UNL     1       0.922  -0.059   0.246  0.00  0.00    +0.008 A 
ATOM      9  CA  UNL     1      -1.617   1.611   0.334  0.00  0.00    +0.168 C 
ATOM     10  C   UNL     1       0.872   1.348  -0.045  0.00  0.00    -0.020 A 
ATOM     11  C   UNL     1      -0.336   2.199  -0.255  0.00  0.00    +0.067 C 
ATOM     12  C   UNL     1       2.276  -0.388   0.381  0.00  0.00    +0.050 A 
ATOM     14  C   UNL     1       2.174   1.802  -0.107  0.00  0.00    +0.091 A 
ATOM     15  C   UNL     1       0.410  -2.351   0.802  0.00  0.00    +0.006 A 
ATOM     16  C   UNL     1       2.727  -1.667   0.708  0.00  0.00    +0.026 A 
ATOM     17  C   UNL     1       1.766  -2.645   0.930  0.00  0.00    +0.002 A 
ATOM     24  H   UNL     1      -1.705   0.394  -1.322  0.00  0.00    +0.123 HD
ENDROOT
BRANCH   9  18
ATOM      2  OXT UNL     1      -3.465   2.576  -0.888  0.00  0.00    -0.249 OA
ATOM     18  C   UNL     1      -2.747   2.566   0.102  0.00  0.00    +0.322 C 
BRANCH  18   1
ATOM      1  O   UNL     1      -2.869   3.426   1.142  0.00  0.00    -0.480 OA
ATOM     25  H   UNL     1      -3.604   4.061   1.007  0.00  0.00    +0.295 HD
ENDBRANCH  18   1
ENDBRANCH   9  18
BRANCH   5   8
ATOM      8  C   UNL     1      -2.287  -1.978  -0.455  0.00  0.00    +0.026 C 
BRANCH   8  13
ATOM     13  C   UNL     1      -3.773  -2.103  -0.105  0.00  0.00    -0.015 C 
ATOM     19  C   UNL     1      -4.559  -0.827  -0.409  0.00  0.00    +0.007 C 
ATOM     20  C   UNL     1      -4.375  -3.278  -0.879  0.00  0.00    +0.007 C 
ENDBRANCH   8  13
ENDBRANCH   5   8
BRANCH   4  21
ATOM     21  C   UNL     1       4.451   0.848   0.173  0.00  0.00    +0.148 C 
BRANCH  21  22
ATOM     22  C   UNL     1       5.084   0.343  -1.090  0.00  0.00    -0.013 C 
ATOM     23  C   UNL     1       5.992  -0.638  -1.129  0.00  0.00    +0.005 C 
ENDBRANCH  21  22
ENDBRANCH   4  21
TORSDOF 6
