REMARK  Name = 28991037
REMARK  6 active torsions:
REMARK  status: ('A' for Active; 'I' for Inactive)
REMARK    1  A    between atoms: S_1  and  N_8
REMARK    2  A    between atoms: S_1  and  C_22
REMARK    3  A    between atoms: N_7  and  C_16
REMARK    4  A    between atoms: N_8  and  C_17
REMARK    5  A    between atoms: C_10  and  C_16
REMARK    6  A    between atoms: C_11  and  C_17
REMARK                            x       y       z     vdW  Elec       q    Type
REMARK                         _______ _______ _______ _____ _____    ______ ____
ROOT
ATOM      6  N   UNL     1       0.293   2.626  -1.170  0.00  0.00    -0.298 NA
ATOM      9  C   UNL     1       1.148   2.492   1.284  0.00  0.00    -0.003 C 
ATOM     10  C   UNL     1       1.944   1.534   0.369  0.00  0.00    +0.020 C 
ATOM     11  C   UNL     1      -0.847   2.383  -0.245  0.00  0.00    +0.072 C 
ATOM     12  C   UNL     1      -0.351   2.150   1.199  0.00  0.00    +0.024 C 
ATOM     13  C   UNL     1       1.302   1.547  -1.036  0.00  0.00    +0.089 C 
ATOM     14  C   UNL     1       1.325   3.910   0.708  0.00  0.00    +0.019 C 
ATOM     15  C   UNL     1       0.932   3.906  -0.780  0.00  0.00    +0.085 C 
ENDROOT
BRANCH  10  16
ATOM     16  C   UNL     1       2.048   0.116   0.927  0.00  0.00    +0.089 C 
BRANCH  16   7
ATOM      3  O   UNL     1       4.904  -2.686  -0.339  0.00  0.00    -0.377 OA
ATOM      7  N   UNL     1       2.886  -0.721   0.072  0.00  0.00    -0.298 NA
ATOM     18  C   UNL     1       2.635  -2.146   0.328  0.00  0.00    +0.112 C 
ATOM     19  C   UNL     1       4.309  -0.416   0.277  0.00  0.00    +0.112 C 
ATOM     20  C   UNL     1       3.530  -2.999  -0.566  0.00  0.00    +0.175 C 
ATOM     21  C   UNL     1       5.164  -1.310  -0.618  0.00  0.00    +0.175 C 
ENDBRANCH  16   7
ENDBRANCH  10  16
BRANCH  11  17
ATOM     17  C   UNL     1      -1.754   1.247  -0.724  0.00  0.00    +0.124 C 
BRANCH  17   8
ATOM      8  N   UNL     1      -2.937   1.144   0.115  0.00  0.00    -0.188 NA
ATOM     26  H   UNL     1      -2.755   1.288   1.116  0.00  0.00    +0.148 HD
BRANCH   8   1
ATOM      1  S   UNL     1      -4.138  -0.034  -0.208  0.00  0.00    +0.065 S 
ATOM      4  O   UNL     1      -4.566   0.095  -1.587  0.00  0.00    -0.153 OA
ATOM      5  O   UNL     1      -5.117  -0.037   0.862  0.00  0.00    -0.153 OA
BRANCH   1  22
ATOM      2  S   UNL     1      -2.718  -1.919   1.531  0.00  0.00    -0.077 S 
ATOM     22  C   UNL     1      -3.210  -1.532  -0.063  0.00  0.00    +0.142 A 
ATOM     23  C   UNL     1      -2.790  -2.473  -0.977  0.00  0.00    +0.036 A 
ATOM     24  C   UNL     1      -2.054  -3.526  -0.360  0.00  0.00    +0.010 A 
ATOM     25  C   UNL     1      -1.940  -3.350   1.001  0.00  0.00    +0.047 A 
ENDBRANCH   1  22
ENDBRANCH   8   1
ENDBRANCH  17   8
ENDBRANCH  11  17
TORSDOF 6
