REMARK  Name = 45783343
REMARK  10 active torsions:
REMARK  status: ('A' for Active; 'I' for Inactive)
REMARK    1  A    between atoms: O_2  and  C_25
REMARK    2  A    between atoms: O_2  and  C_28
REMARK    3  A    between atoms: O_3  and  C_29
REMARK    4  A    between atoms: O_3  and  C_30
REMARK    5  A    between atoms: N_4  and  C_13
REMARK    6  A    between atoms: C_9  and  C_14
REMARK    7  A    between atoms: C_13  and  C_15
REMARK    8  A    between atoms: C_18  and  C_21
REMARK    9  A    between atoms: C_22  and  C_26
REMARK   10  A    between atoms: C_28  and  C_29
REMARK                            x       y       z     vdW  Elec       q    Type
REMARK                         _______ _______ _______ _____ _____    ______ ____
ROOT
ATOM      1  O   UNL     1      -2.612  -0.600   2.311  0.00  0.00    -0.336 OA
ATOM      5  N   UNL     1      -1.181  -0.939   0.621  0.00  0.00    -0.190 NA
ATOM      6  N   UNL     1      -1.342  -0.277   2.805  0.00  0.00    -0.056 NA
ATOM     14  C   UNL     1      -2.428  -0.980   1.019  0.00  0.00    +0.245 A 
ATOM     18  C   UNL     1      -0.552  -0.502   1.750  0.00  0.00    +0.202 A 
ENDROOT
BRANCH  18  21
ATOM      7  N   UNL     1       3.634   0.090   1.874  0.00  0.00    -0.221 NA
ATOM     21  C   UNL     1       0.867  -0.301   1.792  0.00  0.00    +0.029 A 
ATOM     23  C   UNL     1       1.642  -0.552   0.665  0.00  0.00    +0.079 A 
ATOM     24  C   UNL     1       1.475   0.145   2.961  0.00  0.00    +0.031 A 
ATOM     25  C   UNL     1       3.008  -0.343   0.757  0.00  0.00    +0.215 A 
ATOM     27  C   UNL     1       2.849   0.323   2.950  0.00  0.00    +0.115 A 
BRANCH  25   2
ATOM      2  O   UNL     1       3.793  -0.583  -0.341  0.00  0.00    -0.474 OA
BRANCH   2  28
ATOM     28  C   UNL     1       5.189  -0.352  -0.192  0.00  0.00    +0.258 C 
BRANCH  28  29
ATOM     29  C   UNL     1       5.888  -0.693  -1.494  0.00  0.00    +0.200 C 
BRANCH  29   3
ATOM      3  O   UNL     1       5.671  -2.067  -1.792  0.00  0.00    -0.380 OA
ATOM     30  C   UNL     1       6.287  -2.438  -3.017  0.00  0.00    +0.194 C 
ENDBRANCH  29   3
ENDBRANCH  28  29
ENDBRANCH   2  28
ENDBRANCH  25   2
ENDBRANCH  18  21
BRANCH  14   9
ATOM      4  N   UNL     1      -3.535  -1.159  -1.202  0.00  0.00    -0.287 NA
ATOM      9  C   UNL     1      -3.668  -1.384   0.251  0.00  0.00    +0.146 C 
ATOM     10  C   UNL     1      -3.990  -2.884   0.387  0.00  0.00    +0.030 C 
ATOM     11  C   UNL     1      -4.077  -3.403  -1.041  0.00  0.00    +0.017 C 
ATOM     12  C   UNL     1      -4.379  -2.160  -1.855  0.00  0.00    +0.085 C 
BRANCH   4  13
ATOM     13  C   UNL     1      -3.881   0.197  -1.608  0.00  0.00    +0.120 C 
BRANCH  13  15
ATOM     15  C   UNL     1      -2.758   1.165  -1.344  0.00  0.00    -0.033 A 
ATOM     16  C   UNL     1      -2.966   2.266  -0.513  0.00  0.00    +0.006 A 
ATOM     17  C   UNL     1      -1.509   0.960  -1.930  0.00  0.00    +0.006 A 
ATOM     19  C   UNL     1      -1.926   3.162  -0.269  0.00  0.00    +0.019 A 
ATOM     20  C   UNL     1      -0.468   1.857  -1.686  0.00  0.00    +0.019 A 
ATOM     22  C   UNL     1      -0.677   2.957  -0.855  0.00  0.00    +0.052 A 
BRANCH  22  26
ATOM      8  N   UNL     1       1.255   4.621  -0.401  0.00  0.00    -0.191 NA
ATOM     26  C   UNL     1       0.389   3.875  -0.605  0.00  0.00    +0.099 C 
ENDBRANCH  22  26
ENDBRANCH  13  15
ENDBRANCH   4  13
ENDBRANCH  14   9
TORSDOF 9
