REMARK  Name = 7144127
REMARK  2 active torsions:
REMARK  status: ('A' for Active; 'I' for Inactive)
REMARK    1  A    between atoms: C_14  and  C_19
REMARK    2  A    between atoms: C_16  and  C_20
REMARK                            x       y       z     vdW  Elec       q    Type
REMARK                         _______ _______ _______ _____ _____    ______ ____
ROOT
ATOM      3  O   UNL     1       3.095   1.940  -2.610  0.00  0.00    -0.268 OA
ATOM      4  O   UNL     1       3.437  -1.975   0.600  0.00  0.00    -0.270 OA
ATOM      5  N   UNL     1       1.970  -0.444   1.585  0.00  0.00    -0.297 N 
ATOM      6  N   UNL     1       1.790   1.756  -0.673  0.00  0.00    -0.311 N 
ATOM      7  C   UNL     1       2.837   1.880   1.666  0.00  0.00    +0.027 C 
ATOM      8  C   UNL     1       0.420   1.492   1.417  0.00  0.00    +0.054 C 
ATOM      9  C   UNL     1       1.465   2.379   2.094  0.00  0.00    +0.018 C 
ATOM     10  C   UNL     1       3.037   0.415   2.092  0.00  0.00    +0.113 C 
ATOM     11  C   UNL     1       2.968   2.059   0.152  0.00  0.00    +0.130 C 
ATOM     12  C   UNL     1       0.609   0.030   1.876  0.00  0.00    +0.117 C 
ATOM     13  C   UNL     1       0.511   1.577  -0.108  0.00  0.00    +0.034 A 
ATOM     14  C   UNL     1      -0.574   1.454  -0.916  0.00  0.00    +0.002 A 
ATOM     15  C   UNL     1       2.004   1.775  -2.063  0.00  0.00    +0.252 A 
ATOM     16  C   UNL     1       2.297  -1.581   0.842  0.00  0.00    +0.247 C 
ATOM     17  C   UNL     1      -0.392   1.466  -2.354  0.00  0.00    +0.015 A 
ATOM     18  C   UNL     1       0.808   1.599  -2.918  0.00  0.00    +0.071 A 
ENDROOT
BRANCH  14  19
ATOM      1 CL   UNL     1      -6.092   0.793   1.304  0.00  0.00    -0.084 Cl
ATOM     19  C   UNL     1      -1.938   1.290  -0.366  0.00  0.00    -0.016 A 
ATOM     21  C   UNL     1      -2.428   0.015  -0.100  0.00  0.00    +0.010 A 
ATOM     22  C   UNL     1      -2.723   2.413  -0.120  0.00  0.00    +0.010 A 
ATOM     25  C   UNL     1      -3.714  -0.139   0.417  0.00  0.00    +0.020 A 
ATOM     26  C   UNL     1      -4.009   2.259   0.398  0.00  0.00    +0.020 A 
ATOM     27  C   UNL     1      -4.505   0.983   0.666  0.00  0.00    +0.041 A 
ENDBRANCH  14  19
BRANCH  16  20
ATOM      2  F   UNL     1      -1.871  -4.623  -1.315  0.00  0.00    -0.205 F 
ATOM     20  C   UNL     1       1.203  -2.379   0.276  0.00  0.00    +0.037 A 
ATOM     23  C   UNL     1       0.720  -2.089  -0.998  0.00  0.00    +0.016 A 
ATOM     24  C   UNL     1       0.653  -3.424   1.015  0.00  0.00    +0.016 A 
ATOM     28  C   UNL     1      -0.320  -2.848  -1.536  0.00  0.00    +0.039 A 
ATOM     29  C   UNL     1      -0.386  -4.183   0.477  0.00  0.00    +0.039 A 
ATOM     30  C   UNL     1      -0.873  -3.894  -0.798  0.00  0.00    +0.123 A 
ENDBRANCH  16  20
TORSDOF 2
