REMARK  Name = 11883170
REMARK  10 active torsions:
REMARK  status: ('A' for Active; 'I' for Inactive)
REMARK    1  A    between atoms: O_2  and  C_12
REMARK    2  A    between atoms: O_3  and  C_17
REMARK    3  A    between atoms: N_6  and  C_24
REMARK    4  A    between atoms: C_7  and  C_15
REMARK    5  A    between atoms: C_9  and  C_17
REMARK    6  A    between atoms: C_9  and  C_18
REMARK    7  A    between atoms: C_10  and  C_20
REMARK    8  A    between atoms: C_20  and  C_21
REMARK    9  A    between atoms: C_22  and  C_23
REMARK   10  A    between atoms: C_24  and  C_29
REMARK                            x       y       z     vdW  Elec       q    Type
REMARK                         _______ _______ _______ _____ _____    ______ ____
ROOT
ATOM      1  S   UNL     1       1.067   2.513  -0.117  0.00  0.00    -0.072 S 
ATOM      5  N   UNL     1       1.584   0.011   0.290  0.00  0.00    -0.243 NA
ATOM      7  C   UNL     1      -2.209  -0.583   0.643  0.00  0.00    -0.020 C 
ATOM      8  C   UNL     1      -2.567   0.592  -0.370  0.00  0.00    +0.011 C 
ATOM      9  C   UNL     1      -4.096   0.933  -0.559  0.00  0.00    +0.021 C 
ATOM     10  C   UNL     1      -0.707  -1.044   0.353  0.00  0.00    +0.053 C 
ATOM     11  C   UNL     1      -3.148  -1.790   0.386  0.00  0.00    +0.010 C 
ATOM     12  C   UNL     1      -4.894  -0.386  -0.758  0.00  0.00    +0.123 C 
ATOM     13  C   UNL     1      -1.671   1.842  -0.131  0.00  0.00    +0.049 C 
ATOM     14  C   UNL     1      -4.624  -1.422   0.327  0.00  0.00    +0.032 C 
ATOM     15  C   UNL     1      -2.341  -0.159   2.127  0.00  0.00    +0.012 C 
ATOM     16  C   UNL     1       0.210   0.146   0.227  0.00  0.00    +0.056 A 
ATOM     18  C   UNL     1      -4.270   1.779  -1.852  0.00  0.00    +0.016 C 
ATOM     19  C   UNL     1      -0.243   1.429  -0.008  0.00  0.00    +0.014 A 
ATOM     22  C   UNL     1       2.138   1.193   0.130  0.00  0.00    +0.109 A 
ENDROOT
BRANCH  22  23
ATOM     23  C   UNL     1       3.558   1.450   0.144  0.00  0.00    +0.007 A 
ATOM     25  C   UNL     1       4.426   0.534   0.739  0.00  0.00    +0.010 A 
ATOM     26  C   UNL     1       4.062   2.614  -0.436  0.00  0.00    +0.010 A 
ATOM     27  C   UNL     1       5.798   0.782   0.753  0.00  0.00    +0.001 A 
ATOM     28  C   UNL     1       5.434   2.862  -0.421  0.00  0.00    +0.001 A 
ATOM     30  C   UNL     1       6.303   1.946   0.173  0.00  0.00    +0.000 A 
ENDBRANCH  22  23
BRANCH  12   2
ATOM      2  O   UNL     1      -6.296  -0.123  -0.803  0.00  0.00    -0.391 OA
ATOM     32  H   UNL     1      -6.502   0.261  -1.671  0.00  0.00    +0.210 HD
ENDBRANCH  12   2
BRANCH   9  17
ATOM     17  C   UNL     1      -4.708   1.781   0.578  0.00  0.00    +0.165 C 
BRANCH  17   3
ATOM      3  O   UNL     1      -6.063   2.011   0.263  0.00  0.00    -0.394 OA
ATOM     33  H   UNL     1      -6.113   2.811  -0.287  0.00  0.00    +0.209 HD
ENDBRANCH  17   3
ENDBRANCH   9  17
BRANCH  10  20
ATOM     20  C   UNL     1      -0.153  -2.076   1.345  0.00  0.00    +0.106 C 
BRANCH  20  21
ATOM      4  O   UNL     1       2.221  -2.457   1.613  0.00  0.00    -0.276 OA
ATOM      6  N   UNL     1       1.150  -3.205  -0.309  0.00  0.00    -0.304 N 
ATOM     21  C   UNL     1       1.208  -2.585   0.931  0.00  0.00    +0.214 C 
ATOM     34  H   UNL     1       0.256  -3.308  -0.780  0.00  0.00    +0.150 HD
BRANCH   6  24
ATOM     24  C   UNL     1       2.304  -3.785  -0.957  0.00  0.00    +0.193 C 
BRANCH  24  29
ATOM     29  C   UNL     1       2.983  -2.803  -1.802  0.00  0.00    -0.087 C 
ATOM     31  C   UNL     1       3.543  -2.000  -2.497  0.00  0.00    +0.005 C 
ENDBRANCH  24  29
ENDBRANCH   6  24
ENDBRANCH  20  21
ENDBRANCH  10  20
TORSDOF 8
