REMARK  Name = 7051087
REMARK  12 active torsions:
REMARK  status: ('A' for Active; 'I' for Inactive)
REMARK    1  A    between atoms: O_3  and  C_15
REMARK    2  A    between atoms: O_4  and  C_20
REMARK    3  A    between atoms: N_8  and  C_26
REMARK    4  A    between atoms: N_8  and  C_27
REMARK    5  A    between atoms: C_10  and  C_18
REMARK    6  A    between atoms: C_12  and  C_20
REMARK    7  A    between atoms: C_12  and  C_21
REMARK    8  A    between atoms: C_13  and  C_23
REMARK    9  A    between atoms: C_23  and  C_24
REMARK   10  A    between atoms: C_26  and  C_29
REMARK   11  A    between atoms: C_27  and  C_30
REMARK   12  A    between atoms: C_28  and  C_31
REMARK                            x       y       z     vdW  Elec       q    Type
REMARK                         _______ _______ _______ _____ _____    ______ ____
ROOT
ATOM      1  S   UNL     1       0.683   2.845   0.249  0.00  0.00    -0.057 S 
ATOM      6  O   UNL     1       3.957  -0.376  -0.277  0.00  0.00    -0.269 OA
ATOM      7  N   UNL     1       1.130   0.323  -0.119  0.00  0.00    -0.229 NA
ATOM      9  N   UNL     1       3.061   1.756   0.047  0.00  0.00    -0.260 N 
ATOM     10  C   UNL     1      -2.659  -0.273   0.278  0.00  0.00    -0.019 C 
ATOM     11  C   UNL     1      -3.027   1.153  -0.327  0.00  0.00    +0.011 C 
ATOM     12  C   UNL     1      -4.549   1.565  -0.315  0.00  0.00    +0.021 C 
ATOM     13  C   UNL     1      -1.192  -0.658  -0.224  0.00  0.00    +0.054 C 
ATOM     14  C   UNL     1      -3.654  -1.333  -0.260  0.00  0.00    +0.010 C 
ATOM     15  C   UNL     1      -5.405   0.378  -0.839  0.00  0.00    +0.123 C 
ATOM     16  C   UNL     1      -2.073   2.261   0.208  0.00  0.00    +0.049 C 
ATOM     17  C   UNL     1      -5.117  -0.935  -0.119  0.00  0.00    +0.032 C 
ATOM     18  C   UNL     1      -2.697  -0.297   1.826  0.00  0.00    +0.012 C 
ATOM     19  C   UNL     1      -0.240   0.498  -0.056  0.00  0.00    +0.058 A 
ATOM     21  C   UNL     1      -4.760   2.755  -1.295  0.00  0.00    +0.016 C 
ATOM     22  C   UNL     1      -0.657   1.802   0.118  0.00  0.00    +0.015 A 
ATOM     25  C   UNL     1       1.717   1.490   0.036  0.00  0.00    +0.165 A 
ATOM     28  C   UNL     1       4.117   0.830  -0.107  0.00  0.00    +0.256 C 
ATOM     37  H   UNL     1       3.300   2.734   0.189  0.00  0.00    +0.157 HD
ENDROOT
BRANCH  28  31
ATOM      2  S   UNL     1       5.643   3.084   0.284  0.00  0.00    -0.092 S 
ATOM     31  C   UNL     1       5.470   1.405  -0.004  0.00  0.00    +0.074 A 
ATOM     32  C   UNL     1       6.688   0.770  -0.108  0.00  0.00    +0.021 A 
ATOM     33  C   UNL     1       7.778   1.674   0.051  0.00  0.00    +0.008 A 
ATOM     34  C   UNL     1       7.351   2.966   0.270  0.00  0.00    +0.046 A 
ENDBRANCH  28  31
BRANCH  15   3
ATOM      3  O   UNL     1      -6.797   0.670  -0.721  0.00  0.00    -0.391 OA
ATOM     35  H   UNL     1      -7.289  -0.077  -1.101  0.00  0.00    +0.210 HD
ENDBRANCH  15   3
BRANCH  12  20
ATOM     20  C   UNL     1      -5.069   2.058   1.053  0.00  0.00    +0.165 C 
BRANCH  20   4
ATOM      4  O   UNL     1      -6.430   2.396   0.902  0.00  0.00    -0.394 OA
ATOM     36  H   UNL     1      -6.747   2.714   1.764  0.00  0.00    +0.209 HD
ENDBRANCH  20   4
ENDBRANCH  12  20
BRANCH  13  23
ATOM     23  C   UNL     1      -0.625  -1.946   0.390  0.00  0.00    +0.106 C 
BRANCH  23  24
ATOM      5  O   UNL     1       0.691  -2.118  -1.606  0.00  0.00    -0.276 OA
ATOM      8  N   UNL     1       0.956  -3.796  -0.026  0.00  0.00    -0.302 N 
ATOM     24  C   UNL     1       0.394  -2.611  -0.514  0.00  0.00    +0.216 C 
BRANCH   8  26
ATOM     26  C   UNL     1       0.588  -4.361   1.271  0.00  0.00    +0.104 C 
ATOM     29  C   UNL     1      -0.580  -5.317   1.147  0.00  0.00    +0.024 C 
ENDBRANCH   8  26
BRANCH   8  27
ATOM     27  C   UNL     1       1.951  -4.555  -0.773  0.00  0.00    +0.104 C 
ATOM     30  C   UNL     1       3.358  -4.102  -0.442  0.00  0.00    +0.024 C 
ENDBRANCH   8  27
ENDBRANCH  23  24
ENDBRANCH  13  23
TORSDOF 8
