REMARK  Name = 40779311
REMARK  10 active torsions:
REMARK  status: ('A' for Active; 'I' for Inactive)
REMARK    1  A    between atoms: O_2  and  C_29
REMARK    2  A    between atoms: N_6  and  C_16
REMARK    3  A    between atoms: N_7  and  C_28
REMARK    4  A    between atoms: C_10  and  C_17
REMARK    5  A    between atoms: C_11  and  C_16
REMARK    6  A    between atoms: C_18  and  C_21
REMARK    7  A    between atoms: C_18  and  C_24
REMARK    8  A    between atoms: C_21  and  C_26
REMARK    9  A    between atoms: C_24  and  C_29
REMARK   10  A    between atoms: C_27  and  C_30
REMARK                            x       y       z     vdW  Elec       q    Type
REMARK                         _______ _______ _______ _____ _____    ______ ____
ROOT
ATOM      5  N   UNL     1      -1.637   3.490   1.508  0.00  0.00    -0.297 NA
ATOM      9  C   UNL     1      -1.912   2.528  -0.898  0.00  0.00    +0.002 C 
ATOM     10  C   UNL     1      -2.920   1.872   0.082  0.00  0.00    +0.055 C 
ATOM     11  C   UNL     1      -0.315   3.069   0.972  0.00  0.00    +0.074 C 
ATOM     12  C   UNL     1      -0.477   2.322  -0.371  0.00  0.00    +0.024 C 
ATOM     13  C   UNL     1      -2.190   4.044  -0.866  0.00  0.00    +0.019 C 
ATOM     14  C   UNL     1      -2.577   2.339   1.520  0.00  0.00    +0.094 C 
ATOM     15  C   UNL     1      -2.184   4.527   0.597  0.00  0.00    +0.085 C 
ENDROOT
BRANCH  10  17
ATOM      7  N   UNL     1      -3.922  -0.158  -1.060  0.00  0.00    -0.270 N 
ATOM      8  N   UNL     1      -3.910  -1.501  -1.095  0.00  0.00    -0.168 NA
ATOM     17  C   UNL     1      -3.073   0.377  -0.136  0.00  0.00    +0.044 A 
ATOM     25  C   UNL     1      -2.463  -0.691   0.476  0.00  0.00    +0.056 A 
ATOM     27  C   UNL     1      -3.018  -1.821  -0.154  0.00  0.00    +0.128 A 
ATOM     28  C   UNL     1      -4.791   0.564  -1.961  0.00  0.00    +0.172 C 
BRANCH  27  30
ATOM      4  O   UNL     1      -1.783  -3.608   1.095  0.00  0.00    -0.461 OA
ATOM     30  C   UNL     1      -2.682  -3.224   0.152  0.00  0.00    +0.155 A 
ATOM     31  C   UNL     1      -3.229  -4.322  -0.470  0.00  0.00    +0.051 A 
ATOM     32  C   UNL     1      -2.628  -5.454   0.129  0.00  0.00    +0.042 A 
ATOM     33  C   UNL     1      -1.755  -4.966   1.075  0.00  0.00    +0.196 A 
ENDBRANCH  27  30
ENDBRANCH  10  17
BRANCH  11  16
ATOM     16  C   UNL     1       0.497   2.262   1.986  0.00  0.00    +0.123 C 
BRANCH  16   6
ATOM      1  O   UNL     1       1.687  -0.336   1.531  0.00  0.00    -0.276 OA
ATOM      6  N   UNL     1       1.809   1.986   1.487  0.00  0.00    -0.314 N 
ATOM     26  C   UNL     1       2.307   0.697   1.296  0.00  0.00    +0.214 C 
ATOM     34  H   UNL     1       2.417   2.780   1.307  0.00  0.00    +0.149 HD
BRANCH  26  21
ATOM     21  C   UNL     1       3.725   0.710   0.754  0.00  0.00    +0.103 C 
BRANCH  21  18
ATOM     18  C   UNL     1       4.043  -0.530  -0.094  0.00  0.00    -0.011 C 
ATOM     19  C   UNL     1       5.495  -0.472  -0.622  0.00  0.00    +0.008 C 
ATOM     20  C   UNL     1       3.980  -1.808   0.778  0.00  0.00    +0.008 C 
ATOM     22  C   UNL     1       6.281  -1.418   0.274  0.00  0.00    +0.001 C 
ATOM     23  C   UNL     1       5.294  -2.540   0.533  0.00  0.00    +0.001 C 
BRANCH  18  24
ATOM     24  C   UNL     1       3.050  -0.610  -1.259  0.00  0.00    +0.127 C 
BRANCH  24  29
ATOM      3  O   UNL     1       4.172   1.246  -2.372  0.00  0.00    -0.251 OA
ATOM     29  C   UNL     1       3.167   0.585  -2.159  0.00  0.00    +0.305 C 
BRANCH  29   2
ATOM      2  O   UNL     1       1.961   0.842  -2.727  0.00  0.00    -0.481 OA
ATOM     35  H   UNL     1       1.995   1.621  -3.322  0.00  0.00    +0.295 HD
ENDBRANCH  29   2
ENDBRANCH  24  29
ENDBRANCH  18  24
ENDBRANCH  21  18
ENDBRANCH  26  21
ENDBRANCH  16   6
ENDBRANCH  11  16
TORSDOF 9
