REMARK  Name = 56774078
REMARK  9 active torsions:
REMARK  status: ('A' for Active; 'I' for Inactive)
REMARK    1  A    between atoms: O_3  and  C_20
REMARK    2  A    between atoms: O_3  and  C_24
REMARK    3  A    between atoms: N_4  and  C_8
REMARK    4  A    between atoms: C_6  and  C_11
REMARK    5  A    between atoms: C_6  and  C_12
REMARK    6  A    between atoms: C_7  and  C_10
REMARK    7  A    between atoms: C_10  and  C_13
REMARK    8  A    between atoms: C_14  and  C_16
REMARK    9  A    between atoms: C_17  and  C_20
REMARK                            x       y       z     vdW  Elec       q    Type
REMARK                         _______ _______ _______ _____ _____    ______ ____
ROOT
ATOM      6  C   UNL     1      -0.424  -1.906   0.424  0.00  0.00    -0.013 C 
ATOM      7  C   UNL     1       1.000  -1.539  -0.044  0.00  0.00    +0.004 C 
ATOM      8  C   UNL     1      -0.947  -0.967  -0.683  0.00  0.00    +0.079 C 
ATOM      9  C   UNL     1       0.401  -0.222  -0.582  0.00  0.00    +0.027 C 
ATOM     11  C   UNL     1      -0.837  -3.351   0.212  0.00  0.00    +0.013 C 
ATOM     12  C   UNL     1      -0.719  -1.492   1.848  0.00  0.00    +0.013 C 
ENDROOT
BRANCH   8   4
ATOM      2  O   UNL     1      -3.691  -1.411  -1.434  0.00  0.00    -0.270 OA
ATOM      4  N   UNL     1      -2.111  -0.136  -0.319  0.00  0.00    -0.308 N 
ATOM     14  C   UNL     1      -3.420  -0.423  -0.728  0.00  0.00    +0.244 C 
ATOM     25  H   UNL     1      -1.943   0.715   0.211  0.00  0.00    +0.149 HD
BRANCH  14  16
ATOM     16  C   UNL     1      -4.470   0.475  -0.275  0.00  0.00    +0.037 A 
ATOM     18  C   UNL     1      -5.634   0.624  -1.028  0.00  0.00    +0.013 A 
ATOM     19  C   UNL     1      -4.314   1.186   0.915  0.00  0.00    +0.013 A 
ATOM     21  C   UNL     1      -6.642   1.485  -0.593  0.00  0.00    +0.001 A 
ATOM     22  C   UNL     1      -5.321   2.046   1.351  0.00  0.00    +0.001 A 
ATOM     23  C   UNL     1      -6.485   2.196   0.597  0.00  0.00    +0.000 A 
ENDBRANCH  14  16
ENDBRANCH   8   4
BRANCH   7  10
ATOM     10  C   UNL     1       2.056  -1.366   1.022  0.00  0.00    +0.063 C 
BRANCH  10  13
ATOM      1  O   UNL     1       5.235  -0.619  -0.514  0.00  0.00    -0.357 OA
ATOM      5  N   UNL     1       4.262  -1.506  -0.067  0.00  0.00    -0.083 NA
ATOM     13  C   UNL     1       3.296  -0.733   0.437  0.00  0.00    +0.084 A 
ATOM     15  C   UNL     1       3.600   0.635   0.337  0.00  0.00    +0.073 A 
ATOM     17  C   UNL     1       4.829   0.653  -0.268  0.00  0.00    +0.163 A 
BRANCH  17  20
ATOM     20  C   UNL     1       5.744   1.724  -0.680  0.00  0.00    +0.236 C 
BRANCH  20   3
ATOM      3  O   UNL     1       6.848   1.809   0.225  0.00  0.00    -0.375 OA
ATOM     24  C   UNL     1       7.745   2.839  -0.155  0.00  0.00    +0.194 C 
ENDBRANCH  20   3
ENDBRANCH  17  20
ENDBRANCH  10  13
ENDBRANCH   7  10
TORSDOF 6
