REMARK  Name = 25388474
REMARK  4 active torsions:
REMARK  status: ('A' for Active; 'I' for Inactive)
REMARK    1  A    between atoms: S_1  and  C_29
REMARK    2  A    between atoms: S_1  and  C_30
REMARK    3  A    between atoms: C_13  and  C_14
REMARK    4  A    between atoms: C_22  and  C_24
REMARK                            x       y       z     vdW  Elec       q    Type
REMARK                         _______ _______ _______ _____ _____    ______ ____
ROOT
ATOM      2  O   UNL     1      -3.267  -0.855   2.235  0.00  0.00    -0.275 OA
ATOM      3  O   UNL     1       1.381   1.697   1.522  0.00  0.00    -0.267 OA
ATOM      4  N   UNL     1      -3.415   0.645   0.467  0.00  0.00    -0.300 N 
ATOM      5  N   UNL     1      -0.494   1.899   0.150  0.00  0.00    -0.311 N 
ATOM      6  C   UNL     1      -2.674   2.982   0.946  0.00  0.00    +0.027 C 
ATOM      7  C   UNL     1      -2.514   2.096  -1.342  0.00  0.00    +0.054 C 
ATOM      8  C   UNL     1      -2.872   3.334  -0.523  0.00  0.00    +0.018 C 
ATOM      9  C   UNL     1      -3.581   1.805   1.346  0.00  0.00    +0.113 C 
ATOM     10  C   UNL     1      -3.464   0.940  -0.973  0.00  0.00    +0.117 C 
ATOM     11  C   UNL     1      -1.191   2.674   1.186  0.00  0.00    +0.130 C 
ATOM     12  C   UNL     1      -1.076   1.678  -1.101  0.00  0.00    +0.027 A 
ATOM     14  C   UNL     1      -3.306  -0.630   1.023  0.00  0.00    +0.219 C 
ATOM     17  C   UNL     1      -0.375   1.073  -2.072  0.00  0.00    +0.022 A 
ATOM     20  C   UNL     1       0.822   1.490   0.444  0.00  0.00    +0.259 A 
ATOM     22  C   UNL     1       1.569   0.782  -0.654  0.00  0.00    +0.047 A 
ATOM     23  C   UNL     1       0.965   0.615  -1.840  0.00  0.00    +0.015 A 
ENDROOT
BRANCH  14  13
ATOM     13  C   UNL     1      -3.228  -1.776   0.062  0.00  0.00    +0.075 C 
ATOM     15  C   UNL     1      -1.769  -2.040  -0.315  0.00  0.00    +0.013 C 
ATOM     16  C   UNL     1      -3.876  -3.009   0.693  0.00  0.00    +0.013 C 
ATOM     18  C   UNL     1      -1.636  -3.267  -1.213  0.00  0.00    +0.001 C 
ATOM     19  C   UNL     1      -3.738  -4.236  -0.204  0.00  0.00    +0.001 C 
ATOM     21  C   UNL     1      -2.283  -4.497  -0.582  0.00  0.00    +0.000 C 
ENDBRANCH  14  13
BRANCH  22  24
ATOM     24  C   UNL     1       2.935   0.271  -0.440  0.00  0.00    -0.013 A 
ATOM     25  C   UNL     1       3.984   0.733  -1.235  0.00  0.00    +0.010 A 
ATOM     26  C   UNL     1       3.179  -0.673   0.557  0.00  0.00    +0.010 A 
ATOM     27  C   UNL     1       5.277   0.251  -1.032  0.00  0.00    +0.015 A 
ATOM     28  C   UNL     1       4.471  -1.155   0.760  0.00  0.00    +0.015 A 
ATOM     29  C   UNL     1       5.521  -0.693  -0.034  0.00  0.00    +0.008 A 
BRANCH  29   1
ATOM      1  S   UNL     1       7.172  -1.310   0.224  0.00  0.00    -0.129 S 
ATOM     30  C   UNL     1       7.484  -0.822   1.944  0.00  0.00    +0.090 C 
ENDBRANCH  29   1
ENDBRANCH  22  24
TORSDOF 3
