REMARK  Name = 11912055
REMARK  8 active torsions:
REMARK  status: ('A' for Active; 'I' for Inactive)
REMARK    1  A    between atoms: N_4  and  C_17
REMARK    2  A    between atoms: C_6  and  C_12
REMARK    3  A    between atoms: C_7  and  C_11
REMARK    4  A    between atoms: C_11  and  C_13
REMARK    5  A    between atoms: C_12  and  C_15
REMARK    6  A    between atoms: C_14  and  C_16
REMARK    7  A    between atoms: C_17  and  C_20
REMARK    8  A    between atoms: C_20  and  C_22
REMARK                            x       y       z     vdW  Elec       q    Type
REMARK                         _______ _______ _______ _____ _____    ______ ____
ROOT
ATOM      1  O   UNL     1      -2.106  -2.409   1.259  0.00  0.00    -0.270 OA
ATOM      3  N   UNL     1      -0.926  -0.660   0.248  0.00  0.00    -0.297 N 
ATOM      6  C   UNL     1       1.240   1.262   0.626  0.00  0.00    +0.004 C 
ATOM      7  C   UNL     1      -0.170   1.689   0.141  0.00  0.00    +0.010 C 
ATOM      8  C   UNL     1       1.133  -0.042   1.441  0.00  0.00    +0.023 C 
ATOM      9  C   UNL     1      -0.888   0.545  -0.591  0.00  0.00    +0.112 C 
ATOM     10  C   UNL     1       0.381  -1.142   0.693  0.00  0.00    +0.108 C 
ATOM     14  C   UNL     1      -2.076  -1.375   0.593  0.00  0.00    +0.248 C 
ENDROOT
BRANCH  14  16
ATOM      5  N   UNL     1      -5.096  -0.800  -1.545  0.00  0.00    -0.263 NA
ATOM     16  C   UNL     1      -3.375  -0.857   0.144  0.00  0.00    +0.055 A 
ATOM     18  C   UNL     1      -4.097   0.029   0.930  0.00  0.00    +0.016 A 
ATOM     19  C   UNL     1      -3.908  -1.239  -1.073  0.00  0.00    +0.123 A 
ATOM     21  C   UNL     1      -5.324   0.503   0.478  0.00  0.00    +0.020 A 
ATOM     23  C   UNL     1      -5.775   0.062  -0.755  0.00  0.00    +0.111 A 
ENDBRANCH  14  16
BRANCH   7  11
ATOM     11  C   UNL     1      -0.151   2.951  -0.720  0.00  0.00    +0.002 C 
ATOM     13  C   UNL     1       0.583   4.077  -0.023  0.00  0.00    +0.004 C 
ENDBRANCH   7  11
BRANCH   6  12
ATOM     12  C   UNL     1       2.271   1.117  -0.500  0.00  0.00    +0.099 C 
BRANCH  12  15
ATOM      2  O   UNL     1       4.063   1.056   1.124  0.00  0.00    -0.276 OA
ATOM      4  N   UNL     1       4.326  -0.040  -0.908  0.00  0.00    -0.315 N 
ATOM     15  C   UNL     1       3.637   0.726   0.020  0.00  0.00    +0.213 C 
ATOM     24  H   UNL     1       3.892  -0.257  -1.800  0.00  0.00    +0.149 HD
BRANCH   4  17
ATOM     17  C   UNL     1       5.658  -0.550  -0.678  0.00  0.00    +0.104 C 
BRANCH  17  20
ATOM     20  C   UNL     1       5.648  -1.927  -0.025  0.00  0.00    +0.015 C 
ATOM     22  C   UNL     1       4.951  -2.978  -0.877  0.00  0.00    +0.005 C 
ENDBRANCH  17  20
ENDBRANCH   4  17
ENDBRANCH  12  15
ENDBRANCH   6  12
TORSDOF 6
