REMARK  Name = 11912266
REMARK  10 active torsions:
REMARK  status: ('A' for Active; 'I' for Inactive)
REMARK    1  A    between atoms: S_1  and  N_6
REMARK    2  A    between atoms: S_1  and  C_17
REMARK    3  A    between atoms: O_5  and  C_23
REMARK    4  A    between atoms: O_5  and  C_25
REMARK    5  A    between atoms: N_7  and  C_20
REMARK    6  A    between atoms: C_8  and  C_13
REMARK    7  A    between atoms: C_9  and  C_14
REMARK    8  A    between atoms: C_13  and  C_15
REMARK    9  A    between atoms: C_14  and  C_16
REMARK   10  A    between atoms: C_20  and  C_23
REMARK                            x       y       z     vdW  Elec       q    Type
REMARK                         _______ _______ _______ _____ _____    ______ ____
ROOT
ATOM      6  N   UNL     1       1.880  -1.084  -0.473  0.00  0.00    -0.176 NA
ATOM      8  C   UNL     1      -0.192  -1.558   0.814  0.00  0.00    +0.008 C 
ATOM      9  C   UNL     1      -0.959  -0.571  -0.100  0.00  0.00    +0.003 C 
ATOM     10  C   UNL     1      -0.280  -0.433  -1.471  0.00  0.00    +0.021 C 
ATOM     11  C   UNL     1       1.288  -1.152   0.896  0.00  0.00    +0.113 C 
ATOM     12  C   UNL     1       1.196  -0.074  -1.329  0.00  0.00    +0.110 C 
ENDROOT
BRANCH   6   1
ATOM      1  S   UNL     1       3.593  -1.052  -0.529  0.00  0.00    +0.061 S 
ATOM      2  O   UNL     1       4.021  -1.129  -1.909  0.00  0.00    -0.153 OA
ATOM      3  O   UNL     1       4.111  -1.966   0.466  0.00  0.00    -0.153 OA
BRANCH   1  17
ATOM     17  C   UNL     1       3.888   0.594   0.038  0.00  0.00    +0.105 A 
ATOM     18  C   UNL     1       4.049   0.844   1.401  0.00  0.00    +0.028 A 
ATOM     19  C   UNL     1       3.959   1.644  -0.878  0.00  0.00    +0.028 A 
ATOM     21  C   UNL     1       4.281   2.144   1.848  0.00  0.00    +0.002 A 
ATOM     22  C   UNL     1       4.192   2.944  -0.430  0.00  0.00    +0.002 A 
ATOM     24  C   UNL     1       4.353   3.195   0.933  0.00  0.00    +0.000 A 
ENDBRANCH   1  17
ENDBRANCH   6   1
BRANCH   8  13
ATOM     13  C   UNL     1      -0.325  -3.029   0.398  0.00  0.00    +0.002 C 
ATOM     15  C   UNL     1       0.358  -3.942   1.394  0.00  0.00    +0.004 C 
ENDBRANCH   8  13
BRANCH   9  14
ATOM     14  C   UNL     1      -2.437  -0.928  -0.263  0.00  0.00    +0.099 C 
BRANCH  14  16
ATOM      4  O   UNL     1      -2.811   1.394  -0.831  0.00  0.00    -0.276 OA
ATOM      7  N   UNL     1      -4.604  -0.085  -0.832  0.00  0.00    -0.313 N 
ATOM     16  C   UNL     1      -3.272   0.267  -0.671  0.00  0.00    +0.213 C 
ATOM     26  H   UNL     1      -4.887  -1.046  -0.663  0.00  0.00    +0.149 HD
BRANCH   7  20
ATOM     20  C   UNL     1      -5.629   0.858  -1.215  0.00  0.00    +0.132 C 
BRANCH  20  23
ATOM     23  C   UNL     1      -6.266   1.514  -0.004  0.00  0.00    +0.178 C 
BRANCH  23   5
ATOM      5  O   UNL     1      -6.888   0.519   0.799  0.00  0.00    -0.381 OA
ATOM     25  C   UNL     1      -7.505   1.086   1.947  0.00  0.00    +0.194 C 
ENDBRANCH  23   5
ENDBRANCH  20  23
ENDBRANCH   7  20
ENDBRANCH  14  16
ENDBRANCH   9  14
TORSDOF 8
