REMARK  Name = 26761953
REMARK  6 active torsions:
REMARK  status: ('A' for Active; 'I' for Inactive)
REMARK    1  A    between atoms: O_5  and  C_25
REMARK    2  A    between atoms: N_6  and  C_16
REMARK    3  A    between atoms: C_11  and  C_17
REMARK    4  A    between atoms: C_16  and  C_18
REMARK    5  A    between atoms: C_21  and  C_24
REMARK    6  A    between atoms: C_22  and  C_25
REMARK                            x       y       z     vdW  Elec       q    Type
REMARK                         _______ _______ _______ _____ _____    ______ ____
ROOT
ATOM      6  N   UNL     1       2.229  -1.030   0.734  0.00  0.00    -0.278 NA
ATOM      7  N   UNL     1       1.182  -4.603   0.674  0.00  0.00    -0.347 N 
ATOM      8  N   UNL     1       1.268  -4.367  -1.548  0.00  0.00    -0.240 NA
ATOM     11  C   UNL     1       1.654  -0.673  -0.599  0.00  0.00    +0.152 C 
ATOM     12  C   UNL     1       1.740  -1.873  -1.608  0.00  0.00    +0.086 C 
ATOM     13  C   UNL     1       1.598  -2.185   1.407  0.00  0.00    +0.140 C 
ATOM     14  C   UNL     1       1.435  -3.287   0.434  0.00  0.00    +0.053 A 
ATOM     15  C   UNL     1       1.478  -3.166  -0.933  0.00  0.00    +0.065 A 
ATOM     19  C   UNL     1       1.091  -5.214  -0.552  0.00  0.00    +0.197 A 
ATOM     31  H   UNL     1       1.077  -5.048   1.576  0.00  0.00    +0.167 HD
ENDROOT
BRANCH  11  17
ATOM      3  O   UNL     1       0.203   1.270  -0.997  0.00  0.00    -0.336 OA
ATOM      9  N   UNL     1      -0.872  -0.511  -0.166  0.00  0.00    -0.190 NA
ATOM     10  N   UNL     1      -1.139   1.650  -0.869  0.00  0.00    -0.056 NA
ATOM     17  C   UNL     1       0.274  -0.015  -0.562  0.00  0.00    +0.245 A 
ATOM     21  C   UNL     1      -1.708   0.547  -0.373  0.00  0.00    +0.202 A 
BRANCH  21  24
ATOM      1 CL   UNL     1      -6.308   2.859  -0.291  0.00  0.00    -0.081 Cl
ATOM      2  F   UNL     1      -7.141   0.227   0.788  0.00  0.00    -0.204 F 
ATOM     24  C   UNL     1      -3.109   0.469  -0.075  0.00  0.00    +0.024 A 
ATOM     26  C   UNL     1      -3.933   1.572  -0.300  0.00  0.00    +0.034 A 
ATOM     27  C   UNL     1      -3.647  -0.710   0.441  0.00  0.00    +0.014 A 
ATOM     28  C   UNL     1      -5.295   1.495  -0.010  0.00  0.00    +0.077 A 
ATOM     29  C   UNL     1      -5.010  -0.786   0.731  0.00  0.00    +0.040 A 
ATOM     30  C   UNL     1      -5.834   0.316   0.505  0.00  0.00    +0.142 A 
ENDBRANCH  21  24
ENDBRANCH  11  17
BRANCH   6  16
ATOM     16  C   UNL     1       2.375   0.103   1.642  0.00  0.00    +0.160 C 
BRANCH  16  18
ATOM      4  O   UNL     1       2.945   2.224   0.593  0.00  0.00    -0.461 OA
ATOM     18  C   UNL     1       3.413   1.079   1.157  0.00  0.00    +0.119 A 
ATOM     20  C   UNL     1       4.789   1.069   1.158  0.00  0.00    +0.046 A 
ATOM     22  C   UNL     1       4.033   2.952   0.230  0.00  0.00    +0.131 A 
ATOM     23  C   UNL     1       5.191   2.285   0.556  0.00  0.00    +0.047 A 
BRANCH  22  25
ATOM     25  C   UNL     1       3.765   4.248  -0.408  0.00  0.00    +0.230 C 
BRANCH  25   5
ATOM      5  O   UNL     1       3.333   4.055  -1.757  0.00  0.00    -0.387 OA
ATOM     32  H   UNL     1       3.168   4.938  -2.131  0.00  0.00    +0.210 HD
ENDBRANCH  25   5
ENDBRANCH  22  25
ENDBRANCH  16  18
ENDBRANCH   6  16
TORSDOF 6
