REMARK  Name = 11912395
REMARK  7 active torsions:
REMARK  status: ('A' for Active; 'I' for Inactive)
REMARK    1  A    between atoms: N_7  and  C_12
REMARK    2  A    between atoms: N_8  and  C_22
REMARK    3  A    between atoms: C_9  and  C_14
REMARK    4  A    between atoms: C_10  and  C_18
REMARK    5  A    between atoms: C_14  and  C_19
REMARK    6  A    between atoms: C_18  and  C_20
REMARK    7  A    between atoms: C_25  and  C_28
REMARK                            x       y       z     vdW  Elec       q    Type
REMARK                         _______ _______ _______ _____ _____    ______ ____
ROOT
ATOM      5  O   UNL     1       0.983   2.853  -0.221  0.00  0.00    -0.252 OA
ATOM      6  N   UNL     1      -0.348   1.379   0.962  0.00  0.00    -0.285 N 
ATOM      8  N   UNL     1       1.964   0.978   0.730  0.00  0.00    -0.269 N 
ATOM      9  C   UNL     1      -2.889   0.004   0.797  0.00  0.00    +0.004 C 
ATOM     10  C   UNL     1      -1.581  -0.766   1.115  0.00  0.00    +0.010 C 
ATOM     11  C   UNL     1      -2.614   1.299   0.011  0.00  0.00    +0.023 C 
ATOM     13  C   UNL     1      -0.576   0.184   1.788  0.00  0.00    +0.113 C 
ATOM     17  C   UNL     1      -1.559   2.161   0.704  0.00  0.00    +0.109 C 
ATOM     21  C   UNL     1       0.889   1.820   0.446  0.00  0.00    +0.306 C 
ATOM     30  H   UNL     1       1.935   0.427   1.580  0.00  0.00    +0.156 HD
ENDROOT
BRANCH   8  22
ATOM     22  C   UNL     1       3.128   0.777  -0.053  0.00  0.00    +0.035 A 
ATOM     23  C   UNL     1       4.116  -0.108   0.380  0.00  0.00    +0.035 A 
ATOM     24  C   UNL     1       3.286   1.464  -1.256  0.00  0.00    +0.023 A 
ATOM     25  C   UNL     1       5.261  -0.305  -0.392  0.00  0.00    +0.057 A 
ATOM     26  C   UNL     1       4.431   1.267  -2.028  0.00  0.00    +0.002 A 
ATOM     27  C   UNL     1       5.419   0.382  -1.595  0.00  0.00    +0.012 A 
BRANCH  25  28
ATOM      1  F   UNL     1       7.381  -1.344  -0.783  0.00  0.00    -0.166 F 
ATOM      2  F   UNL     1       6.860  -0.917   1.279  0.00  0.00    -0.166 F 
ATOM      3  F   UNL     1       5.854  -2.526   0.217  0.00  0.00    -0.166 F 
ATOM     28  C   UNL     1       6.318  -1.251   0.070  0.00  0.00    +0.417 C 
ENDBRANCH  25  28
ENDBRANCH   8  22
BRANCH  10  18
ATOM     18  C   UNL     1      -0.944  -1.446  -0.102  0.00  0.00    +0.002 C 
ATOM     20  C   UNL     1       0.273  -2.255   0.297  0.00  0.00    +0.004 C 
ENDBRANCH  10  18
BRANCH   9  14
ATOM     14  C   UNL     1      -3.929  -0.853   0.076  0.00  0.00    +0.099 C 
BRANCH  14  19
ATOM      4  O   UNL     1      -5.601   0.697   0.892  0.00  0.00    -0.276 OA
ATOM      7  N   UNL     1      -6.264  -1.120  -0.391  0.00  0.00    -0.312 N 
ATOM     19  C   UNL     1      -5.334  -0.318   0.254  0.00  0.00    +0.214 C 
ATOM     29  H   UNL     1      -5.955  -1.949  -0.893  0.00  0.00    +0.149 HD
BRANCH   7  12
ATOM     12  C   UNL     1      -7.670  -0.835  -0.377  0.00  0.00    +0.073 C 
ATOM     15  C   UNL     1      -8.576  -1.344  -1.460  0.00  0.00    +0.024 C 
ATOM     16  C   UNL     1      -8.278   0.123  -1.359  0.00  0.00    +0.024 C 
ENDBRANCH   7  12
ENDBRANCH  14  19
ENDBRANCH   9  14
TORSDOF 6
