REMARK  Name = 45783695
REMARK  8 active torsions:
REMARK  status: ('A' for Active; 'I' for Inactive)
REMARK    1  A    between atoms: O_2  and  C_21
REMARK    2  A    between atoms: O_2  and  C_22
REMARK    3  A    between atoms: N_3  and  C_11
REMARK    4  A    between atoms: C_7  and  C_13
REMARK    5  A    between atoms: C_11  and  C_12
REMARK    6  A    between atoms: C_12  and  C_14
REMARK    7  A    between atoms: C_12  and  C_15
REMARK    8  A    between atoms: C_16  and  C_17
REMARK                            x       y       z     vdW  Elec       q    Type
REMARK                         _______ _______ _______ _____ _____    ______ ____
ROOT
ATOM      1  O   UNL     1      -1.101  -0.066   2.045  0.00  0.00    -0.336 OA
ATOM      4  N   UNL     1      -0.419  -0.723   0.015  0.00  0.00    -0.190 NA
ATOM      5  N   UNL     1       0.281   0.157   2.007  0.00  0.00    -0.056 NA
ATOM     13  C   UNL     1      -1.432  -0.585   0.834  0.00  0.00    +0.245 A 
ATOM     16  C   UNL     1       0.610  -0.255   0.779  0.00  0.00    +0.204 A 
ENDROOT
BRANCH  16  17
ATOM      6  N   UNL     1       4.280   0.333   0.668  0.00  0.00    -0.221 NA
ATOM     17  C   UNL     1       1.956  -0.213   0.286  0.00  0.00    +0.041 A 
ATOM     18  C   UNL     1       2.262  -0.652  -0.997  0.00  0.00    +0.018 A 
ATOM     19  C   UNL     1       2.992   0.266   1.072  0.00  0.00    +0.126 A 
ATOM     20  C   UNL     1       3.576  -0.599  -1.449  0.00  0.00    +0.068 A 
ATOM     21  C   UNL     1       4.539  -0.102  -0.586  0.00  0.00    +0.214 A 
BRANCH  21   2
ATOM      2  O   UNL     1       5.842  -0.040  -1.008  0.00  0.00    -0.480 OA
ATOM     22  C   UNL     1       6.790   0.478  -0.082  0.00  0.00    +0.279 C 
ENDBRANCH  21   2
ENDBRANCH  16  17
BRANCH  13   7
ATOM      3  N   UNL     1      -3.469  -0.217  -0.548  0.00  0.00    -0.291 NA
ATOM      7  C   UNL     1      -2.893  -0.917   0.618  0.00  0.00    +0.146 C 
ATOM      8  C   UNL     1      -3.127  -2.412   0.330  0.00  0.00    +0.030 C 
ATOM      9  C   UNL     1      -4.533  -1.078  -1.064  0.00  0.00    +0.085 C 
ATOM     10  C   UNL     1      -3.892  -2.449  -0.985  0.00  0.00    +0.017 C 
BRANCH   3  11
ATOM     11  C   UNL     1      -3.951   1.122  -0.233  0.00  0.00    +0.088 C 
BRANCH  11  12
ATOM     12  C   UNL     1      -2.824   2.168  -0.236  0.00  0.00    -0.003 C 
ATOM     14  C   UNL     1      -3.318   3.565   0.152  0.00  0.00    +0.008 C 
ATOM     15  C   UNL     1      -2.170   2.220  -1.619  0.00  0.00    +0.008 C 
ENDBRANCH  11  12
ENDBRANCH   3  11
ENDBRANCH  13   7
TORSDOF 5
