REMARK  Name = 7127933
REMARK  12 active torsions:
REMARK  status: ('A' for Active; 'I' for Inactive)
REMARK    1  A    between atoms: S_1  and  C_20
REMARK    2  A    between atoms: S_1  and  C_27
REMARK    3  A    between atoms: N_8  and  C_12
REMARK    4  A    between atoms: N_9  and  C_18
REMARK    5  A    between atoms: N_10  and  C_22
REMARK    6  A    between atoms: C_13  and  C_16
REMARK    7  A    between atoms: C_17  and  C_20
REMARK    8  A    between atoms: C_18  and  C_21
REMARK    9  A    between atoms: C_18  and  C_23
REMARK   10  A    between atoms: C_21  and  C_24
REMARK   11  A    between atoms: C_22  and  C_25
REMARK   12  A    between atoms: C_22  and  C_26
REMARK                            x       y       z     vdW  Elec       q    Type
REMARK                         _______ _______ _______ _____ _____    ______ ____
ROOT
ATOM      4  O   UNL     1      -1.003   3.705   0.124  0.00  0.00    -0.275 OA
ATOM      7  N   UNL     1       0.750   2.441  -0.704  0.00  0.00    -0.287 N 
ATOM     12  C   UNL     1       2.264   0.820  -1.555  0.00  0.00    +0.094 C 
ATOM     13  C   UNL     1      -0.069   1.373  -1.258  0.00  0.00    +0.164 C 
ATOM     14  C   UNL     1       0.875   0.569  -2.149  0.00  0.00    +0.055 C 
ATOM     15  C   UNL     1       2.166   2.242  -1.013  0.00  0.00    +0.131 C 
ATOM     17  C   UNL     1       0.197   3.571  -0.122  0.00  0.00    +0.226 C 
ENDROOT
BRANCH  12   8
ATOM      5  O   UNL     1       3.644  -1.696  -1.863  0.00  0.00    -0.253 OA
ATOM      8  N   UNL     1       2.583  -0.129  -0.518  0.00  0.00    -0.295 N 
ATOM     10  N   UNL     1       3.433  -2.052   0.419  0.00  0.00    -0.297 N 
ATOM     19  C   UNL     1       3.256  -1.327  -0.756  0.00  0.00    +0.300 C 
ATOM     31  H   UNL     1       2.247   0.052   0.423  0.00  0.00    +0.151 HD
ATOM     33  H   UNL     1       3.144  -1.629   1.296  0.00  0.00    +0.150 HD
BRANCH  10  22
ATOM     22  C   UNL     1       4.101  -3.332   0.456  0.00  0.00    +0.068 C 
ATOM     25  C   UNL     1       3.512  -4.205   1.556  0.00  0.00    +0.027 C 
ATOM     26  C   UNL     1       5.602  -3.146   0.644  0.00  0.00    +0.027 C 
ENDBRANCH  10  22
ENDBRANCH  12   8
BRANCH  13  16
ATOM      3  O   UNL     1      -0.346   0.798   1.042  0.00  0.00    -0.274 OA
ATOM      9  N   UNL     1      -1.373  -0.518  -0.581  0.00  0.00    -0.302 N 
ATOM     16  C   UNL     1      -0.604   0.542  -0.131  0.00  0.00    +0.234 C 
ATOM     32  H   UNL     1      -1.494  -0.651  -1.581  0.00  0.00    +0.150 HD
BRANCH   9  18
ATOM     18  C   UNL     1      -1.985  -1.482   0.304  0.00  0.00    +0.163 C 
BRANCH  18  23
ATOM      6  O   UNL     1      -0.140  -2.955  -0.272  0.00  0.00    -0.274 OA
ATOM     11  N   UNL     1      -0.988  -3.039   1.861  0.00  0.00    -0.328 N 
ATOM     23  C   UNL     1      -0.952  -2.568   0.565  0.00  0.00    +0.231 C 
ATOM     34  H   UNL     1      -0.339  -3.755   2.172  0.00  0.00    +0.145 HD
ATOM     35  H   UNL     1      -1.661  -2.709   2.545  0.00  0.00    +0.145 HD
ENDBRANCH  18  23
BRANCH  18  21
ATOM     21  C   UNL     1      -3.261  -2.090  -0.290  0.00  0.00    +0.074 C 
BRANCH  21  24
ATOM      2  S   UNL     1      -5.854  -1.731   0.665  0.00  0.00    -0.102 S 
ATOM     24  C   UNL     1      -4.454  -1.174  -0.149  0.00  0.00    -0.008 A 
ATOM     28  C   UNL     1      -4.599   0.119  -0.601  0.00  0.00    +0.011 A 
ATOM     29  C   UNL     1      -5.877   0.660  -0.275  0.00  0.00    +0.008 A 
ATOM     30  C   UNL     1      -6.659  -0.241   0.414  0.00  0.00    +0.045 A 
ENDBRANCH  21  24
ENDBRANCH  18  21
ENDBRANCH   9  18
ENDBRANCH  13  16
BRANCH  17  20
ATOM     20  C   UNL     1       1.172   4.669   0.223  0.00  0.00    +0.164 C 
BRANCH  20   1
ATOM      1  S   UNL     1       1.745   4.383   1.903  0.00  0.00    -0.155 S 
ATOM     27  C   UNL     1       2.865   5.796   2.061  0.00  0.00    +0.085 C 
ENDBRANCH  20   1
ENDBRANCH  17  20
TORSDOF 9
