REMARK  Name = 26745446
REMARK  10 active torsions:
REMARK  status: ('A' for Active; 'I' for Inactive)
REMARK    1  A    between atoms: S_1  and  N_6
REMARK    2  A    between atoms: S_1  and  C_15
REMARK    3  A    between atoms: O_4  and  C_16
REMARK    4  A    between atoms: O_4  and  C_31
REMARK    5  A    between atoms: N_7  and  C_17
REMARK    6  A    between atoms: N_9  and  C_24
REMARK    7  A    between atoms: N_9  and  C_34
REMARK    8  A    between atoms: N_9  and  C_35
REMARK    9  A    between atoms: C_10  and  C_16
REMARK   10  A    between atoms: C_17  and  C_22
REMARK                            x       y       z     vdW  Elec       q    Type
REMARK                         _______ _______ _______ _____ _____    ______ ____
ROOT
ATOM      6  N   UNL     1       1.697   1.160   0.027  0.00  0.00    -0.157 NA
ATOM      7  N   UNL     1       1.896  -2.574  -0.057  0.00  0.00    -0.328 N 
ATOM      8  N   UNL     1       3.066  -2.328   1.831  0.00  0.00    -0.240 NA
ATOM     10  C   UNL     1       2.960   1.334   0.832  0.00  0.00    +0.194 C 
ATOM     11  C   UNL     1       1.560  -0.138  -0.730  0.00  0.00    +0.165 C 
ATOM     12  C   UNL     1       3.142   0.203   1.867  0.00  0.00    +0.089 C 
ATOM     13  C   UNL     1       2.044  -1.232   0.132  0.00  0.00    +0.057 A 
ATOM     14  C   UNL     1       2.768  -1.108   1.292  0.00  0.00    +0.066 A 
ATOM     18  C   UNL     1       2.527  -3.192   0.993  0.00  0.00    +0.200 A 
ENDROOT
BRANCH   6   1
ATOM      1  S   UNL     1       1.110   2.549  -0.787  0.00  0.00    +0.062 S 
ATOM      2  O   UNL     1       1.717   2.618  -2.098  0.00  0.00    -0.153 OA
ATOM      3  O   UNL     1       1.157   3.678   0.118  0.00  0.00    -0.153 OA
BRANCH   1  15
ATOM     15  C   UNL     1      -0.581   2.091  -0.997  0.00  0.00    +0.113 A 
ATOM     19  C   UNL     1      -1.487   2.010   0.073  0.00  0.00    +0.010 A 
ATOM     20  C   UNL     1      -0.992   1.806  -2.300  0.00  0.00    +0.029 A 
ATOM     21  C   UNL     1      -2.827   1.635  -0.181  0.00  0.00    +0.005 A 
ATOM     23  C   UNL     1      -1.091   2.292   1.391  0.00  0.00    +0.010 A 
ATOM     24  C   UNL     1      -3.733   1.554   0.889  0.00  0.00    +0.037 A 
ATOM     25  C   UNL     1      -2.310   1.437  -2.550  0.00  0.00    +0.003 A 
ATOM     26  C   UNL     1      -3.223   1.352  -1.499  0.00  0.00    +0.010 A 
ATOM     27  C   UNL     1      -2.004   2.207   2.442  0.00  0.00    +0.002 A 
ATOM     28  C   UNL     1      -3.322   1.838   2.192  0.00  0.00    +0.024 A 
BRANCH  24   9
ATOM      9  N   UNL     1      -5.086   1.184   0.690  0.00  0.00    -0.336 N 
ATOM     34  C   UNL     1      -6.084   2.195   0.421  0.00  0.00    +0.129 C 
ATOM     35  C   UNL     1      -5.476  -0.208   0.747  0.00  0.00    +0.129 C 
ENDBRANCH  24   9
ENDBRANCH   1  15
ENDBRANCH   6   1
BRANCH  10  16
ATOM      5  O   UNL     1       4.031   1.325  -1.321  0.00  0.00    -0.249 OA
ATOM     16  C   UNL     1       4.122   1.429  -0.106  0.00  0.00    +0.326 C 
BRANCH  16   4
ATOM      4  O   UNL     1       5.265   1.644   0.605  0.00  0.00    -0.467 OA
ATOM     31  C   UNL     1       6.461   1.756  -0.173  0.00  0.00    +0.280 C 
ENDBRANCH  16   4
ENDBRANCH  10  16
BRANCH   7  17
ATOM     17  C   UNL     1       1.217  -3.233  -1.146  0.00  0.00    +0.158 C 
BRANCH  17  22
ATOM     22  C   UNL     1      -0.153  -3.742  -0.776  0.00  0.00    -0.028 A 
ATOM     29  C   UNL     1      -0.284  -4.920  -0.040  0.00  0.00    +0.005 A 
ATOM     30  C   UNL     1      -1.290  -3.036  -1.168  0.00  0.00    +0.005 A 
ATOM     32  C   UNL     1      -1.551  -5.392   0.302  0.00  0.00    +0.000 A 
ATOM     33  C   UNL     1      -2.558  -3.507  -0.825  0.00  0.00    +0.000 A 
ATOM     36  C   UNL     1      -2.688  -4.685  -0.090  0.00  0.00    +0.000 A 
ENDBRANCH  17  22
ENDBRANCH   7  17
TORSDOF 7
