REMARK  Name = 7143831
REMARK  7 active torsions:
REMARK  status: ('A' for Active; 'I' for Inactive)
REMARK    1  A    between atoms: S_1  and  C_26
REMARK    2  A    between atoms: S_1  and  C_28
REMARK    3  A    between atoms: O_4  and  C_21
REMARK    4  A    between atoms: O_4  and  C_27
REMARK    5  A    between atoms: C_16  and  C_19
REMARK    6  A    between atoms: C_17  and  C_20
REMARK    7  A    between atoms: C_19  and  C_21
REMARK                            x       y       z     vdW  Elec       q    Type
REMARK                         _______ _______ _______ _____ _____    ______ ____
ROOT
ATOM      2  O   UNL     1      -0.922  -1.041   1.821  0.00  0.00    -0.267 OA
ATOM      3  O   UNL     1       3.385   2.074   1.235  0.00  0.00    -0.276 OA
ATOM      5  N   UNL     1       3.668   0.061   0.109  0.00  0.00    -0.300 N 
ATOM      6  N   UNL     1       0.920  -1.524   0.474  0.00  0.00    -0.311 N 
ATOM      7  C   UNL     1       3.241  -2.009   1.439  0.00  0.00    +0.027 C 
ATOM      8  C   UNL     1       2.901  -2.031  -0.996  0.00  0.00    +0.054 C 
ATOM      9  C   UNL     1       3.437  -2.845   0.180  0.00  0.00    +0.018 C 
ATOM     10  C   UNL     1       4.005  -0.678   1.327  0.00  0.00    +0.113 C 
ATOM     11  C   UNL     1       1.740  -1.795   1.663  0.00  0.00    +0.130 C 
ATOM     12  C   UNL     1       3.710  -0.726  -1.132  0.00  0.00    +0.117 C 
ATOM     13  C   UNL     1       1.430  -1.708  -0.813  0.00  0.00    +0.027 A 
ATOM     14  C   UNL     1       0.629  -1.571  -1.881  0.00  0.00    +0.022 A 
ATOM     15  C   UNL     1      -0.427  -1.179   0.701  0.00  0.00    +0.259 A 
ATOM     16  C   UNL     1       3.416   1.431   0.183  0.00  0.00    +0.218 C 
ATOM     17  C   UNL     1      -1.291  -0.996  -0.518  0.00  0.00    +0.047 A 
ATOM     18  C   UNL     1      -0.750  -1.204  -1.727  0.00  0.00    +0.015 A 
ENDROOT
BRANCH  17  20
ATOM     20  C   UNL     1      -2.702  -0.589  -0.399  0.00  0.00    -0.013 A 
ATOM     22  C   UNL     1      -3.701  -1.557  -0.289  0.00  0.00    +0.010 A 
ATOM     23  C   UNL     1      -3.041   0.765  -0.395  0.00  0.00    +0.010 A 
ATOM     24  C   UNL     1      -5.037  -1.172  -0.177  0.00  0.00    +0.015 A 
ATOM     25  C   UNL     1      -4.377   1.150  -0.283  0.00  0.00    +0.015 A 
ATOM     26  C   UNL     1      -5.375   0.182  -0.174  0.00  0.00    +0.008 A 
BRANCH  26   1
ATOM      1  S   UNL     1      -7.082   0.674  -0.032  0.00  0.00    -0.129 S 
ATOM     28  C   UNL     1      -7.057   1.660   1.492  0.00  0.00    +0.090 C 
ENDBRANCH  26   1
ENDBRANCH  17  20
BRANCH  16  19
ATOM     19  C   UNL     1       3.161   2.142  -1.122  0.00  0.00    +0.124 C 
BRANCH  19  21
ATOM     21  C   UNL     1       2.908   3.611  -0.857  0.00  0.00    +0.168 C 
BRANCH  21   4
ATOM      4  O   UNL     1       1.749   3.755  -0.045  0.00  0.00    -0.382 OA
ATOM     27  C   UNL     1       1.462   5.122   0.215  0.00  0.00    +0.194 C 
ENDBRANCH  21   4
ENDBRANCH  19  21
ENDBRANCH  16  19
TORSDOF 5
