REMARK  Name = 71693339
REMARK  11 active torsions:
REMARK  status: ('A' for Active; 'I' for Inactive)
REMARK    1  A    between atoms: O_2  and  C_13
REMARK    2  A    between atoms: N_5  and  C_11
REMARK    3  A    between atoms: N_6  and  C_23
REMARK    4  A    between atoms: N_7  and  C_28
REMARK    5  A    between atoms: C_9  and  C_13
REMARK    6  A    between atoms: C_10  and  C_15
REMARK    7  A    between atoms: C_11  and  C_12
REMARK    8  A    between atoms: C_12  and  C_17
REMARK    9  A    between atoms: C_12  and  C_18
REMARK   10  A    between atoms: C_24  and  C_25
REMARK   11  A    between atoms: C_27  and  C_29
REMARK                            x       y       z     vdW  Elec       q    Type
REMARK                         _______ _______ _______ _____ _____    ______ ____
ROOT
ATOM     15  C   UNL     1       1.014   0.691   0.132  0.00  0.00    -0.017 A 
ATOM     19  C   UNL     1       0.575  -0.385   0.904  0.00  0.00    +0.008 A 
ATOM     20  C   UNL     1       0.094   1.460  -0.580  0.00  0.00    +0.008 A 
ATOM     21  C   UNL     1      -0.784  -0.691   0.965  0.00  0.00    +0.023 A 
ATOM     22  C   UNL     1      -1.266   1.155  -0.519  0.00  0.00    +0.023 A 
ATOM     23  C   UNL     1      -1.705   0.079   0.254  0.00  0.00    +0.034 A 
ENDROOT
BRANCH  15  10
ATOM      1  O   UNL     1       2.896   1.387   1.386  0.00  0.00    -0.361 OA
ATOM      3  O   UNL     1       6.440   1.301   1.032  0.00  0.00    -0.273 OA
ATOM      5  N   UNL     1       4.819   0.167  -0.201  0.00  0.00    -0.291 N 
ATOM      9  C   UNL     1       3.382  -0.143  -0.400  0.00  0.00    +0.135 C 
ATOM     10  C   UNL     1       2.490   1.024   0.066  0.00  0.00    +0.171 C 
ATOM     14  C   UNL     1       5.259   1.100   0.740  0.00  0.00    +0.242 C 
ATOM     16  C   UNL     1       4.183   1.958   1.375  0.00  0.00    +0.256 C 
BRANCH   5  11
ATOM     11  C   UNL     1       5.805  -0.703  -0.837  0.00  0.00    +0.111 C 
BRANCH  11  12
ATOM     12  C   UNL     1       5.996  -2.020  -0.077  0.00  0.00    +0.000 C 
ATOM     17  C   UNL     1       6.988  -2.943  -0.788  0.00  0.00    +0.009 C 
ATOM     18  C   UNL     1       6.475  -1.739   1.348  0.00  0.00    +0.009 C 
ENDBRANCH  11  12
ENDBRANCH   5  11
BRANCH   9  13
ATOM     13  C   UNL     1       3.059  -0.523  -1.852  0.00  0.00    +0.181 C 
BRANCH  13   2
ATOM      2  O   UNL     1       3.284   0.610  -2.665  0.00  0.00    -0.393 OA
ATOM     30  H   UNL     1       3.054   0.361  -3.577  0.00  0.00    +0.209 HD
ENDBRANCH  13   2
ENDBRANCH   9  13
ENDBRANCH  15  10
BRANCH  23   6
ATOM      4  O   UNL     1      -4.050   1.401  -1.066  0.00  0.00    -0.268 OA
ATOM      6  N   UNL     1      -3.064  -0.227   0.315  0.00  0.00    -0.280 N 
ATOM     24  C   UNL     1      -4.126   0.427  -0.325  0.00  0.00    +0.266 C 
ATOM     31  H   UNL     1      -3.298  -1.022   0.905  0.00  0.00    +0.155 HD
BRANCH  24  25
ATOM      7  N   UNL     1      -6.645   0.538  -0.075  0.00  0.00    -0.262 N 
ATOM      8  N   UNL     1      -7.726  -0.224   0.166  0.00  0.00    -0.176 NA
ATOM     25  C   UNL     1      -5.471  -0.157  -0.085  0.00  0.00    +0.124 A 
ATOM     26  C   UNL     1      -5.808  -1.465   0.167  0.00  0.00    +0.057 A 
ATOM     27  C   UNL     1      -7.208  -1.446   0.313  0.00  0.00    +0.061 A 
ATOM     28  C   UNL     1      -6.815   1.956  -0.291  0.00  0.00    +0.173 C 
ATOM     29  C   UNL     1      -8.095  -2.587   0.596  0.00  0.00    +0.067 C 
ENDBRANCH  24  25
ENDBRANCH  23   6
TORSDOF 7
