REMARK  Name = 38029904
REMARK  9 active torsions:
REMARK  status: ('A' for Active; 'I' for Inactive)
REMARK    1  A    between atoms: N_2  and  C_13
REMARK    2  A    between atoms: C_4  and  C_8
REMARK    3  A    between atoms: C_6  and  C_11
REMARK    4  A    between atoms: C_7  and  C_12
REMARK    5  A    between atoms: C_8  and  C_14
REMARK    6  A    between atoms: C_8  and  C_15
REMARK    7  A    between atoms: C_9  and  C_19
REMARK    8  A    between atoms: C_11  and  C_18
REMARK    9  A    between atoms: C_12  and  C_23
REMARK                            x       y       z     vdW  Elec       q    Type
REMARK                         _______ _______ _______ _____ _____    ______ ____
ROOT
ATOM      4  C   UNL     1       1.987   0.897   0.432  0.00  0.00    -0.000 C 
ATOM      5  C   UNL     1       1.341  -0.098   1.408  0.00  0.00    +0.012 C 
ATOM      6  C   UNL     1       1.180  -1.499   0.790  0.00  0.00    +0.023 C 
ATOM      7  C   UNL     1       3.384   0.392  -0.009  0.00  0.00    +0.029 C 
ATOM      9  C   UNL     1       2.447  -1.958   0.097  0.00  0.00    -0.073 C 
ATOM     10  C   UNL     1       3.427  -1.101  -0.240  0.00  0.00    -0.023 C 
ATOM     19  C   UNL     1       2.583  -3.433  -0.159  0.00  0.00    +0.039 C 
ENDROOT
BRANCH   4   8
ATOM      8  C   UNL     1       2.062   2.284   1.079  0.00  0.00    -0.013 C 
ATOM     14  C   UNL     1       0.722   3.002   0.954  0.00  0.00    +0.007 C 
ATOM     15  C   UNL     1       2.480   2.167   2.541  0.00  0.00    +0.007 C 
ENDBRANCH   4   8
BRANCH   6  11
ATOM     11  C   UNL     1      -0.017  -1.547  -0.167  0.00  0.00    +0.103 C 
BRANCH  11  18
ATOM      1  O   UNL     1      -1.491  -2.050   1.685  0.00  0.00    -0.276 OA
ATOM      2  N   UNL     1      -2.327  -0.931  -0.173  0.00  0.00    -0.312 N 
ATOM     18  C   UNL     1      -1.336  -1.553   0.572  0.00  0.00    +0.214 C 
ATOM     24  H   UNL     1      -2.081  -0.510  -1.063  0.00  0.00    +0.149 HD
BRANCH   2  13
ATOM     13  C   UNL     1      -3.691  -0.793   0.286  0.00  0.00    +0.073 C 
ATOM     16  C   UNL     1      -3.866   0.486   1.113  0.00  0.00    +0.022 C 
ATOM     17  C   UNL     1      -4.675  -0.835  -0.888  0.00  0.00    +0.022 C 
ATOM     20  C   UNL     1      -3.812   1.749   0.254  0.00  0.00    +0.002 C 
ATOM     21  C   UNL     1      -4.619   0.431  -1.743  0.00  0.00    +0.002 C 
ATOM     22  C   UNL     1      -4.808   1.688  -0.901  0.00  0.00    +0.000 C 
ENDBRANCH   2  13
ENDBRANCH  11  18
ENDBRANCH   6  11
BRANCH   7  12
ATOM     12  C   UNL     1       3.862   1.118  -1.271  0.00  0.00    +0.126 C 
BRANCH  12  23
ATOM      3  N   UNL     1       2.221   0.702  -3.275  0.00  0.00    -0.197 NA
ATOM     23  C   UNL     1       2.944   0.882  -2.384  0.00  0.00    +0.063 C 
ENDBRANCH  12  23
ENDBRANCH   7  12
TORSDOF 6
