REMARK  Name = 45361091
REMARK  8 active torsions:
REMARK  status: ('A' for Active; 'I' for Inactive)
REMARK    1  A    between atoms: S_1  and  C_30
REMARK    2  A    between atoms: S_1  and  C_33
REMARK    3  A    between atoms: N_7  and  C_19
REMARK    4  A    between atoms: N_8  and  C_20
REMARK    5  A    between atoms: C_15  and  C_18
REMARK    6  A    between atoms: C_18  and  C_21
REMARK    7  A    between atoms: C_19  and  C_22
REMARK    8  A    between atoms: C_21  and  C_23
REMARK                            x       y       z     vdW  Elec       q    Type
REMARK                         _______ _______ _______ _____ _____    ______ ____
ROOT
ATOM      2  O   UNL     1       0.016  -0.114   1.438  0.00  0.00    -0.274 OA
ATOM      7  N   UNL     1       1.498   1.541  -0.098  0.00  0.00    -0.286 NA
ATOM      8  N   UNL     1      -2.005   2.156  -0.961  0.00  0.00    -0.296 NA
ATOM      9  N   UNL     1      -1.663   1.399   1.802  0.00  0.00    -0.312 N 
ATOM     11  C   UNL     1      -0.581   2.543  -0.851  0.00  0.00    +0.084 C 
ATOM     12  C   UNL     1       0.219   2.079   0.402  0.00  0.00    +0.161 C 
ATOM     13  C   UNL     1       0.299   2.022  -2.003  0.00  0.00    +0.036 C 
ATOM     14  C   UNL     1       1.700   2.089  -1.435  0.00  0.00    +0.087 C 
ATOM     15  C   UNL     1      -2.881   2.724   0.101  0.00  0.00    +0.074 C 
ATOM     16  C   UNL     1      -0.463   1.002   1.241  0.00  0.00    +0.232 C 
ATOM     17  C   UNL     1      -2.292   2.674   1.524  0.00  0.00    +0.123 C 
ATOM     20  C   UNL     1      -2.537   2.488  -2.293  0.00  0.00    +0.105 C 
ATOM     34  H   UNL     1      -2.128   0.756   2.435  0.00  0.00    +0.149 HD
ENDROOT
BRANCH  15  18
ATOM     18  C   UNL     1      -4.237   1.987   0.134  0.00  0.00    +0.029 C 
BRANCH  18  21
ATOM     21  C   UNL     1      -4.063   0.480   0.148  0.00  0.00    +0.097 C 
BRANCH  21  23
ATOM      3  O   UNL     1      -6.432   0.446   0.232  0.00  0.00    -0.276 OA
ATOM      4  O   UNL     1      -5.419  -4.342  -0.485  0.00  0.00    -0.377 OA
ATOM     10  N   UNL     1      -5.363  -1.615   0.225  0.00  0.00    -0.297 N 
ATOM     23  C   UNL     1      -5.395  -0.223   0.207  0.00  0.00    +0.216 C 
ATOM     26  C   UNL     1      -6.611  -2.376   0.277  0.00  0.00    +0.136 C 
ATOM     27  C   UNL     1      -4.152  -2.437   0.324  0.00  0.00    +0.136 C 
ATOM     31  C   UNL     1      -6.572  -3.528  -0.717  0.00  0.00    +0.179 C 
ATOM     32  C   UNL     1      -4.216  -3.591  -0.668  0.00  0.00    +0.179 C 
ENDBRANCH  21  23
ENDBRANCH  18  21
ENDBRANCH  15  18
BRANCH   7  19
ATOM     19  C   UNL     1       2.624   1.816   0.784  0.00  0.00    +0.120 C 
BRANCH  19  22
ATOM     22  C   UNL     1       3.766   0.862   0.551  0.00  0.00    -0.033 A 
ATOM     24  C   UNL     1       3.695  -0.442   1.040  0.00  0.00    +0.007 A 
ATOM     25  C   UNL     1       4.893   1.283  -0.155  0.00  0.00    +0.007 A 
ATOM     28  C   UNL     1       4.752  -1.326   0.824  0.00  0.00    +0.027 A 
ATOM     29  C   UNL     1       5.950   0.399  -0.371  0.00  0.00    +0.027 A 
ATOM     30  C   UNL     1       5.880  -0.905   0.118  0.00  0.00    +0.088 A 
BRANCH  30   1
ATOM      1  S   UNL     1       7.202  -2.013  -0.155  0.00  0.00    -0.006 S 
ATOM      5  O   UNL     1       8.422  -1.248  -0.372  0.00  0.00    -0.170 OA
ATOM      6  O   UNL     1       7.160  -3.026   0.890  0.00  0.00    -0.170 OA
ATOM     33  C   UNL     1       6.804  -2.804  -1.698  0.00  0.00    +0.200 C 
ENDBRANCH  30   1
ENDBRANCH  19  22
ENDBRANCH   7  19
TORSDOF 6
