REMARK  Name = 26742298
REMARK  6 active torsions:
REMARK  status: ('A' for Active; 'I' for Inactive)
REMARK    1  A    between atoms: O_3  and  C_21
REMARK    2  A    between atoms: O_3  and  C_27
REMARK    3  A    between atoms: O_4  and  C_28
REMARK    4  A    between atoms: C_15  and  C_20
REMARK    5  A    between atoms: C_17  and  C_21
REMARK    6  A    between atoms: C_27  and  C_28
REMARK                            x       y       z     vdW  Elec       q    Type
REMARK                         _______ _______ _______ _____ _____    ______ ____
ROOT
ATOM      1  O   UNL     1      -0.882  -3.000   2.871  0.00  0.00    -0.268 OA
ATOM      2  O   UNL     1       2.732  -2.063  -0.844  0.00  0.00    -0.273 OA
ATOM      6  N   UNL     1       0.639  -1.396  -1.602  0.00  0.00    -0.299 N 
ATOM      7  N   UNL     1      -1.320  -1.885   0.858  0.00  0.00    -0.311 N 
ATOM      8  C   UNL     1      -1.176  -3.090  -1.401  0.00  0.00    +0.027 C 
ATOM      9  C   UNL     1      -1.733  -0.698  -1.319  0.00  0.00    +0.054 C 
ATOM     10  C   UNL     1      -2.191  -2.053  -1.855  0.00  0.00    +0.018 C 
ATOM     11  C   UNL     1       0.225  -2.757  -1.942  0.00  0.00    +0.113 C 
ATOM     12  C   UNL     1      -1.198  -3.155   0.127  0.00  0.00    +0.130 C 
ATOM     13  C   UNL     1      -0.349  -0.354  -1.908  0.00  0.00    +0.117 C 
ATOM     14  C   UNL     1      -1.676  -0.685   0.211  0.00  0.00    +0.034 A 
ATOM     15  C   UNL     1      -1.925   0.430   0.945  0.00  0.00    +0.002 A 
ATOM     16  C   UNL     1      -1.177  -1.976   2.254  0.00  0.00    +0.252 A 
ATOM     17  C   UNL     1       1.918  -1.170  -1.094  0.00  0.00    +0.241 C 
ATOM     18  C   UNL     1      -1.784   0.376   2.387  0.00  0.00    +0.015 A 
ATOM     19  C   UNL     1      -1.420  -0.736   3.025  0.00  0.00    +0.071 A 
ENDROOT
BRANCH  15  20
ATOM     20  C   UNL     1      -2.321   1.708   0.312  0.00  0.00    -0.016 A 
ATOM     22  C   UNL     1      -1.344   2.619  -0.089  0.00  0.00    +0.008 A 
ATOM     23  C   UNL     1      -3.670   2.001   0.115  0.00  0.00    +0.008 A 
ATOM     24  C   UNL     1      -1.716   3.823  -0.687  0.00  0.00    +0.001 A 
ATOM     25  C   UNL     1      -4.043   3.205  -0.483  0.00  0.00    +0.001 A 
ATOM     26  C   UNL     1      -3.066   4.116  -0.884  0.00  0.00    +0.000 A 
ENDBRANCH  15  20
BRANCH  17  21
ATOM     21  C   UNL     1       2.298   0.266  -0.835  0.00  0.00    +0.256 C 
BRANCH  21   3
ATOM      3  O   UNL     1       3.599   0.248  -0.298  0.00  0.00    -0.359 OA
BRANCH   3  27
ATOM     27  C   UNL     1       4.077   1.561  -0.008  0.00  0.00    +0.280 C 
BRANCH  27  28
ATOM      5  O   UNL     1       6.095   0.456   0.773  0.00  0.00    -0.248 OA
ATOM     28  C   UNL     1       5.466   1.482   0.561  0.00  0.00    +0.331 C 
BRANCH  28   4
ATOM      4  O   UNL     1       5.941   2.728   0.812  0.00  0.00    -0.479 OA
ATOM     29  H   UNL     1       6.848   2.706   1.184  0.00  0.00    +0.295 HD
ENDBRANCH  28   4
ENDBRANCH  27  28
ENDBRANCH   3  27
ENDBRANCH  21   3
ENDBRANCH  17  21
TORSDOF 6
