REMARK  Name = 51137100
REMARK  3 active torsions:
REMARK  status: ('A' for Active; 'I' for Inactive)
REMARK    1  A    between atoms: N_2  and  C_6
REMARK    2  A    between atoms: C_5  and  C_6
REMARK    3  A    between atoms: C_7  and  C_16
REMARK                            x       y       z     vdW  Elec       q    Type
REMARK                         _______ _______ _______ _____ _____    ______ ____
ROOT
ATOM      2  N   UNL     1      -2.094   1.094  -0.066  0.00  0.00    -0.301 NA
ATOM      7  C   UNL     1       0.102   0.967   0.749  0.00  0.00    +0.070 C 
ATOM      8  C   UNL     1      -0.984   0.144   0.041  0.00  0.00    +0.095 C 
ATOM      9  C   UNL     1      -1.473   2.354  -0.474  0.00  0.00    +0.085 C 
ATOM     12  C   UNL     1      -0.241   2.430   0.418  0.00  0.00    +0.028 C 
ENDROOT
BRANCH   7  16
ATOM      1  F   UNL     1       6.972  -1.386   0.569  0.00  0.00    -0.205 F 
ATOM      3  N   UNL     1       2.383   0.086   1.313  0.00  0.00    -0.341 N 
ATOM      4  N   UNL     1       2.030   0.551  -0.832  0.00  0.00    -0.232 NA
ATOM     16  C   UNL     1       1.502   0.542   0.372  0.00  0.00    +0.113 A 
ATOM     17  C   UNL     1       3.558  -0.219   0.673  0.00  0.00    +0.069 A 
ATOM     18  C   UNL     1       3.312   0.080  -0.663  0.00  0.00    +0.089 A 
ATOM     19  C   UNL     1       4.777  -0.716   1.136  0.00  0.00    +0.066 A 
ATOM     20  C   UNL     1       4.331  -0.121  -1.609  0.00  0.00    +0.032 A 
ATOM     21  C   UNL     1       5.780  -0.911   0.181  0.00  0.00    +0.125 A 
ATOM     22  C   UNL     1       5.563  -0.620  -1.168  0.00  0.00    +0.040 A 
ATOM     23  H   UNL     1       2.205  -0.011   2.304  0.00  0.00    +0.167 HD
ENDBRANCH   7  16
BRANCH   2   6
ATOM      6  C   UNL     1      -3.115   0.650  -1.004  0.00  0.00    +0.088 C 
BRANCH   6   5
ATOM      5  C   UNL     1      -4.048  -0.368  -0.350  0.00  0.00    +0.003 C 
ATOM     10  C   UNL     1      -5.056  -0.913  -1.371  0.00  0.00    +0.005 C 
ATOM     11  C   UNL     1      -4.771   0.254   0.853  0.00  0.00    +0.005 C 
ATOM     13  C   UNL     1      -6.035  -1.893  -0.729  0.00  0.00    +0.000 C 
ATOM     14  C   UNL     1      -5.750  -0.729   1.491  0.00  0.00    +0.000 C 
ATOM     15  C   UNL     1      -6.745  -1.275   0.471  0.00  0.00    +0.000 C 
ENDBRANCH   6   5
ENDBRANCH   2   6
TORSDOF 3
