REMARK  Name = 45783584
REMARK  8 active torsions:
REMARK  status: ('A' for Active; 'I' for Inactive)
REMARK    1  A    between atoms: O_1  and  C_14
REMARK    2  A    between atoms: O_1  and  C_23
REMARK    3  A    between atoms: N_3  and  C_11
REMARK    4  A    between atoms: C_7  and  C_13
REMARK    5  A    between atoms: C_11  and  C_12
REMARK    6  A    between atoms: C_12  and  C_20
REMARK    7  A    between atoms: C_12  and  C_21
REMARK    8  A    between atoms: C_22  and  C_24
REMARK                            x       y       z     vdW  Elec       q    Type
REMARK                         _______ _______ _______ _____ _____    ______ ____
ROOT
ATOM      2  O   UNL     1       2.620   0.023  -2.049  0.00  0.00    -0.336 OA
ATOM      4  N   UNL     1       2.034  -0.793  -0.047  0.00  0.00    -0.190 NA
ATOM      5  N   UNL     1       1.224   0.119  -1.982  0.00  0.00    -0.056 NA
ATOM     13  C   UNL     1       3.016  -0.525  -0.870  0.00  0.00    +0.245 A 
ATOM     22  C   UNL     1       0.955  -0.381  -0.772  0.00  0.00    +0.204 A 
ENDROOT
BRANCH  22  24
ATOM      6  N   UNL     1      -2.749  -0.130  -0.583  0.00  0.00    -0.221 NA
ATOM     23  C   UNL     1      -2.947  -0.649   0.650  0.00  0.00    +0.215 A 
ATOM     24  C   UNL     1      -0.380  -0.485  -0.261  0.00  0.00    +0.041 A 
ATOM     25  C   UNL     1      -1.929  -1.099   1.474  0.00  0.00    +0.068 A 
ATOM     26  C   UNL     1      -0.623  -1.012   1.003  0.00  0.00    +0.018 A 
ATOM     27  C   UNL     1      -1.468  -0.061  -1.007  0.00  0.00    +0.126 A 
BRANCH  23   1
ATOM      1  O   UNL     1      -4.241  -0.724   1.091  0.00  0.00    -0.473 OA
BRANCH   1  14
ATOM     14  C   UNL     1      -5.248  -0.247   0.205  0.00  0.00    +0.175 C 
ATOM     15  C   UNL     1      -5.470   1.247   0.437  0.00  0.00    +0.044 C 
ATOM     16  C   UNL     1      -6.535  -1.045   0.414  0.00  0.00    +0.044 C 
ATOM     17  C   UNL     1      -6.609   1.785  -0.422  0.00  0.00    +0.004 C 
ATOM     18  C   UNL     1      -7.675  -0.507  -0.445  0.00  0.00    +0.004 C 
ATOM     19  C   UNL     1      -7.894   0.986  -0.216  0.00  0.00    +0.000 C 
ENDBRANCH   1  14
ENDBRANCH  23   1
ENDBRANCH  22  24
BRANCH  13   7
ATOM      3  N   UNL     1       5.037  -0.045   0.501  0.00  0.00    -0.291 NA
ATOM      7  C   UNL     1       4.505  -0.736  -0.691  0.00  0.00    +0.146 C 
ATOM      8  C   UNL     1       4.875  -2.216  -0.483  0.00  0.00    +0.030 C 
ATOM      9  C   UNL     1       6.182  -0.833   0.958  0.00  0.00    +0.085 C 
ATOM     10  C   UNL     1       5.664  -2.250   0.818  0.00  0.00    +0.017 C 
BRANCH   3  11
ATOM     11  C   UNL     1       5.393   1.345   0.248  0.00  0.00    +0.088 C 
BRANCH  11  12
ATOM     12  C   UNL     1       4.178   2.286   0.320  0.00  0.00    -0.003 C 
ATOM     20  C   UNL     1       4.539   3.738  -0.003  0.00  0.00    +0.008 C 
ATOM     21  C   UNL     1       3.547   2.209   1.713  0.00  0.00    +0.008 C 
ENDBRANCH  11  12
ENDBRANCH   3  11
ENDBRANCH  13   7
TORSDOF 6
