REMARK  Name = 7134566
REMARK  13 active torsions:
REMARK  status: ('A' for Active; 'I' for Inactive)
REMARK    1  A    between atoms: O_6  and  C_29
REMARK    2  A    between atoms: N_9  and  C_12
REMARK    3  A    between atoms: N_10  and  C_19
REMARK    4  A    between atoms: C_13  and  C_17
REMARK    5  A    between atoms: C_18  and  C_20
REMARK    6  A    between atoms: C_19  and  C_21
REMARK    7  A    between atoms: C_19  and  C_25
REMARK    8  A    between atoms: C_20  and  C_23
REMARK    9  A    between atoms: C_21  and  C_26
REMARK   10  A    between atoms: C_21  and  C_27
REMARK   11  A    between atoms: C_22  and  C_24
REMARK   12  A    between atoms: C_23  and  C_29
REMARK   13  A    between atoms: C_24  and  C_28
REMARK                            x       y       z     vdW  Elec       q    Type
REMARK                         _______ _______ _______ _____ _____    ______ ____
ROOT
ATOM      3  O   UNL     1      -3.757   2.814   1.333  0.00  0.00    -0.276 OA
ATOM      8  N   UNL     1      -1.909   1.625   0.564  0.00  0.00    -0.290 N 
ATOM     12  C   UNL     1       0.985   1.493   0.198  0.00  0.00    +0.077 C 
ATOM     13  C   UNL     1      -1.342   0.517  -0.223  0.00  0.00    +0.164 C 
ATOM     14  C   UNL     1       0.035   0.837  -0.808  0.00  0.00    +0.054 C 
ATOM     15  C   UNL     1       0.310   2.695   0.856  0.00  0.00    +0.041 C 
ATOM     16  C   UNL     1      -1.004   2.289   1.510  0.00  0.00    +0.110 C 
ATOM     18  C   UNL     1      -3.264   1.975   0.574  0.00  0.00    +0.217 C 
ENDROOT
BRANCH  13  17
ATOM      2  O   UNL     1      -1.672  -0.625   1.849  0.00  0.00    -0.274 OA
ATOM     10  N   UNL     1      -0.812  -1.805   0.035  0.00  0.00    -0.302 N 
ATOM     17  C   UNL     1      -1.309  -0.683   0.677  0.00  0.00    +0.234 C 
ATOM     34  H   UNL     1      -0.635  -1.767  -0.964  0.00  0.00    +0.150 HD
BRANCH  10  19
ATOM     19  C   UNL     1      -0.656  -3.085   0.688  0.00  0.00    +0.161 C 
BRANCH  19  25
ATOM      5  O   UNL     1      -2.274  -3.809  -0.977  0.00  0.00    -0.274 OA
ATOM     11  N   UNL     1      -1.666  -5.286   0.672  0.00  0.00    -0.328 N 
ATOM     25  C   UNL     1      -1.606  -4.073   0.020  0.00  0.00    +0.231 C 
ATOM     35  H   UNL     1      -2.266  -6.030   0.332  0.00  0.00    +0.145 HD
ATOM     36  H   UNL     1      -1.141  -5.480   1.519  0.00  0.00    +0.145 HD
ENDBRANCH  19  25
BRANCH  19  21
ATOM     21  C   UNL     1       0.803  -3.588   0.694  0.00  0.00    +0.012 C 
ATOM     26  C   UNL     1       1.769  -2.625   1.391  0.00  0.00    +0.009 C 
ATOM     27  C   UNL     1       1.291  -3.876  -0.729  0.00  0.00    +0.009 C 
ENDBRANCH  19  21
ENDBRANCH  10  19
ENDBRANCH  13  17
BRANCH  12   9
ATOM      4  O   UNL     1       3.594   1.607   1.406  0.00  0.00    -0.275 OA
ATOM      9  N   UNL     1       2.216   1.889  -0.442  0.00  0.00    -0.312 N 
ATOM     22  C   UNL     1       3.431   1.912   0.226  0.00  0.00    +0.218 C 
ATOM     33  H   UNL     1       2.170   2.215  -1.403  0.00  0.00    +0.149 HD
BRANCH  22  24
ATOM     24  C   UNL     1       4.585   2.345  -0.657  0.00  0.00    +0.138 C 
BRANCH  24  28
ATOM      1  S   UNL     1       7.184   1.487  -0.171  0.00  0.00    -0.101 S 
ATOM     28  C   UNL     1       5.589   1.229  -0.737  0.00  0.00    -0.001 A 
ATOM     30  C   UNL     1       5.414  -0.048  -1.224  0.00  0.00    +0.011 A 
ATOM     31  C   UNL     1       6.605  -0.824  -1.132  0.00  0.00    +0.008 A 
ATOM     32  C   UNL     1       7.645  -0.111  -0.578  0.00  0.00    +0.045 A 
ENDBRANCH  24  28
ENDBRANCH  22  24
ENDBRANCH  12   9
BRANCH  18  20
ATOM     20  C   UNL     1      -4.154   1.276  -0.423  0.00  0.00    +0.107 C 
BRANCH  20  23
ATOM     23  C   UNL     1      -5.579   1.770  -0.276  0.00  0.00    +0.129 C 
BRANCH  23  29
ATOM      7  O   UNL     1      -6.147   0.179  -2.003  0.00  0.00    -0.251 OA
ATOM     29  C   UNL     1      -6.509   1.040  -1.212  0.00  0.00    +0.305 C 
BRANCH  29   6
ATOM      6  O   UNL     1      -7.795   1.458  -1.101  0.00  0.00    -0.481 OA
ATOM     37  H   UNL     1      -8.389   0.984  -1.722  0.00  0.00    +0.295 HD
ENDBRANCH  29   6
ENDBRANCH  23  29
ENDBRANCH  20  23
ENDBRANCH  18  20
TORSDOF 11
