REMARK  Name = 26742081
REMARK  7 active torsions:
REMARK  status: ('A' for Active; 'I' for Inactive)
REMARK    1  A    between atoms: O_4  and  C_12
REMARK    2  A    between atoms: O_7  and  C_28
REMARK    3  A    between atoms: O_7  and  C_32
REMARK    4  A    between atoms: N_9  and  C_11
REMARK    5  A    between atoms: N_10  and  C_20
REMARK    6  A    between atoms: C_18  and  C_19
REMARK    7  A    between atoms: C_25  and  C_31
REMARK                            x       y       z     vdW  Elec       q    Type
REMARK                         _______ _______ _______ _____ _____    ______ ____
ROOT
ATOM      5  O   UNL     1      -2.856   2.916   0.507  0.00  0.00    -0.252 OA
ATOM      8  N   UNL     1      -3.541   1.047  -0.668  0.00  0.00    -0.284 N 
ATOM     10  N   UNL     1      -1.241   1.537  -0.434  0.00  0.00    -0.269 N 
ATOM     11  C   UNL     1      -3.113  -1.427  -0.465  0.00  0.00    +0.119 C 
ATOM     12  C   UNL     1      -3.997  -1.475   0.794  0.00  0.00    +0.136 C 
ATOM     13  C   UNL     1      -5.424  -0.944   0.627  0.00  0.00    +0.035 C 
ATOM     14  C   UNL     1      -3.298  -0.212  -1.384  0.00  0.00    +0.134 C 
ATOM     15  C   UNL     1      -5.523   0.578   0.761  0.00  0.00    +0.022 C 
ATOM     16  C   UNL     1      -4.952   1.354  -0.419  0.00  0.00    +0.109 C 
ATOM     17  C   UNL     1      -2.552   1.916  -0.146  0.00  0.00    +0.307 C 
ATOM     35  H   UNL     1      -1.090   0.684  -0.959  0.00  0.00    +0.156 HD
ENDROOT
BRANCH  10  20
ATOM     20  C   UNL     1      -0.042   2.193  -0.056  0.00  0.00    +0.035 A 
ATOM     23  C   UNL     1       1.192   1.666  -0.436  0.00  0.00    +0.035 A 
ATOM     24  C   UNL     1      -0.097   3.366   0.697  0.00  0.00    +0.023 A 
ATOM     25  C   UNL     1       2.371   2.312  -0.064  0.00  0.00    +0.057 A 
ATOM     29  C   UNL     1       1.082   4.012   1.069  0.00  0.00    +0.002 A 
ATOM     30  C   UNL     1       2.316   3.485   0.688  0.00  0.00    +0.012 A 
BRANCH  25  31
ATOM      1  F   UNL     1       3.916   0.487   0.002  0.00  0.00    -0.166 F 
ATOM      2  F   UNL     1       4.741   2.498  -0.026  0.00  0.00    -0.166 F 
ATOM      3  F   UNL     1       3.853   1.655  -1.823  0.00  0.00    -0.166 F 
ATOM     31  C   UNL     1       3.691   1.748  -0.470  0.00  0.00    +0.417 C 
ENDBRANCH  25  31
ENDBRANCH  10  20
BRANCH  11   9
ATOM      6  O   UNL     1      -1.035  -2.748  -1.940  0.00  0.00    -0.270 OA
ATOM      9  N   UNL     1      -1.724  -1.562  -0.071  0.00  0.00    -0.305 N 
ATOM     18  C   UNL     1      -0.796  -2.220  -0.857  0.00  0.00    +0.244 C 
ATOM     33  H   UNL     1      -1.425  -1.055   0.756  0.00  0.00    +0.149 HD
BRANCH  18  19
ATOM     19  C   UNL     1       0.579  -2.295  -0.300  0.00  0.00    +0.037 A 
ATOM     21  C   UNL     1       1.673  -2.402  -1.158  0.00  0.00    +0.016 A 
ATOM     22  C   UNL     1       0.775  -2.261   1.081  0.00  0.00    +0.016 A 
ATOM     26  C   UNL     1       2.965  -2.475  -0.635  0.00  0.00    +0.046 A 
ATOM     27  C   UNL     1       2.067  -2.333   1.603  0.00  0.00    +0.046 A 
ATOM     28  C   UNL     1       3.161  -2.440   0.745  0.00  0.00    +0.120 A 
BRANCH  28   7
ATOM      7  O   UNL     1       4.421  -2.511   1.256  0.00  0.00    -0.495 OA
ATOM     32  C   UNL     1       5.495  -2.618   0.322  0.00  0.00    +0.277 C 
ENDBRANCH  28   7
ENDBRANCH  18  19
ENDBRANCH  11   9
BRANCH  12   4
ATOM      4  O   UNL     1      -4.105  -2.847   1.199  0.00  0.00    -0.390 OA
ATOM     34  H   UNL     1      -4.551  -2.865   2.063  0.00  0.00    +0.210 HD
ENDBRANCH  12   4
TORSDOF 6
