REMARK  Name = 51136662
REMARK  9 active torsions:
REMARK  status: ('A' for Active; 'I' for Inactive)
REMARK    1  A    between atoms: O_2  and  C_17
REMARK    2  A    between atoms: O_4  and  C_26
REMARK    3  A    between atoms: O_4  and  C_32
REMARK    4  A    between atoms: C_7  and  C_12
REMARK    5  A    between atoms: C_8  and  C_13
REMARK    6  A    between atoms: C_12  and  C_14
REMARK    7  A    between atoms: C_13  and  C_17
REMARK    8  A    between atoms: C_15  and  C_18
REMARK    9  A    between atoms: C_18  and  C_23
REMARK                            x       y       z     vdW  Elec       q    Type
REMARK                         _______ _______ _______ _____ _____    ______ ____
ROOT
ATOM      1  O   UNL     1       0.110   3.452  -0.703  0.00  0.00    -0.275 OA
ATOM      5  N   UNL     1      -1.405   2.080   0.401  0.00  0.00    -0.301 N 
ATOM      7  C   UNL     1      -2.532  -0.111   0.726  0.00  0.00    +0.016 C 
ATOM      8  C   UNL     1      -3.785   0.472   0.025  0.00  0.00    +0.006 C 
ATOM      9  C   UNL     1      -3.414   1.606  -0.946  0.00  0.00    +0.023 C 
ATOM     10  C   UNL     1      -1.719   1.026   1.374  0.00  0.00    +0.112 C 
ATOM     11  C   UNL     1      -2.570   2.673  -0.256  0.00  0.00    +0.108 C 
ATOM     15  C   UNL     1      -0.125   2.546   0.101  0.00  0.00    +0.220 C 
ENDROOT
BRANCH   7  12
ATOM     12  C   UNL     1      -1.636  -0.949  -0.194  0.00  0.00    +0.061 C 
BRANCH  12  14
ATOM      6  N   UNL     1      -1.225  -2.265   1.772  0.00  0.00    -0.287 NA
ATOM     14  C   UNL     1      -0.766  -1.865   0.632  0.00  0.00    +0.044 C 
ATOM     16  C   UNL     1       0.567  -2.253   0.105  0.00  0.00    -0.001 A 
ATOM     19  C   UNL     1       1.487  -2.764   1.029  0.00  0.00    -0.033 A 
ATOM     20  C   UNL     1       1.079  -2.870   2.469  0.00  0.00    +0.059 C 
ATOM     21  C   UNL     1      -0.406  -3.203   2.547  0.00  0.00    +0.146 C 
ATOM     22  C   UNL     1       0.918  -2.113  -1.239  0.00  0.00    +0.013 A 
ATOM     24  C   UNL     1       2.772  -3.111   0.604  0.00  0.00    +0.050 A 
ATOM     25  C   UNL     1       2.198  -2.476  -1.657  0.00  0.00    +0.046 A 
ATOM     26  C   UNL     1       3.124  -2.971  -0.738  0.00  0.00    +0.120 A 
BRANCH  26   4
ATOM      4  O   UNL     1       4.375  -3.316  -1.153  0.00  0.00    -0.495 OA
ATOM     32  C   UNL     1       4.669  -3.146  -2.538  0.00  0.00    +0.277 C 
ENDBRANCH  26   4
ENDBRANCH  12  14
ENDBRANCH   7  12
BRANCH   8  13
ATOM     13  C   UNL     1      -4.626  -0.590  -0.682  0.00  0.00    +0.124 C 
BRANCH  13  17
ATOM      3  O   UNL     1      -6.522   0.934  -0.525  0.00  0.00    -0.251 OA
ATOM     17  C   UNL     1      -6.048  -0.138  -0.871  0.00  0.00    +0.305 C 
BRANCH  17   2
ATOM      2  O   UNL     1      -6.759  -1.111  -1.496  0.00  0.00    -0.481 OA
ATOM     33  H   UNL     1      -7.694  -0.849  -1.636  0.00  0.00    +0.295 HD
ENDBRANCH  17   2
ENDBRANCH  13  17
ENDBRANCH   8  13
BRANCH  15  18
ATOM     18  C   UNL     1       1.022   1.881   0.817  0.00  0.00    +0.131 C 
BRANCH  18  23
ATOM     23  C   UNL     1       2.323   2.510   0.428  0.00  0.00    -0.039 A 
ATOM     27  C   UNL     1       3.040   2.015  -0.661  0.00  0.00    +0.004 A 
ATOM     28  C   UNL     1       2.819   3.592   1.156  0.00  0.00    +0.004 A 
ATOM     29  C   UNL     1       4.253   2.602  -1.024  0.00  0.00    +0.000 A 
ATOM     30  C   UNL     1       4.032   4.179   0.794  0.00  0.00    +0.000 A 
ATOM     31  C   UNL     1       4.748   3.684  -0.296  0.00  0.00    +0.000 A 
ENDBRANCH  18  23
ENDBRANCH  15  18
TORSDOF 8
