REMARK  Name = 51137549
REMARK  9 active torsions:
REMARK  status: ('A' for Active; 'I' for Inactive)
REMARK    1  A    between atoms: O_5  and  C_21
REMARK    2  A    between atoms: O_5  and  C_29
REMARK    3  A    between atoms: N_6  and  C_14
REMARK    4  A    between atoms: N_9  and  C_26
REMARK    5  A    between atoms: N_9  and  C_30
REMARK    6  A    between atoms: N_9  and  C_31
REMARK    7  A    between atoms: C_10  and  C_15
REMARK    8  A    between atoms: C_14  and  C_16
REMARK    9  A    between atoms: C_18  and  C_20
REMARK                            x       y       z     vdW  Elec       q    Type
REMARK                         _______ _______ _______ _____ _____    ______ ____
ROOT
ATOM      6  N   UNL     1      -1.823  -1.629  -0.363  0.00  0.00    -0.297 NA
ATOM     10  C   UNL     1       0.077  -2.576   0.632  0.00  0.00    +0.092 C 
ATOM     11  C   UNL     1      -0.611  -1.631   1.632  0.00  0.00    +0.029 C 
ATOM     12  C   UNL     1      -0.529  -2.210  -0.729  0.00  0.00    +0.097 C 
ATOM     13  C   UNL     1      -1.539  -0.770   0.786  0.00  0.00    +0.085 C 
ENDROOT
BRANCH  10  15
ATOM      4  O   UNL     1       2.158  -1.316   0.351  0.00  0.00    -0.420 OA
ATOM      7  N   UNL     1       2.460  -3.467   0.886  0.00  0.00    -0.112 NA
ATOM      8  N   UNL     1       3.705  -2.880   0.759  0.00  0.00    -0.107 NA
ATOM     15  C   UNL     1       1.588  -2.518   0.640  0.00  0.00    +0.222 A 
ATOM     18  C   UNL     1       3.480  -1.625   0.446  0.00  0.00    +0.248 A 
BRANCH  18  20
ATOM     20  C   UNL     1       4.396  -0.550   0.194  0.00  0.00    +0.039 A 
ATOM     24  C   UNL     1       5.771  -0.773   0.269  0.00  0.00    +0.015 A 
ATOM     25  C   UNL     1       3.911   0.718  -0.127  0.00  0.00    +0.015 A 
ATOM     26  C   UNL     1       6.176   1.541  -0.297  0.00  0.00    +0.029 A 
ATOM     27  C   UNL     1       6.661   0.273   0.024  0.00  0.00    +0.024 A 
ATOM     28  C   UNL     1       4.801   1.763  -0.372  0.00  0.00    +0.024 A 
BRANCH  26   9
ATOM      9  N   UNL     1       7.076   2.598  -0.544  0.00  0.00    -0.336 N 
ATOM     30  C   UNL     1       8.507   2.377  -0.467  0.00  0.00    +0.129 C 
ATOM     31  C   UNL     1       6.583   3.917  -0.885  0.00  0.00    +0.129 C 
ENDBRANCH  26   9
ENDBRANCH  18  20
ENDBRANCH  10  15
BRANCH   6  14
ATOM     14  C   UNL     1      -2.434  -0.899  -1.464  0.00  0.00    +0.119 C 
BRANCH  14  16
ATOM     16  C   UNL     1      -3.909  -0.687  -1.245  0.00  0.00    -0.030 A 
ATOM     17  C   UNL     1      -4.382   0.563  -0.846  0.00  0.00    +0.051 A 
ATOM     19  C   UNL     1      -4.801  -1.741  -1.442  0.00  0.00    +0.005 A 
ATOM     21  C   UNL     1      -5.748   0.759  -0.643  0.00  0.00    +0.130 A 
ATOM     22  C   UNL     1      -6.167  -1.545  -1.238  0.00  0.00    +0.004 A 
ATOM     23  C   UNL     1      -6.641  -0.295  -0.839  0.00  0.00    +0.046 A 
BRANCH  21   5
ATOM      5  O   UNL     1      -6.210   1.978  -0.254  0.00  0.00    -0.406 OA
BRANCH   5  29
ATOM      1  F   UNL     1      -6.714   3.278   1.522  0.00  0.00    -0.133 F 
ATOM      2  F   UNL     1      -5.441   1.533   1.854  0.00  0.00    -0.133 F 
ATOM      3  F   UNL     1      -4.657   3.300   0.783  0.00  0.00    -0.133 F 
ATOM     29  C   UNL     1      -5.739   2.516   0.977  0.00  0.00    +0.575 C 
ENDBRANCH   5  29
ENDBRANCH  21   5
ENDBRANCH  14  16
ENDBRANCH   6  14
TORSDOF 7
