REMARK  Name = 26761859
REMARK  3 active torsions:
REMARK  status: ('A' for Active; 'I' for Inactive)
REMARK    1  A    between atoms: N_8  and  C_19
REMARK    2  A    between atoms: C_10  and  C_15
REMARK    3  A    between atoms: C_18  and  C_20
REMARK                            x       y       z     vdW  Elec       q    Type
REMARK                         _______ _______ _______ _____ _____    ______ ____
ROOT
ATOM      3  O   UNL     1      -2.066   0.933   1.656  0.00  0.00    -0.252 OA
ATOM      4  N   UNL     1      -0.807  -0.558   0.396  0.00  0.00    -0.267 N 
ATOM      5  N   UNL     1       0.381  -3.611  -1.413  0.00  0.00    -0.347 N 
ATOM      6  N   UNL     1       1.243  -4.188   0.565  0.00  0.00    -0.240 NA
ATOM      8  N   UNL     1      -2.764   0.420  -0.500  0.00  0.00    -0.269 N 
ATOM     10  C   UNL     1       0.256  -0.632   1.458  0.00  0.00    +0.172 C 
ATOM     11  C   UNL     1       0.589  -2.104   1.846  0.00  0.00    +0.089 C 
ATOM     12  C   UNL     1      -0.593  -1.321  -0.868  0.00  0.00    +0.165 C 
ATOM     13  C   UNL     1       0.655  -2.958   0.641  0.00  0.00    +0.066 A 
ATOM     14  C   UNL     1       0.114  -2.580  -0.562  0.00  0.00    +0.056 A 
ATOM     16  C   UNL     1      -1.911   0.314   0.601  0.00  0.00    +0.307 C 
ATOM     17  C   UNL     1       1.062  -4.556  -0.687  0.00  0.00    +0.197 A 
ATOM     31  H   UNL     1       0.129  -3.672  -2.390  0.00  0.00    +0.167 HD
ATOM     32  H   UNL     1      -2.367   0.267  -1.422  0.00  0.00    +0.156 HD
ENDROOT
BRANCH   8  19
ATOM      1 CL   UNL     1      -8.594   1.488  -0.453  0.00  0.00    -0.084 Cl
ATOM     19  C   UNL     1      -4.157   0.675  -0.488  0.00  0.00    +0.035 A 
ATOM     21  C   UNL     1      -4.862   0.749  -1.690  0.00  0.00    +0.025 A 
ATOM     22  C   UNL     1      -4.824   0.852   0.724  0.00  0.00    +0.025 A 
ATOM     25  C   UNL     1      -6.235   1.000  -1.679  0.00  0.00    +0.022 A 
ATOM     26  C   UNL     1      -6.196   1.104   0.735  0.00  0.00    +0.022 A 
ATOM     29  C   UNL     1      -6.901   1.178  -0.466  0.00  0.00    +0.041 A 
ENDBRANCH   8  19
BRANCH  10  15
ATOM      2  O   UNL     1       1.341   1.571   1.426  0.00  0.00    -0.336 OA
ATOM      7  N   UNL     1       2.559  -0.056   0.485  0.00  0.00    -0.190 NA
ATOM      9  N   UNL     1       2.527   2.175   0.992  0.00  0.00    -0.056 NA
ATOM     15  C   UNL     1       1.441   0.258   1.089  0.00  0.00    +0.249 A 
ATOM     18  C   UNL     1       3.193   1.152   0.448  0.00  0.00    +0.202 A 
BRANCH  18  20
ATOM     20  C   UNL     1       4.493   1.303  -0.139  0.00  0.00    +0.022 A 
ATOM     23  C   UNL     1       5.142   0.198  -0.691  0.00  0.00    +0.012 A 
ATOM     24  C   UNL     1       5.110   2.554  -0.158  0.00  0.00    +0.012 A 
ATOM     27  C   UNL     1       6.406   0.344  -1.261  0.00  0.00    +0.001 A 
ATOM     28  C   UNL     1       6.374   2.700  -0.728  0.00  0.00    +0.001 A 
ATOM     30  C   UNL     1       7.023   1.595  -1.280  0.00  0.00    +0.000 A 
ENDBRANCH  18  20
ENDBRANCH  10  15
TORSDOF 3
