REMARK  Name = 75536824
REMARK  7 active torsions:
REMARK  status: ('A' for Active; 'I' for Inactive)
REMARK    1  A    between atoms: O_3  and  C_10
REMARK    2  A    between atoms: N_5  and  C_8
REMARK    3  A    between atoms: N_5  and  C_9
REMARK    4  A    between atoms: N_6  and  C_18
REMARK    5  A    between atoms: N_7  and  C_17
REMARK    6  A    between atoms: C_11  and  C_17
REMARK    7  A    between atoms: C_19  and  C_20
REMARK                            x       y       z     vdW  Elec       q    Type
REMARK                         _______ _______ _______ _____ _____    ______ ____
ROOT
ATOM      2  O   UNL     1      -0.063   0.221  -0.997  0.00  0.00    -0.371 OA
ATOM      8  C   UNL     1      -2.175  -0.516  -0.200  0.00  0.00    +0.111 C 
ATOM     10  C   UNL     1      -1.191  -1.669  -0.132  0.00  0.00    +0.164 C 
ATOM     11  C   UNL     1       0.136  -0.924  -0.150  0.00  0.00    +0.165 C 
ATOM     14  C   UNL     1      -1.476   0.419  -1.173  0.00  0.00    +0.181 C 
ENDROOT
BRANCH  10   3
ATOM      3  O   UNL     1      -1.343  -2.449   1.038  0.00  0.00    -0.388 OA
ATOM     27  H   UNL     1      -1.258  -1.862   1.809  0.00  0.00    +0.210 HD
ENDBRANCH  10   3
BRANCH   8   5
ATOM      5  N   UNL     1      -3.503  -0.908  -0.645  0.00  0.00    -0.306 NA
ATOM     26  H   UNL     1      -3.787  -1.774  -0.188  0.00  0.00    +0.123 HD
BRANCH   5   9
ATOM      6  N   UNL     1      -7.159   0.933   0.499  0.00  0.00    -0.305 NA
ATOM      9  C   UNL     1      -4.476   0.145  -0.365  0.00  0.00    +0.056 C 
ATOM     12  C   UNL     1      -4.912   0.087   1.101  0.00  0.00    +0.034 C 
ATOM     13  C   UNL     1      -5.698   0.020  -1.279  0.00  0.00    +0.034 C 
ATOM     15  C   UNL     1      -6.005   1.119   1.390  0.00  0.00    +0.085 C 
ATOM     16  C   UNL     1      -6.766   1.054  -0.912  0.00  0.00    +0.085 C 
ATOM     18  C   UNL     1      -8.214   1.894   0.820  0.00  0.00    +0.104 C 
ENDBRANCH   5   9
ENDBRANCH   8   5
BRANCH  11  17
ATOM     17  C   UNL     1       1.288  -1.760  -0.680  0.00  0.00    +0.138 C 
BRANCH  17   7
ATOM      4  O   UNL     1       3.203  -1.605   1.454  0.00  0.00    -0.270 OA
ATOM      7  N   UNL     1       2.514  -1.016  -0.682  0.00  0.00    -0.309 N 
ATOM     19  C   UNL     1       3.387  -0.999   0.402  0.00  0.00    +0.244 C 
ATOM     28  H   UNL     1       2.693  -0.436  -1.494  0.00  0.00    +0.149 HD
BRANCH  19  20
ATOM      1  F   UNL     1       7.984   2.175  -0.164  0.00  0.00    -0.205 F 
ATOM     20  C   UNL     1       4.603  -0.159   0.253  0.00  0.00    +0.037 A 
ATOM     21  C   UNL     1       5.222   0.379   1.381  0.00  0.00    +0.016 A 
ATOM     22  C   UNL     1       5.126   0.092  -1.016  0.00  0.00    +0.016 A 
ATOM     23  C   UNL     1       6.364   1.167   1.240  0.00  0.00    +0.039 A 
ATOM     24  C   UNL     1       6.268   0.881  -1.157  0.00  0.00    +0.039 A 
ATOM     25  C   UNL     1       6.887   1.418  -0.028  0.00  0.00    +0.123 A 
ENDBRANCH  19  20
ENDBRANCH  17   7
ENDBRANCH  11  17
TORSDOF 6
