REMARK  Name = 45360647
REMARK  9 active torsions:
REMARK  status: ('A' for Active; 'I' for Inactive)
REMARK    1  A    between atoms: N_5  and  C_9
REMARK    2  A    between atoms: N_5  and  C_17
REMARK    3  A    between atoms: N_7  and  C_30
REMARK    4  A    between atoms: N_7  and  C_33
REMARK    5  A    between atoms: N_7  and  C_34
REMARK    6  A    between atoms: C_10  and  C_14
REMARK    7  A    between atoms: C_14  and  C_16
REMARK    8  A    between atoms: C_16  and  C_18
REMARK    9  A    between atoms: C_17  and  C_19
REMARK                            x       y       z     vdW  Elec       q    Type
REMARK                         _______ _______ _______ _____ _____    ______ ____
ROOT
ATOM      1  O   UNL     1       1.732   5.336   0.450  0.00  0.00    -0.274 OA
ATOM      3  N   UNL     1      -0.464   2.426   0.279  0.00  0.00    -0.286 NA
ATOM      4  N   UNL     1       0.045   4.870  -1.002  0.00  0.00    -0.313 N 
ATOM      8  C   UNL     1       0.454   3.364   0.938  0.00  0.00    +0.145 C 
ATOM      9  C   UNL     1       1.400   1.144   0.665  0.00  0.00    +0.070 C 
ATOM     10  C   UNL     1      -1.533   3.065  -0.480  0.00  0.00    +0.075 C 
ATOM     11  C   UNL     1       1.707   2.527   1.240  0.00  0.00    +0.048 C 
ATOM     12  C   UNL     1       0.355   1.429  -0.405  0.00  0.00    +0.104 C 
ATOM     13  C   UNL     1      -0.962   3.988  -1.546  0.00  0.00    +0.123 C 
ATOM     15  C   UNL     1       0.814   4.588   0.101  0.00  0.00    +0.230 C 
ATOM     35  H   UNL     1       0.280   5.699  -1.538  0.00  0.00    +0.149 HD
ENDROOT
BRANCH   9   5
ATOM      5  N   UNL     1       2.580   0.463   0.156  0.00  0.00    -0.308 NA
ATOM     36  H   UNL     1       2.288  -0.273  -0.488  0.00  0.00    +0.123 HD
BRANCH   5  17
ATOM     17  C   UNL     1       3.347  -0.135   1.242  0.00  0.00    +0.116 C 
BRANCH  17  19
ATOM     19  C   UNL     1       4.582  -0.834   0.737  0.00  0.00    -0.033 A 
ATOM     24  C   UNL     1       4.475  -2.080   0.119  0.00  0.00    +0.007 A 
ATOM     25  C   UNL     1       5.833  -0.235   0.886  0.00  0.00    +0.007 A 
ATOM     28  C   UNL     1       5.618  -2.728  -0.349  0.00  0.00    +0.023 A 
ATOM     29  C   UNL     1       6.976  -0.883   0.419  0.00  0.00    +0.023 A 
ATOM     30  C   UNL     1       6.869  -2.129  -0.199  0.00  0.00    +0.029 A 
BRANCH  30   7
ATOM      7  N   UNL     1       8.025  -2.783  -0.671  0.00  0.00    -0.336 N 
ATOM     33  C   UNL     1       9.329  -2.166  -0.527  0.00  0.00    +0.129 C 
ATOM     34  C   UNL     1       7.924  -4.078  -1.315  0.00  0.00    +0.129 C 
ENDBRANCH  30   7
ENDBRANCH  17  19
ENDBRANCH   5  17
ENDBRANCH   9   5
BRANCH  10  14
ATOM     14  C   UNL     1      -2.510   2.059  -1.091  0.00  0.00    +0.029 C 
BRANCH  14  16
ATOM     16  C   UNL     1      -3.154   1.164  -0.043  0.00  0.00    +0.098 C 
BRANCH  16  18
ATOM      2  O   UNL     1      -4.325   0.253  -1.892  0.00  0.00    -0.275 OA
ATOM      6  N   UNL     1      -4.781  -0.640   0.216  0.00  0.00    -0.271 N 
ATOM     18  C   UNL     1      -4.146   0.215  -0.674  0.00  0.00    +0.220 C 
ATOM     20  C   UNL     1      -4.564  -0.683   1.677  0.00  0.00    +0.118 C 
ATOM     21  C   UNL     1      -5.745  -1.614  -0.119  0.00  0.00    +0.039 A 
ATOM     22  C   UNL     1      -5.469  -1.779   2.252  0.00  0.00    +0.056 C 
ATOM     23  C   UNL     1      -6.162  -2.288   1.031  0.00  0.00    -0.024 A 
ATOM     26  C   UNL     1      -6.271  -1.942  -1.360  0.00  0.00    +0.024 A 
ATOM     27  C   UNL     1      -7.109  -3.299   0.970  0.00  0.00    +0.005 A 
ATOM     31  C   UNL     1      -7.228  -2.960  -1.430  0.00  0.00    +0.002 A 
ATOM     32  C   UNL     1      -7.644  -3.634  -0.274  0.00  0.00    +0.000 A 
ENDBRANCH  16  18
ENDBRANCH  14  16
ENDBRANCH  10  14
TORSDOF 7
