REMARK  Name = 7135447
REMARK  10 active torsions:
REMARK  status: ('A' for Active; 'I' for Inactive)
REMARK    1  A    between atoms: O_2  and  C_21
REMARK    2  A    between atoms: O_2  and  C_25
REMARK    3  A    between atoms: O_3  and  C_26
REMARK    4  A    between atoms: O_3  and  C_27
REMARK    5  A    between atoms: C_5  and  C_6
REMARK    6  A    between atoms: C_6  and  C_12
REMARK    7  A    between atoms: C_6  and  C_13
REMARK    8  A    between atoms: C_14  and  C_23
REMARK    9  A    between atoms: C_17  and  C_24
REMARK   10  A    between atoms: C_25  and  C_26
REMARK                            x       y       z     vdW  Elec       q    Type
REMARK                         _______ _______ _______ _____ _____    ______ ____
ROOT
ATOM      5  C   UNL     1       1.417  -1.808   0.099  0.00  0.00    +0.005 C 
ATOM      7  C   UNL     1       0.921  -2.896  -0.858  0.00  0.00    +0.009 C 
ATOM      8  C   UNL     1       0.489  -0.587   0.021  0.00  0.00    +0.040 C 
ATOM      9  C   UNL     1      -0.472  -3.374  -0.451  0.00  0.00    +0.036 C 
ATOM     10  C   UNL     1      -0.976  -0.941   0.092  0.00  0.00    -0.037 A 
ATOM     11  C   UNL     1      -1.432  -2.245  -0.170  0.00  0.00    -0.041 A 
ATOM     14  C   UNL     1      -1.908   0.071   0.370  0.00  0.00    -0.005 A 
ATOM     17  C   UNL     1      -2.807  -2.519  -0.112  0.00  0.00    -0.044 A 
ATOM     21  C   UNL     1      -3.272  -0.211   0.414  0.00  0.00    +0.124 A 
ATOM     22  C   UNL     1      -3.722  -1.507   0.175  0.00  0.00    +0.049 A 
ATOM     23  C   UNL     1      -1.461   1.480   0.615  0.00  0.00    +0.048 C 
ATOM     24  C   UNL     1      -3.341  -3.897  -0.345  0.00  0.00    +0.044 C 
ENDROOT
BRANCH   5   6
ATOM      6  C   UNL     1       2.857  -1.412  -0.223  0.00  0.00    +0.075 C 
ATOM     13  C   UNL     1       3.789  -2.611  -0.159  0.00  0.00    +0.017 C 
BRANCH   6  12
ATOM      1  O   UNL     1       2.855  -0.380   1.910  0.00  0.00    -0.275 OA
ATOM      4  N   UNL     1       4.218   0.584   0.293  0.00  0.00    -0.301 N 
ATOM     12  C   UNL     1       3.305  -0.361   0.761  0.00  0.00    +0.219 C 
ATOM     15  C   UNL     1       4.699   1.638   1.189  0.00  0.00    +0.108 C 
ATOM     16  C   UNL     1       4.804   0.605  -1.053  0.00  0.00    +0.108 C 
ATOM     18  C   UNL     1       4.486   3.017   0.571  0.00  0.00    +0.019 C 
ATOM     19  C   UNL     1       4.594   1.966  -1.713  0.00  0.00    +0.019 C 
ATOM     20  C   UNL     1       5.102   3.100  -0.824  0.00  0.00    +0.003 C 
ENDBRANCH   6  12
ENDBRANCH   5   6
BRANCH  21   2
ATOM      2  O   UNL     1      -4.182   0.766   0.687  0.00  0.00    -0.489 OA
BRANCH   2  25
ATOM     25  C   UNL     1      -5.165   1.033  -0.311  0.00  0.00    +0.257 C 
BRANCH  25  26
ATOM     26  C   UNL     1      -5.583   2.487  -0.217  0.00  0.00    +0.200 C 
BRANCH  26   3
ATOM      3  O   UNL     1      -4.440   3.312  -0.407  0.00  0.00    -0.380 OA
ATOM     27  C   UNL     1      -4.777   4.691  -0.351  0.00  0.00    +0.194 C 
ENDBRANCH  26   3
ENDBRANCH  25  26
ENDBRANCH   2  25
ENDBRANCH  21   2
TORSDOF 6
