REMARK  Name = 11882066
REMARK  12 active torsions:
REMARK  status: ('A' for Active; 'I' for Inactive)
REMARK    1  A    between atoms: S_2  and  C_33
REMARK    2  A    between atoms: S_2  and  C_36
REMARK    3  A    between atoms: N_8  and  C_12
REMARK    4  A    between atoms: N_9  and  C_18
REMARK    5  A    between atoms: N_10  and  C_25
REMARK    6  A    between atoms: C_13  and  C_16
REMARK    7  A    between atoms: C_17  and  C_20
REMARK    8  A    between atoms: C_18  and  C_21
REMARK    9  A    between atoms: C_18  and  C_22
REMARK   10  A    between atoms: C_21  and  C_24
REMARK   11  A    between atoms: C_23  and  C_26
REMARK   12  A    between atoms: C_23  and  C_27
REMARK                            x       y       z     vdW  Elec       q    Type
REMARK                         _______ _______ _______ _____ _____    ______ ____
ROOT
ATOM      4  O   UNL     1      -0.953   4.784  -0.129  0.00  0.00    -0.271 OA
ATOM      7  N   UNL     1      -0.478   2.696   0.748  0.00  0.00    -0.285 N 
ATOM     12  C   UNL     1       0.645   0.901   1.827  0.00  0.00    +0.105 C 
ATOM     13  C   UNL     1      -0.290   1.245   0.664  0.00  0.00    +0.182 C 
ATOM     14  C   UNL     1       0.350   1.996   2.854  0.00  0.00    +0.043 C 
ATOM     15  C   UNL     1       0.057   3.219   1.999  0.00  0.00    +0.111 C 
ATOM     17  C   UNL     1      -0.948   3.557  -0.229  0.00  0.00    +0.240 C 
ENDROOT
BRANCH  12   8
ATOM      5  O   UNL     1       2.219  -1.312   0.917  0.00  0.00    -0.252 OA
ATOM      8  N   UNL     1       2.028   0.938   1.414  0.00  0.00    -0.294 N 
ATOM     10  N   UNL     1       4.041   0.144   0.648  0.00  0.00    -0.269 N 
ATOM     19  C   UNL     1       2.727  -0.195   0.981  0.00  0.00    +0.304 C 
ATOM     37  H   UNL     1       2.498   1.837   1.374  0.00  0.00    +0.151 HD
ATOM     39  H   UNL     1       4.303   1.120   0.760  0.00  0.00    +0.156 HD
BRANCH  10  25
ATOM     25  C   UNL     1       5.063  -0.710   0.171  0.00  0.00    +0.036 A 
ATOM     29  C   UNL     1       6.328  -0.195  -0.112  0.00  0.00    +0.038 A 
ATOM     30  C   UNL     1       4.805  -2.068  -0.017  0.00  0.00    +0.023 A 
ATOM     33  C   UNL     1       7.335  -1.037  -0.582  0.00  0.00    +0.009 A 
ATOM     34  C   UNL     1       5.813  -2.911  -0.487  0.00  0.00    +0.003 A 
ATOM     35  C   UNL     1       7.077  -2.396  -0.769  0.00  0.00    +0.015 A 
BRANCH  33   2
ATOM      2  S   UNL     1       8.953  -0.380  -0.941  0.00  0.00    -0.129 S 
ATOM     36  C   UNL     1       8.575   0.848  -2.223  0.00  0.00    +0.090 C 
ENDBRANCH  33   2
ENDBRANCH  10  25
ENDBRANCH  12   8
BRANCH  13  16
ATOM      3  O   UNL     1      -2.507   1.139   1.547  0.00  0.00    -0.274 OA
ATOM      9  N   UNL     1      -1.735  -0.616   0.227  0.00  0.00    -0.302 N 
ATOM     16  C   UNL     1      -1.634   0.608   0.866  0.00  0.00    +0.236 C 
ATOM     38  H   UNL     1      -0.949  -0.950  -0.324  0.00  0.00    +0.150 HD
BRANCH   9  18
ATOM     18  C   UNL     1      -2.919  -1.442   0.285  0.00  0.00    +0.163 C 
BRANCH  18  22
ATOM      6  O   UNL     1      -1.482  -3.283  -0.388  0.00  0.00    -0.274 OA
ATOM     11  N   UNL     1      -3.213  -3.713   1.060  0.00  0.00    -0.328 N 
ATOM     22  C   UNL     1      -2.455  -2.891   0.252  0.00  0.00    +0.231 C 
ATOM     40  H   UNL     1      -3.000  -4.702   1.140  0.00  0.00    +0.145 HD
ATOM     41  H   UNL     1      -4.008  -3.375   1.592  0.00  0.00    +0.145 HD
ENDBRANCH  18  22
BRANCH  18  21
ATOM     21  C   UNL     1      -3.881  -1.163  -0.876  0.00  0.00    +0.074 C 
BRANCH  21  24
ATOM      1  S   UNL     1      -6.052  -2.739  -1.629  0.00  0.00    -0.102 S 
ATOM     24  C   UNL     1      -5.289  -1.622  -0.578  0.00  0.00    -0.008 A 
ATOM     28  C   UNL     1      -6.105  -1.259   0.471  0.00  0.00    +0.011 A 
ATOM     31  C   UNL     1      -7.373  -1.906   0.412  0.00  0.00    +0.008 A 
ATOM     32  C   UNL     1      -7.478  -2.739  -0.680  0.00  0.00    +0.045 A 
ENDBRANCH  21  24
ENDBRANCH  18  21
ENDBRANCH   9  18
ENDBRANCH  13  16
BRANCH  17  20
ATOM     20  C   UNL     1      -1.476   2.950  -1.466  0.00  0.00    +0.066 C 
ATOM     23  C   UNL     1      -2.732   3.103  -1.920  0.00  0.00    -0.071 C 
ATOM     26  C   UNL     1      -3.306   2.502  -3.173  0.00  0.00    +0.039 C 
ATOM     27  C   UNL     1      -3.710   3.947  -1.143  0.00  0.00    +0.039 C 
ENDBRANCH  17  20
TORSDOF 9
