REMARK  Name = 11913031
REMARK  6 active torsions:
REMARK  status: ('A' for Active; 'I' for Inactive)
REMARK    1  A    between atoms: O_4  and  C_24
REMARK    2  A    between atoms: O_4  and  C_26
REMARK    3  A    between atoms: N_5  and  C_11
REMARK    4  A    between atoms: N_6  and  C_12
REMARK    5  A    between atoms: C_15  and  C_21
REMARK    6  A    between atoms: C_22  and  C_24
REMARK                            x       y       z     vdW  Elec       q    Type
REMARK                         _______ _______ _______ _____ _____    ______ ____
ROOT
ATOM      1  O   UNL     1      -0.694  -3.490   0.292  0.00  0.00    -0.370 OA
ATOM      2  O   UNL     1      -1.012  -0.881   1.975  0.00  0.00    -0.370 OA
ATOM      9  C   UNL     1      -1.200  -1.183   0.582  0.00  0.00    +0.171 C 
ATOM     10  C   UNL     1      -0.123  -2.175   0.187  0.00  0.00    +0.171 C 
ATOM     11  C   UNL     1      -2.491  -1.939   0.379  0.00  0.00    +0.130 C 
ATOM     12  C   UNL     1       0.954  -1.984   1.232  0.00  0.00    +0.130 C 
ATOM     13  C   UNL     1      -2.080  -3.376   0.643  0.00  0.00    +0.185 C 
ATOM     14  C   UNL     1       0.152  -1.572   2.453  0.00  0.00    +0.185 C 
ENDROOT
BRANCH  11   5
ATOM      5  N   UNL     1      -2.942  -1.791  -0.988  0.00  0.00    -0.306 N 
ATOM      7  N   UNL     1      -4.013   0.214  -0.516  0.00  0.00    -0.219 NA
ATOM      8  N   UNL     1      -4.038  -0.725  -2.735  0.00  0.00    -0.223 NA
ATOM     20  C   UNL     1      -3.697  -0.721  -1.432  0.00  0.00    +0.216 A 
ATOM     21  C   UNL     1      -4.750   1.244  -0.984  0.00  0.00    +0.049 A 
ATOM     23  C   UNL     1      -5.163   1.357  -2.295  0.00  0.00    +0.043 A 
ATOM     25  C   UNL     1      -4.774   0.333  -3.134  0.00  0.00    +0.116 A 
ATOM     32  H   UNL     1      -2.656  -2.471  -1.683  0.00  0.00    +0.149 HD
BRANCH  21  15
ATOM     15  C   UNL     1      -5.128   2.317   0.012  0.00  0.00    +0.038 C 
ATOM     16  C   UNL     1      -5.976   1.772   1.175  0.00  0.00    +0.010 C 
ATOM     17  C   UNL     1      -3.928   3.031   0.670  0.00  0.00    +0.010 C 
ATOM     18  C   UNL     1      -5.532   2.575   2.387  0.00  0.00    +0.001 C 
ATOM     19  C   UNL     1      -4.039   2.738   2.162  0.00  0.00    +0.001 C 
ENDBRANCH  21  15
ENDBRANCH  11   5
BRANCH  12   6
ATOM      3  O   UNL     1       3.487  -2.322  -0.134  0.00  0.00    -0.272 OA
ATOM      6  N   UNL     1       1.882  -0.950   0.842  0.00  0.00    -0.305 N 
ATOM     22  C   UNL     1       3.078  -1.210   0.188  0.00  0.00    +0.251 C 
ATOM     33  H   UNL     1       1.617   0.016   1.012  0.00  0.00    +0.149 HD
BRANCH  22  24
ATOM     24  C   UNL     1       3.849   0.060  -0.097  0.00  0.00    +0.324 C 
BRANCH  24   4
ATOM      4  O   UNL     1       5.054  -0.229  -0.774  0.00  0.00    -0.483 OA
BRANCH   4  26
ATOM     26  C   UNL     1       6.113   0.622  -0.563  0.00  0.00    +0.121 A 
ATOM     27  C   UNL     1       5.881   1.966  -0.275  0.00  0.00    +0.045 A 
ATOM     28  C   UNL     1       7.420   0.140  -0.637  0.00  0.00    +0.045 A 
ATOM     29  C   UNL     1       6.955   2.830  -0.060  0.00  0.00    +0.004 A 
ATOM     30  C   UNL     1       8.495   1.003  -0.422  0.00  0.00    +0.004 A 
ATOM     31  C   UNL     1       8.262   2.348  -0.134  0.00  0.00    +0.000 A 
ENDBRANCH   4  26
ENDBRANCH  24   4
ENDBRANCH  22  24
ENDBRANCH  12   6
TORSDOF 6
