REMARK  Name = 11884550
REMARK  5 active torsions:
REMARK  status: ('A' for Active; 'I' for Inactive)
REMARK    1  A    between atoms: O_3  and  C_21
REMARK    2  A    between atoms: O_3  and  C_23
REMARK    3  A    between atoms: N_7  and  C_19
REMARK    4  A    between atoms: N_8  and  C_26
REMARK    5  A    between atoms: C_18  and  C_21
REMARK                            x       y       z     vdW  Elec       q    Type
REMARK                         _______ _______ _______ _____ _____    ______ ____
ROOT
ATOM      1  O   UNL     1       1.006   2.906   1.801  0.00  0.00    -0.266 OA
ATOM      2  O   UNL     1      -3.588   0.167   2.065  0.00  0.00    -0.272 OA
ATOM      5  N   UNL     1      -3.538   1.514   0.173  0.00  0.00    -0.298 N 
ATOM      6  N   UNL     1      -0.661   2.908   0.163  0.00  0.00    -0.310 N 
ATOM      9  C   UNL     1      -2.980   3.920   0.549  0.00  0.00    +0.027 C 
ATOM     10  C   UNL     1      -2.451   2.868  -1.610  0.00  0.00    +0.054 C 
ATOM     11  C   UNL     1      -2.980   4.144  -0.959  0.00  0.00    +0.018 C 
ATOM     12  C   UNL     1      -3.881   2.728   0.916  0.00  0.00    +0.113 C 
ATOM     13  C   UNL     1      -1.536   3.718   1.021  0.00  0.00    +0.130 C 
ATOM     14  C   UNL     1      -3.390   1.692  -1.280  0.00  0.00    +0.117 C 
ATOM     15  C   UNL     1      -1.045   2.554  -1.134  0.00  0.00    +0.027 A 
ATOM     16  C   UNL     1      -0.184   1.913  -1.942  0.00  0.00    +0.024 A 
ATOM     17  C   UNL     1       0.617   2.600   0.673  0.00  0.00    +0.273 A 
ATOM     18  C   UNL     1      -3.461   0.294   0.844  0.00  0.00    +0.253 C 
ATOM     19  C   UNL     1       1.537   1.864  -0.250  0.00  0.00    +0.100 A 
ATOM     20  C   UNL     1       1.132   1.561  -1.488  0.00  0.00    +0.030 A 
ENDROOT
BRANCH  19   7
ATOM      4  O   UNL     1       3.085  -0.380  -1.060  0.00  0.00    -0.252 OA
ATOM      7  N   UNL     1       2.778   1.535   0.210  0.00  0.00    -0.265 N 
ATOM      8  N   UNL     1       4.734   0.357   0.439  0.00  0.00    -0.269 N 
ATOM     22  C   UNL     1       3.502   0.415  -0.221  0.00  0.00    +0.308 C 
ATOM     35  H   UNL     1       3.081   1.979   1.073  0.00  0.00    +0.157 HD
ATOM     36  H   UNL     1       4.929   1.100   1.105  0.00  0.00    +0.156 HD
BRANCH   8  26
ATOM     26  C   UNL     1       5.754  -0.612   0.290  0.00  0.00    +0.035 A 
ATOM     30  C   UNL     1       6.913  -0.496   1.040  0.00  0.00    +0.023 A 
ATOM     31  C   UNL     1       5.572  -1.657  -0.601  0.00  0.00    +0.023 A 
ATOM     32  C   UNL     1       7.919  -1.452   0.894  0.00  0.00    +0.002 A 
ATOM     33  C   UNL     1       6.578  -2.613  -0.746  0.00  0.00    +0.002 A 
ATOM     34  C   UNL     1       7.751  -2.510   0.001  0.00  0.00    +0.000 A 
ENDBRANCH   8  26
ENDBRANCH  19   7
BRANCH  18  21
ATOM     21  C   UNL     1      -3.196  -0.926  -0.001  0.00  0.00    +0.324 C 
BRANCH  21   3
ATOM      3  O   UNL     1      -3.124  -2.019   0.882  0.00  0.00    -0.483 OA
BRANCH   3  23
ATOM     23  C   UNL     1      -3.467  -3.257   0.386  0.00  0.00    +0.121 A 
ATOM     24  C   UNL     1      -3.257  -3.535  -0.956  0.00  0.00    +0.045 A 
ATOM     25  C   UNL     1      -4.016  -4.204   1.237  0.00  0.00    +0.045 A 
ATOM     27  C   UNL     1      -3.604  -4.789  -1.459  0.00  0.00    +0.004 A 
ATOM     28  C   UNL     1      -4.364  -5.458   0.734  0.00  0.00    +0.004 A 
ATOM     29  C   UNL     1      -4.158  -5.750  -0.614  0.00  0.00    +0.000 A 
ENDBRANCH   3  23
ENDBRANCH  21   3
ENDBRANCH  18  21
TORSDOF 5
