REMARK  Name = 7164901
REMARK  12 active torsions:
REMARK  status: ('A' for Active; 'I' for Inactive)
REMARK    1  A    between atoms: S_1  and  N_10
REMARK    2  A    between atoms: S_1  and  C_25
REMARK    3  A    between atoms: O_6  and  C_30
REMARK    4  A    between atoms: O_6  and  C_40
REMARK    5  A    between atoms: O_8  and  C_39
REMARK    6  A    between atoms: O_8  and  C_41
REMARK    7  A    between atoms: N_11  and  C_13
REMARK    8  A    between atoms: N_12  and  C_26
REMARK    9  A    between atoms: C_16  and  C_24
REMARK   10  A    between atoms: C_26  and  C_27
REMARK   11  A    between atoms: C_26  and  C_30
REMARK   12  A    between atoms: C_27  and  C_31
REMARK                            x       y       z     vdW  Elec       q    Type
REMARK                         _______ _______ _______ _____ _____    ______ ____
ROOT
ATOM      2  O   UNL     1      -0.441  -4.810  -0.958  0.00  0.00    -0.253 OA
ATOM      9  N   UNL     1      -0.786  -2.519  -0.757  0.00  0.00    -0.272 N 
ATOM     10  N   UNL     1      -2.482  -0.258  -1.226  0.00  0.00    -0.173 NA
ATOM     11  N   UNL     1       0.809  -3.654   0.579  0.00  0.00    -0.296 N 
ATOM     16  C   UNL     1      -0.384  -1.189  -0.263  0.00  0.00    +0.179 C 
ATOM     20  C   UNL     1      -1.561  -0.234  -0.054  0.00  0.00    +0.141 C 
ATOM     21  C   UNL     1      -1.814  -2.538  -1.805  0.00  0.00    +0.127 C 
ATOM     22  C   UNL     1      -2.991  -1.633  -1.478  0.00  0.00    +0.128 C 
ATOM     23  C   UNL     1      -0.160  -3.736  -0.415  0.00  0.00    +0.303 C 
ATOM     42  H   UNL     1       1.145  -2.756   0.896  0.00  0.00    +0.151 HD
ENDROOT
BRANCH  11  13
ATOM     13  C   UNL     1       1.544  -4.813   1.035  0.00  0.00    +0.074 C 
ATOM     14  C   UNL     1       1.906  -4.687   2.519  0.00  0.00    +0.022 C 
ATOM     15  C   UNL     1       2.792  -5.046   0.177  0.00  0.00    +0.022 C 
ATOM     17  C   UNL     1       2.995  -3.645   2.769  0.00  0.00    +0.002 C 
ATOM     18  C   UNL     1       3.880  -4.003   0.431  0.00  0.00    +0.002 C 
ATOM     19  C   UNL     1       4.231  -3.905   1.913  0.00  0.00    +0.000 C 
ENDBRANCH  11  13
BRANCH  16  24
ATOM      5  O   UNL     1       0.541  -0.920  -2.449  0.00  0.00    -0.274 OA
ATOM     12  N   UNL     1       1.561   0.155  -0.653  0.00  0.00    -0.301 N 
ATOM     24  C   UNL     1       0.603  -0.644  -1.254  0.00  0.00    +0.236 C 
ATOM     43  H   UNL     1       1.505   0.332   0.346  0.00  0.00    +0.150 HD
BRANCH  12  26
ATOM     26  C   UNL     1       2.639   0.782  -1.384  0.00  0.00    +0.186 C 
BRANCH  26  30
ATOM      7  O   UNL     1       3.984   0.511   0.605  0.00  0.00    -0.249 OA
ATOM     30  C   UNL     1       3.924   0.856  -0.571  0.00  0.00    +0.328 C 
BRANCH  30   6
ATOM      6  O   UNL     1       4.962   1.360  -1.295  0.00  0.00    -0.467 OA
ATOM     40  C   UNL     1       6.206   1.482  -0.597  0.00  0.00    +0.280 C 
ENDBRANCH  30   6
ENDBRANCH  26  30
BRANCH  26  27
ATOM     27  C   UNL     1       2.220   2.156  -1.926  0.00  0.00    +0.069 C 
BRANCH  27  31
ATOM     31  C   UNL     1       1.899   3.183  -0.864  0.00  0.00    -0.045 A 
ATOM     35  C   UNL     1       0.596   3.303  -0.381  0.00  0.00    +0.007 A 
ATOM     36  C   UNL     1       2.906   4.011  -0.368  0.00  0.00    +0.007 A 
ATOM     37  C   UNL     1       0.300   4.251   0.599  0.00  0.00    +0.046 A 
ATOM     38  C   UNL     1       2.610   4.959   0.612  0.00  0.00    +0.046 A 
ATOM     39  C   UNL     1       1.307   5.078   1.096  0.00  0.00    +0.120 A 
BRANCH  39   8
ATOM      8  O   UNL     1       1.018   6.003   2.052  0.00  0.00    -0.495 OA
ATOM     41  C   UNL     1      -0.334   6.071   2.502  0.00  0.00    +0.277 C 
ENDBRANCH  39   8
ENDBRANCH  27  31
ENDBRANCH  26  27
ENDBRANCH  12  26
ENDBRANCH  16  24
BRANCH  10   1
ATOM      1  S   UNL     1      -3.663   0.982  -1.258  0.00  0.00    +0.061 S 
ATOM      3  O   UNL     1      -4.402   0.898  -2.499  0.00  0.00    -0.153 OA
ATOM      4  O   UNL     1      -3.050   2.224  -0.838  0.00  0.00    -0.153 OA
BRANCH   1  25
ATOM     25  C   UNL     1      -4.724   0.431   0.041  0.00  0.00    +0.105 A 
ATOM     28  C   UNL     1      -5.788  -0.424  -0.244  0.00  0.00    +0.028 A 
ATOM     29  C   UNL     1      -4.496   0.850   1.352  0.00  0.00    +0.028 A 
ATOM     32  C   UNL     1      -6.626  -0.860   0.783  0.00  0.00    +0.002 A 
ATOM     33  C   UNL     1      -5.333   0.413   2.378  0.00  0.00    +0.002 A 
ATOM     34  C   UNL     1      -6.398  -0.442   2.094  0.00  0.00    +0.000 A 
ENDBRANCH   1  25
ENDBRANCH  10   1
TORSDOF 10
