REMARK  Name = 7143712
REMARK  4 active torsions:
REMARK  status: ('A' for Active; 'I' for Inactive)
REMARK    1  A    between atoms: S_1  and  C_18
REMARK    2  A    between atoms: S_1  and  C_25
REMARK    3  A    between atoms: C_15  and  C_18
REMARK    4  A    between atoms: C_16  and  C_19
REMARK                            x       y       z     vdW  Elec       q    Type
REMARK                         _______ _______ _______ _____ _____    ______ ____
ROOT
ATOM      2  O   UNL     1       0.224  -1.560  -1.661  0.00  0.00    -0.267 OA
ATOM      3  O   UNL     1      -3.495   2.263  -2.051  0.00  0.00    -0.275 OA
ATOM      4  N   UNL     1      -4.076   0.716  -0.418  0.00  0.00    -0.300 N 
ATOM      5  N   UNL     1      -1.637  -1.340  -0.272  0.00  0.00    -0.311 N 
ATOM      6  C   UNL     1      -4.030  -1.683  -1.113  0.00  0.00    +0.027 C 
ATOM      7  C   UNL     1      -3.636  -1.087   1.240  0.00  0.00    +0.054 C 
ATOM      8  C   UNL     1      -4.328  -2.094   0.324  0.00  0.00    +0.018 C 
ATOM      9  C   UNL     1      -4.561  -0.266  -1.390  0.00  0.00    +0.113 C 
ATOM     10  C   UNL     1      -2.521  -1.790  -1.356  0.00  0.00    +0.130 C 
ATOM     11  C   UNL     1      -4.215   0.320   0.992  0.00  0.00    +0.117 C 
ATOM     12  C   UNL     1      -2.137  -1.074   1.005  0.00  0.00    +0.027 A 
ATOM     13  C   UNL     1      -1.297  -0.781   2.010  0.00  0.00    +0.022 A 
ATOM     14  C   UNL     1      -0.258  -1.298  -0.557  0.00  0.00    +0.259 A 
ATOM     15  C   UNL     1      -3.604   1.951  -0.863  0.00  0.00    +0.225 C 
ATOM     16  C   UNL     1       0.656  -0.931   0.581  0.00  0.00    +0.047 A 
ATOM     17  C   UNL     1       0.119  -0.705   1.789  0.00  0.00    +0.015 A 
ENDROOT
BRANCH  16  19
ATOM     19  C   UNL     1       2.111  -0.811   0.384  0.00  0.00    -0.012 A 
ATOM     20  C   UNL     1       2.669   0.413   0.013  0.00  0.00    +0.017 A 
ATOM     21  C   UNL     1       2.932  -1.921   0.568  0.00  0.00    +0.009 A 
ATOM     22  C   UNL     1       4.054   0.543  -0.179  0.00  0.00    -0.017 A 
ATOM     23  C   UNL     1       4.310  -1.811   0.382  0.00  0.00    +0.009 A 
ATOM     24  C   UNL     1       4.887  -0.586   0.009  0.00  0.00    -0.018 A 
ATOM     26  C   UNL     1       4.631   1.768  -0.552  0.00  0.00    +0.008 A 
ATOM     27  C   UNL     1       6.272  -0.456  -0.183  0.00  0.00    +0.008 A 
ATOM     28  C   UNL     1       6.009   1.878  -0.739  0.00  0.00    +0.001 A 
ATOM     29  C   UNL     1       6.828   0.768  -0.554  0.00  0.00    +0.001 A 
ENDBRANCH  16  19
BRANCH  15  18
ATOM     18  C   UNL     1      -3.203   2.943   0.199  0.00  0.00    +0.164 C 
BRANCH  18   1
ATOM      1  S   UNL     1      -1.462   2.677   0.566  0.00  0.00    -0.155 S 
ATOM     25  C   UNL     1      -1.244   3.955   1.829  0.00  0.00    +0.085 C 
ENDBRANCH  18   1
ENDBRANCH  15  18
TORSDOF 3
