REMARK  Name = 11885215
REMARK  8 active torsions:
REMARK  status: ('A' for Active; 'I' for Inactive)
REMARK    1  A    between atoms: S_1  and  C_21
REMARK    2  A    between atoms: S_1  and  C_25
REMARK    3  A    between atoms: S_2  and  C_28
REMARK    4  A    between atoms: S_2  and  C_30
REMARK    5  A    between atoms: O_5  and  C_29
REMARK    6  A    between atoms: C_18  and  C_21
REMARK    7  A    between atoms: C_19  and  C_22
REMARK    8  A    between atoms: C_25  and  C_29
REMARK                            x       y       z     vdW  Elec       q    Type
REMARK                         _______ _______ _______ _____ _____    ______ ____
ROOT
ATOM      3  O   UNL     1       0.651  -2.364  -1.083  0.00  0.00    -0.267 OA
ATOM      4  O   UNL     1      -3.348   0.746  -2.794  0.00  0.00    -0.275 OA
ATOM      7  N   UNL     1      -3.808  -0.091  -0.676  0.00  0.00    -0.300 N 
ATOM      8  N   UNL     1      -1.219  -1.758   0.172  0.00  0.00    -0.311 N 
ATOM      9  C   UNL     1      -3.581  -2.563  -0.401  0.00  0.00    +0.027 C 
ATOM     10  C   UNL     1      -3.230  -1.084   1.531  0.00  0.00    +0.054 C 
ATOM     11  C   UNL     1      -3.845  -2.411   1.092  0.00  0.00    +0.018 C 
ATOM     12  C   UNL     1      -4.218  -1.402  -1.183  0.00  0.00    +0.113 C 
ATOM     13  C   UNL     1      -2.068  -2.651  -0.630  0.00  0.00    +0.130 C 
ATOM     14  C   UNL     1      -3.914   0.076   0.781  0.00  0.00    +0.117 C 
ATOM     15  C   UNL     1      -1.737  -1.058   1.264  0.00  0.00    +0.027 A 
ATOM     16  C   UNL     1      -0.920  -0.344   2.054  0.00  0.00    +0.022 A 
ATOM     17  C   UNL     1       0.152  -1.733  -0.149  0.00  0.00    +0.259 A 
ATOM     18  C   UNL     1      -3.431   0.908  -1.574  0.00  0.00    +0.225 C 
ATOM     19  C   UNL     1       1.037  -0.894   0.733  0.00  0.00    +0.047 A 
ATOM     20  C   UNL     1       0.486  -0.259   1.778  0.00  0.00    +0.015 A 
ENDROOT
BRANCH  19  22
ATOM     22  C   UNL     1       2.479  -0.759   0.461  0.00  0.00    -0.013 A 
ATOM     23  C   UNL     1       3.384  -1.654   1.032  0.00  0.00    +0.010 A 
ATOM     24  C   UNL     1       2.940   0.265  -0.367  0.00  0.00    +0.010 A 
ATOM     26  C   UNL     1       4.749  -1.526   0.775  0.00  0.00    +0.015 A 
ATOM     27  C   UNL     1       4.305   0.393  -0.624  0.00  0.00    +0.015 A 
ATOM     28  C   UNL     1       5.210  -0.502  -0.053  0.00  0.00    +0.008 A 
BRANCH  28   2
ATOM      2  S   UNL     1       6.953  -0.338  -0.381  0.00  0.00    -0.129 S 
ATOM     30  C   UNL     1       7.010  -0.523  -2.185  0.00  0.00    +0.090 C 
ENDBRANCH  28   2
ENDBRANCH  19  22
BRANCH  18  21
ATOM     21  C   UNL     1      -3.105   2.257  -0.985  0.00  0.00    +0.165 C 
BRANCH  21   1
ATOM      1  S   UNL     1      -1.349   2.274  -0.598  0.00  0.00    -0.140 S 
BRANCH   1  25
ATOM     25  C   UNL     1      -1.227   3.951   0.072  0.00  0.00    +0.189 C 
BRANCH  25  29
ATOM      6  O   UNL     1       1.169   3.715  -0.052  0.00  0.00    -0.250 OA
ATOM     29  C   UNL     1       0.192   4.222   0.484  0.00  0.00    +0.315 C 
BRANCH  29   5
ATOM      5  O   UNL     1       0.280   5.107   1.509  0.00  0.00    -0.480 OA
ATOM     31  H   UNL     1       1.212   5.280   1.763  0.00  0.00    +0.295 HD
ENDBRANCH  29   5
ENDBRANCH  25  29
ENDBRANCH   1  25
ENDBRANCH  21   1
ENDBRANCH  18  21
TORSDOF 7
