REMARK  Name = 51136669
REMARK  9 active torsions:
REMARK  status: ('A' for Active; 'I' for Inactive)
REMARK    1  A    between atoms: O_1  and  C_18
REMARK    2  A    between atoms: O_4  and  C_26
REMARK    3  A    between atoms: O_4  and  C_28
REMARK    4  A    between atoms: N_7  and  C_24
REMARK    5  A    between atoms: C_8  and  C_12
REMARK    6  A    between atoms: C_9  and  C_14
REMARK    7  A    between atoms: C_12  and  C_15
REMARK    8  A    between atoms: C_14  and  C_18
REMARK    9  A    between atoms: C_24  and  C_27
REMARK                            x       y       z     vdW  Elec       q    Type
REMARK                         _______ _______ _______ _____ _____    ______ ____
ROOT
ATOM      2  O   UNL     1       0.851  -3.933  -0.404  0.00  0.00    -0.253 OA
ATOM      5  N   UNL     1       1.734  -2.056   0.633  0.00  0.00    -0.285 N 
ATOM      7  N   UNL     1      -0.516  -2.701   0.964  0.00  0.00    -0.300 N 
ATOM      8  C   UNL     1       1.972   0.409   0.739  0.00  0.00    +0.016 C 
ATOM      9  C   UNL     1       3.355   0.270   0.049  0.00  0.00    +0.006 C 
ATOM     10  C   UNL     1       3.447  -1.016  -0.792  0.00  0.00    +0.023 C 
ATOM     11  C   UNL     1       1.650  -0.881   1.512  0.00  0.00    +0.113 C 
ATOM     13  C   UNL     1       3.050  -2.247   0.022  0.00  0.00    +0.109 C 
ATOM     16  C   UNL     1       0.702  -2.964   0.348  0.00  0.00    +0.302 C 
ATOM     29  H   UNL     1      -0.661  -1.872   1.522  0.00  0.00    +0.150 HD
ENDROOT
BRANCH   7  24
ATOM     24  C   UNL     1      -1.677  -3.540   0.763  0.00  0.00    +0.102 C 
ATOM     27  C   UNL     1      -2.370  -3.223  -0.545  0.00  0.00    +0.024 C 
ENDBRANCH   7  24
BRANCH   8  12
ATOM     12  C   UNL     1       0.828   0.759  -0.219  0.00  0.00    +0.061 C 
BRANCH  12  15
ATOM      6  N   UNL     1      -0.048   2.010   1.634  0.00  0.00    -0.287 NA
ATOM     15  C   UNL     1      -0.323   1.359   0.552  0.00  0.00    +0.044 C 
ATOM     17  C   UNL     1      -1.704   1.170   0.040  0.00  0.00    -0.001 A 
ATOM     19  C   UNL     1      -2.748   1.388   0.947  0.00  0.00    -0.033 A 
ATOM     20  C   UNL     1      -2.411   1.777   2.355  0.00  0.00    +0.059 C 
ATOM     21  C   UNL     1      -1.159   2.645   2.350  0.00  0.00    +0.146 C 
ATOM     22  C   UNL     1      -1.975   0.780  -1.273  0.00  0.00    +0.013 A 
ATOM     23  C   UNL     1      -4.070   1.188   0.538  0.00  0.00    +0.050 A 
ATOM     25  C   UNL     1      -3.299   0.598  -1.676  0.00  0.00    +0.046 A 
ATOM     26  C   UNL     1      -4.343   0.798  -0.773  0.00  0.00    +0.120 A 
BRANCH  26   4
ATOM      4  O   UNL     1      -5.631   0.610  -1.172  0.00  0.00    -0.495 OA
ATOM     28  C   UNL     1      -5.840   0.209  -2.525  0.00  0.00    +0.277 C 
ENDBRANCH  26   4
ENDBRANCH  12  15
ENDBRANCH   8  12
BRANCH   9  14
ATOM     14  C   UNL     1       3.732   1.491  -0.790  0.00  0.00    +0.124 C 
BRANCH  14  18
ATOM      3  O   UNL     1       6.064   0.819  -0.557  0.00  0.00    -0.251 OA
ATOM     18  C   UNL     1       5.219   1.591  -0.987  0.00  0.00    +0.305 C 
BRANCH  18   1
ATOM      1  O   UNL     1       5.510   2.689  -1.731  0.00  0.00    -0.481 OA
ATOM     30  H   UNL     1       6.474   2.785  -1.880  0.00  0.00    +0.295 HD
ENDBRANCH  18   1
ENDBRANCH  14  18
ENDBRANCH   9  14
TORSDOF 7
