REMARK  Name = 45360777
REMARK  10 active torsions:
REMARK  status: ('A' for Active; 'I' for Inactive)
REMARK    1  A    between atoms: O_3  and  C_24
REMARK    2  A    between atoms: N_6  and  C_11
REMARK    3  A    between atoms: N_6  and  C_18
REMARK    4  A    between atoms: N_8  and  C_30
REMARK    5  A    between atoms: N_8  and  C_31
REMARK    6  A    between atoms: N_8  and  C_32
REMARK    7  A    between atoms: C_10  and  C_15
REMARK    8  A    between atoms: C_15  and  C_17
REMARK    9  A    between atoms: C_17  and  C_19
REMARK   10  A    between atoms: C_18  and  C_25
REMARK                            x       y       z     vdW  Elec       q    Type
REMARK                         _______ _______ _______ _____ _____    ______ ____
ROOT
ATOM      1  O   UNL     1       0.729   5.081   0.805  0.00  0.00    -0.274 OA
ATOM      4  N   UNL     1      -1.081   1.964   0.229  0.00  0.00    -0.286 NA
ATOM      5  N   UNL     1      -0.801   4.561  -0.795  0.00  0.00    -0.313 N 
ATOM      9  C   UNL     1      -0.325   2.936   1.029  0.00  0.00    +0.145 C 
ATOM     10  C   UNL     1      -2.174   2.543  -0.545  0.00  0.00    +0.075 C 
ATOM     11  C   UNL     1       0.900   0.877   0.631  0.00  0.00    +0.070 C 
ATOM     12  C   UNL     1       1.001   2.226   1.345  0.00  0.00    +0.048 C 
ATOM     13  C   UNL     1      -0.107   1.138  -0.481  0.00  0.00    +0.104 C 
ATOM     14  C   UNL     1      -1.658   3.623  -1.483  0.00  0.00    +0.123 C 
ATOM     16  C   UNL     1      -0.070   4.268   0.330  0.00  0.00    +0.230 C 
ATOM     33  H   UNL     1      -0.637   5.459  -1.240  0.00  0.00    +0.149 HD
ENDROOT
BRANCH  11   6
ATOM      6  N   UNL     1       2.182   0.389   0.149  0.00  0.00    -0.308 NA
ATOM     34  H   UNL     1       2.020  -0.311  -0.576  0.00  0.00    +0.123 HD
BRANCH   6  18
ATOM     18  C   UNL     1       2.951  -0.216   1.229  0.00  0.00    +0.116 C 
BRANCH  18  25
ATOM     25  C   UNL     1       4.289  -0.715   0.753  0.00  0.00    -0.033 A 
ATOM     26  C   UNL     1       4.372  -1.901   0.023  0.00  0.00    +0.007 A 
ATOM     27  C   UNL     1       5.447   0.008   1.041  0.00  0.00    +0.007 A 
ATOM     28  C   UNL     1       5.611  -2.364  -0.419  0.00  0.00    +0.023 A 
ATOM     29  C   UNL     1       6.686  -0.454   0.600  0.00  0.00    +0.023 A 
ATOM     30  C   UNL     1       6.769  -1.640  -0.130  0.00  0.00    +0.029 A 
BRANCH  30   8
ATOM      8  N   UNL     1       8.022  -2.108  -0.576  0.00  0.00    -0.336 N 
ATOM     31  C   UNL     1       9.230  -1.360  -0.288  0.00  0.00    +0.129 C 
ATOM     32  C   UNL     1       8.118  -3.339  -1.335  0.00  0.00    +0.129 C 
ENDBRANCH  30   8
ENDBRANCH  18  25
ENDBRANCH   6  18
ENDBRANCH  11   6
BRANCH  10  15
ATOM     15  C   UNL     1      -2.983   1.494  -1.307  0.00  0.00    +0.029 C 
BRANCH  15  17
ATOM     17  C   UNL     1      -3.574   0.434  -0.388  0.00  0.00    +0.097 C 
BRANCH  17  19
ATOM      2  O   UNL     1      -4.514  -0.422  -2.387  0.00  0.00    -0.276 OA
ATOM      7  N   UNL     1      -4.999  -1.583  -0.433  0.00  0.00    -0.301 N 
ATOM     19  C   UNL     1      -4.401  -0.558  -1.166  0.00  0.00    +0.216 C 
ATOM     20  C   UNL     1      -5.780  -2.611  -1.124  0.00  0.00    +0.110 C 
ATOM     21  C   UNL     1      -4.883  -1.768   1.019  0.00  0.00    +0.110 C 
ATOM     22  C   UNL     1      -7.175  -2.733  -0.520  0.00  0.00    +0.050 C 
ATOM     23  C   UNL     1      -6.262  -1.877   1.662  0.00  0.00    +0.050 C 
ATOM     24  C   UNL     1      -7.105  -2.961   0.991  0.00  0.00    +0.118 C 
BRANCH  24   3
ATOM      3  O   UNL     1      -8.415  -2.931   1.544  0.00  0.00    -0.392 OA
ATOM     35  H   UNL     1      -8.936  -3.623   1.101  0.00  0.00    +0.210 HD
ENDBRANCH  24   3
ENDBRANCH  17  19
ENDBRANCH  15  17
ENDBRANCH  10  15
TORSDOF 8
