REMARK  Name = 7682269
REMARK  5 active torsions:
REMARK  status: ('A' for Active; 'I' for Inactive)
REMARK    1  A    between atoms: N_4  and  C_14
REMARK    2  A    between atoms: N_6  and  C_28
REMARK    3  A    between atoms: C_14  and  C_19
REMARK    4  A    between atoms: C_15  and  C_20
REMARK    5  A    between atoms: C_33  and  C_34
REMARK                            x       y       z     vdW  Elec       q    Type
REMARK                         _______ _______ _______ _____ _____    ______ ____
ROOT
ATOM      1  O   UNL     1       4.632   1.399  -2.309  0.00  0.00    -0.268 OA
ATOM      4  N   UNL     1       2.433  -0.847   1.561  0.00  0.00    -0.294 NA
ATOM      5  N   UNL     1       3.103   1.450  -0.536  0.00  0.00    -0.311 N 
ATOM      7  C   UNL     1       3.856   1.183   1.902  0.00  0.00    +0.024 C 
ATOM      8  C   UNL     1       1.481   1.460   1.382  0.00  0.00    +0.051 C 
ATOM      9  C   UNL     1       2.630   2.025   2.213  0.00  0.00    +0.017 C 
ATOM     10  C   UNL     1       3.597  -0.294   2.263  0.00  0.00    +0.090 C 
ATOM     11  C   UNL     1       1.239  -0.017   1.776  0.00  0.00    +0.094 C 
ATOM     12  C   UNL     1       4.212   1.370   0.425  0.00  0.00    +0.130 C 
ATOM     13  C   UNL     1       1.764   1.584  -0.118  0.00  0.00    +0.034 A 
ATOM     15  C   UNL     1       0.786   1.796  -1.036  0.00  0.00    +0.002 A 
ATOM     16  C   UNL     1       3.478   1.496  -1.891  0.00  0.00    +0.252 A 
ATOM     17  C   UNL     1       1.135   1.845  -2.443  0.00  0.00    +0.015 A 
ATOM     18  C   UNL     1       2.388   1.694  -2.872  0.00  0.00    +0.071 A 
ENDROOT
BRANCH  15  20
ATOM     20  C   UNL     1      -0.629   1.963  -0.641  0.00  0.00    -0.016 A 
ATOM     22  C   UNL     1      -1.454   0.847  -0.539  0.00  0.00    +0.010 A 
ATOM     23  C   UNL     1      -1.127   3.235  -0.376  0.00  0.00    +0.010 A 
ATOM     26  C   UNL     1      -2.789   1.005  -0.167  0.00  0.00    +0.024 A 
ATOM     27  C   UNL     1      -2.462   3.393  -0.004  0.00  0.00    +0.024 A 
ATOM     28  C   UNL     1      -3.293   2.278   0.101  0.00  0.00    +0.033 A 
BRANCH  28   6
ATOM      3  O   UNL     1      -5.473   0.234   0.473  0.00  0.00    -0.276 OA
ATOM      6  N   UNL     1      -4.628   2.436   0.474  0.00  0.00    -0.286 N 
ATOM     33  C   UNL     1      -5.605   1.444   0.632  0.00  0.00    +0.214 C 
ATOM     34  C   UNL     1      -6.932   2.027   1.048  0.00  0.00    +0.109 C 
ATOM     35  H   UNL     1      -4.919   3.395   0.652  0.00  0.00    +0.155 HD
ENDBRANCH  28   6
ENDBRANCH  15  20
BRANCH   4  14
ATOM     14  C   UNL     1       2.188  -2.230   1.962  0.00  0.00    +0.158 C 
BRANCH  14  19
ATOM      2  O   UNL     1       1.097  -2.619  -0.142  0.00  0.00    -0.458 OA
ATOM     19  C   UNL     1       1.064  -2.850   1.182  0.00  0.00    +0.120 A 
ATOM     21  C   UNL     1       0.008  -3.607   1.561  0.00  0.00    +0.054 A 
ATOM     24  C   UNL     1      -0.702  -3.888   0.364  0.00  0.00    +0.020 A 
ATOM     25  C   UNL     1       0.007  -3.259  -0.653  0.00  0.00    +0.135 A 
ATOM     29  C   UNL     1      -1.865  -4.603   0.029  0.00  0.00    +0.011 A 
ATOM     30  C   UNL     1      -0.360  -3.290  -1.998  0.00  0.00    +0.047 A 
ATOM     31  C   UNL     1      -2.260  -4.652  -1.315  0.00  0.00    +0.001 A 
ATOM     32  C   UNL     1      -1.519  -4.007  -2.308  0.00  0.00    +0.004 A 
ENDBRANCH  14  19
ENDBRANCH   4  14
TORSDOF 4
