REMARK  Name = 7143816
REMARK  5 active torsions:
REMARK  status: ('A' for Active; 'I' for Inactive)
REMARK    1  A    between atoms: S_1  and  N_7
REMARK    2  A    between atoms: S_1  and  C_21
REMARK    3  A    between atoms: N_9  and  C_28
REMARK    4  A    between atoms: C_19  and  C_22
REMARK    5  A    between atoms: C_31  and  C_32
REMARK                            x       y       z     vdW  Elec       q    Type
REMARK                         _______ _______ _______ _____ _____    ______ ____
ROOT
ATOM      4  O   UNL     1      -4.283   1.141  -1.534  0.00  0.00    -0.267 OA
ATOM      7  N   UNL     1       0.433  -0.036  -0.430  0.00  0.00    -0.176 NA
ATOM      8  N   UNL     1      -2.458   1.189  -0.083  0.00  0.00    -0.311 N 
ATOM     10  C   UNL     1      -0.254   2.352  -0.675  0.00  0.00    +0.025 C 
ATOM     11  C   UNL     1      -0.497   1.231   1.497  0.00  0.00    +0.052 C 
ATOM     12  C   UNL     1      -0.118   2.550   0.829  0.00  0.00    +0.017 C 
ATOM     13  C   UNL     1       0.688   1.238  -1.161  0.00  0.00    +0.114 C 
ATOM     14  C   UNL     1       0.483   0.130   1.054  0.00  0.00    +0.119 C 
ATOM     15  C   UNL     1      -1.723   2.063  -1.008  0.00  0.00    +0.130 C 
ATOM     16  C   UNL     1      -1.922   0.837   1.158  0.00  0.00    +0.026 A 
ATOM     17  C   UNL     1      -2.658   0.135   2.035  0.00  0.00    +0.022 A 
ATOM     18  C   UNL     1      -3.763   0.819  -0.465  0.00  0.00    +0.262 A 
ATOM     19  C   UNL     1      -4.550   0.002   0.524  0.00  0.00    +0.082 A 
ATOM     20  C   UNL     1      -3.989  -0.292   1.707  0.00  0.00    +0.018 A 
ENDROOT
BRANCH  19  22
ATOM      5  O   UNL     1      -6.523  -0.210  -0.978  0.00  0.00    -0.463 OA
ATOM     22  C   UNL     1      -5.907  -0.478   0.209  0.00  0.00    +0.140 A 
ATOM     27  C   UNL     1      -6.740  -1.238   1.009  0.00  0.00    +0.050 A 
ATOM     29  C   UNL     1      -7.928  -1.444   0.269  0.00  0.00    +0.042 A 
ATOM     30  C   UNL     1      -7.747  -0.799  -0.933  0.00  0.00    +0.196 A 
ENDBRANCH  19  22
BRANCH   7   1
ATOM      1  S   UNL     1       1.234  -1.416  -1.047  0.00  0.00    +0.061 S 
ATOM      2  O   UNL     1       1.242  -1.352  -2.493  0.00  0.00    -0.153 OA
ATOM      3  O   UNL     1       0.746  -2.592  -0.357  0.00  0.00    -0.153 OA
BRANCH   1  21
ATOM     21  C   UNL     1       2.877  -1.099  -0.484  0.00  0.00    +0.106 A 
ATOM     23  C   UNL     1       3.744  -0.383  -1.292  0.00  0.00    +0.030 A 
ATOM     24  C   UNL     1       3.270  -1.573   0.757  0.00  0.00    +0.030 A 
ATOM     25  C   UNL     1       5.042  -0.132  -0.846  0.00  0.00    +0.025 A 
ATOM     26  C   UNL     1       4.568  -1.322   1.202  0.00  0.00    +0.025 A 
ATOM     28  C   UNL     1       5.454  -0.602   0.401  0.00  0.00    +0.033 A 
BRANCH  28   9
ATOM      6  O   UNL     1       7.720   0.882  -0.915  0.00  0.00    -0.276 OA
ATOM      9  N   UNL     1       6.752  -0.350   0.847  0.00  0.00    -0.286 N 
ATOM     31  C   UNL     1       7.772   0.349   0.189  0.00  0.00    +0.214 C 
ATOM     32  C   UNL     1       9.035   0.400   1.012  0.00  0.00    +0.109 C 
ATOM     33  H   UNL     1       6.975  -0.726   1.766  0.00  0.00    +0.155 HD
ENDBRANCH  28   9
ENDBRANCH   1  21
ENDBRANCH   7   1
TORSDOF 4
