REMARK  Name = 51137141
REMARK  6 active torsions:
REMARK  status: ('A' for Active; 'I' for Inactive)
REMARK    1  A    between atoms: S_1  and  C_18
REMARK    2  A    between atoms: S_1  and  C_23
REMARK    3  A    between atoms: N_5  and  C_13
REMARK    4  A    between atoms: C_8  and  C_12
REMARK    5  A    between atoms: C_13  and  C_14
REMARK    6  A    between atoms: C_23  and  C_26
REMARK                            x       y       z     vdW  Elec       q    Type
REMARK                         _______ _______ _______ _____ _____    ______ ____
ROOT
ATOM      2  O   UNL     1       1.079  -2.012   0.330  0.00  0.00    -0.439 OA
ATOM      6  N   UNL     1       0.928   0.237   0.087  0.00  0.00    -0.213 NA
ATOM     12  C   UNL     1       0.295  -0.898   0.287  0.00  0.00    +0.201 A 
ATOM     15  C   UNL     1       2.243  -0.148  -0.012  0.00  0.00    +0.111 A 
ATOM     16  C   UNL     1       2.340  -1.524   0.136  0.00  0.00    +0.155 A 
ATOM     17  C   UNL     1       3.414   0.594  -0.225  0.00  0.00    +0.058 A 
ATOM     18  C   UNL     1       4.633  -0.099  -0.278  0.00  0.00    +0.090 A 
ATOM     19  C   UNL     1       3.527  -2.244   0.089  0.00  0.00    +0.050 A 
ATOM     22  C   UNL     1       4.685  -1.489  -0.124  0.00  0.00    +0.030 A 
ENDROOT
BRANCH  12   8
ATOM      5  N   UNL     1      -3.295  -0.286  -0.113  0.00  0.00    -0.297 NA
ATOM      8  C   UNL     1      -1.187  -1.127   0.475  0.00  0.00    +0.090 C 
ATOM      9  C   UNL     1      -1.805  -0.397   1.681  0.00  0.00    +0.029 C 
ATOM     10  C   UNL     1      -2.021  -0.665  -0.727  0.00  0.00    +0.097 C 
ATOM     11  C   UNL     1      -2.927   0.451   1.096  0.00  0.00    +0.085 C 
BRANCH   5  13
ATOM     13  C   UNL     1      -4.130   0.501  -1.009  0.00  0.00    +0.119 C 
BRANCH  13  14
ATOM      7  N   UNL     1      -8.241   0.543   0.256  0.00  0.00    -0.263 NA
ATOM     14  C   UNL     1      -5.569   0.515  -0.566  0.00  0.00    -0.031 A 
ATOM     20  C   UNL     1      -6.378  -0.595  -0.782  0.00  0.00    +0.024 A 
ATOM     21  C   UNL     1      -6.095   1.640   0.061  0.00  0.00    +0.024 A 
ATOM     24  C   UNL     1      -7.694  -0.531  -0.356  0.00  0.00    +0.111 A 
ATOM     25  C   UNL     1      -7.425   1.603   0.450  0.00  0.00    +0.111 A 
ENDBRANCH  13  14
ENDBRANCH   5  13
ENDBRANCH  12   8
BRANCH  18   1
ATOM      1  S   UNL     1       6.113   0.794  -0.545  0.00  0.00    -0.003 S 
ATOM      3  O   UNL     1       7.105  -0.105  -1.117  0.00  0.00    -0.169 OA
ATOM      4  O   UNL     1       5.771   2.029  -1.233  0.00  0.00    -0.169 OA
BRANCH   1  23
ATOM     23  C   UNL     1       6.673   1.214   1.090  0.00  0.00    +0.168 C 
ATOM     26  C   UNL     1       7.964   2.001   1.049  0.00  0.00    +0.028 C 
ENDBRANCH   1  23
ENDBRANCH  18   1
TORSDOF 5
