REMARK  Name = 26742249
REMARK  10 active torsions:
REMARK  status: ('A' for Active; 'I' for Inactive)
REMARK    1  A    between atoms: O_1  and  C_9
REMARK    2  A    between atoms: O_3  and  C_27
REMARK    3  A    between atoms: O_3  and  C_29
REMARK    4  A    between atoms: O_4  and  C_28
REMARK    5  A    between atoms: N_6  and  C_14
REMARK    6  A    between atoms: N_7  and  C_8
REMARK    7  A    between atoms: C_14  and  C_15
REMARK    8  A    between atoms: C_16  and  C_19
REMARK    9  A    between atoms: C_22  and  C_28
REMARK   10  A    between atoms: C_29  and  C_30
REMARK                            x       y       z     vdW  Elec       q    Type
REMARK                         _______ _______ _______ _____ _____    ______ ____
ROOT
ATOM      6  N   UNL     1       4.657  -0.548   0.765  0.00  0.00    -0.296 NA
ATOM      8  C   UNL     1       4.008   1.610  -0.356  0.00  0.00    +0.116 C 
ATOM      9  C   UNL     1       4.515   2.476   0.808  0.00  0.00    +0.136 C 
ATOM     10  C   UNL     1       4.619   0.209  -0.498  0.00  0.00    +0.109 C 
ATOM     11  C   UNL     1       5.966   2.224   1.217  0.00  0.00    +0.034 C 
ATOM     12  C   UNL     1       6.111   1.008   2.128  0.00  0.00    +0.018 C 
ATOM     13  C   UNL     1       5.943  -0.354   1.456  0.00  0.00    +0.085 C 
ENDROOT
BRANCH   8   7
ATOM      2  O   UNL     1       2.198   1.439  -2.576  0.00  0.00    -0.270 OA
ATOM      7  N   UNL     1       2.561   1.510  -0.288  0.00  0.00    -0.305 N 
ATOM     16  C   UNL     1       1.777   1.432  -1.423  0.00  0.00    +0.244 C 
ATOM     36  H   UNL     1       2.143   1.507   0.635  0.00  0.00    +0.149 HD
BRANCH  16  19
ATOM     19  C   UNL     1       0.312   1.361  -1.185  0.00  0.00    +0.037 A 
ATOM     23  C   UNL     1      -0.575   1.835  -2.152  0.00  0.00    +0.016 A 
ATOM     24  C   UNL     1      -0.176   0.823   0.006  0.00  0.00    +0.016 A 
ATOM     25  C   UNL     1      -1.950   1.770  -1.928  0.00  0.00    +0.046 A 
ATOM     26  C   UNL     1      -1.551   0.759   0.230  0.00  0.00    +0.046 A 
ATOM     27  C   UNL     1      -2.438   1.232  -0.737  0.00  0.00    +0.121 A 
BRANCH  27   3
ATOM      3  O   UNL     1      -3.780   1.169  -0.518  0.00  0.00    -0.487 OA
BRANCH   3  29
ATOM     29  C   UNL     1      -4.210   0.607   0.721  0.00  0.00    +0.264 C 
BRANCH  29  30
ATOM     30  C   UNL     1      -5.710   0.595   0.760  0.00  0.00    -0.010 A 
ATOM     31  C   UNL     1      -6.403   1.689   1.278  0.00  0.00    +0.007 A 
ATOM     32  C   UNL     1      -6.411  -0.510   0.277  0.00  0.00    +0.007 A 
ATOM     33  C   UNL     1      -7.797   1.678   1.314  0.00  0.00    +0.000 A 
ATOM     34  C   UNL     1      -7.806  -0.521   0.313  0.00  0.00    +0.000 A 
ATOM     35  C   UNL     1      -8.498   0.573   0.832  0.00  0.00    +0.000 A 
ENDBRANCH  29  30
ENDBRANCH   3  29
ENDBRANCH  27   3
ENDBRANCH  16  19
ENDBRANCH   8   7
BRANCH   9   1
ATOM      1  O   UNL     1       4.390   3.844   0.398  0.00  0.00    -0.390 OA
ATOM     37  H   UNL     1       4.622   4.401   1.160  0.00  0.00    +0.210 HD
ENDBRANCH   9   1
BRANCH   6  14
ATOM     14  C   UNL     1       4.473  -1.978   0.489  0.00  0.00    +0.119 C 
BRANCH  14  15
ATOM     15  C   UNL     1       3.028  -2.320   0.239  0.00  0.00    -0.033 A 
ATOM     17  C   UNL     1       2.582  -2.550  -1.063  0.00  0.00    +0.006 A 
ATOM     18  C   UNL     1       2.136  -2.406   1.308  0.00  0.00    +0.006 A 
ATOM     20  C   UNL     1       1.244  -2.866  -1.295  0.00  0.00    +0.015 A 
ATOM     21  C   UNL     1       0.797  -2.722   1.075  0.00  0.00    +0.015 A 
ATOM     22  C   UNL     1       0.351  -2.953  -0.227  0.00  0.00    +0.059 A 
BRANCH  22  28
ATOM      5  O   UNL     1      -1.546  -3.507  -1.575  0.00  0.00    -0.245 OA
ATOM     28  C   UNL     1      -1.044  -3.283  -0.469  0.00  0.00    +0.337 C 
BRANCH  28   4
ATOM      4  O   UNL     1      -1.775  -3.327   0.679  0.00  0.00    -0.477 OA
ATOM     38  H   UNL     1      -2.715  -3.547   0.504  0.00  0.00    +0.295 HD
ENDBRANCH  28   4
ENDBRANCH  22  28
ENDBRANCH  14  15
ENDBRANCH   6  14
TORSDOF 10
