REMARK  Name = 51137435
REMARK  6 active torsions:
REMARK  status: ('A' for Active; 'I' for Inactive)
REMARK    1  A    between atoms: O_2  and  C_13
REMARK    2  A    between atoms: N_3  and  C_10
REMARK    3  A    between atoms: C_6  and  C_11
REMARK    4  A    between atoms: C_10  and  C_12
REMARK    5  A    between atoms: C_14  and  C_16
REMARK    6  A    between atoms: C_24  and  C_25
REMARK                            x       y       z     vdW  Elec       q    Type
REMARK                         _______ _______ _______ _____ _____    ______ ____
ROOT
ATOM      3  N   UNL     1      -2.272  -0.513  -0.061  0.00  0.00    -0.297 NA
ATOM      6  C   UNL     1      -0.399  -1.844   0.404  0.00  0.00    +0.092 C 
ATOM      7  C   UNL     1      -0.872  -1.153   1.695  0.00  0.00    +0.029 C 
ATOM      8  C   UNL     1      -1.095  -1.075  -0.727  0.00  0.00    +0.097 C 
ATOM      9  C   UNL     1      -1.780  -0.023   1.226  0.00  0.00    +0.085 C 
ENDROOT
BRANCH   6  11
ATOM      1  O   UNL     1       1.770  -0.727   0.197  0.00  0.00    -0.420 OA
ATOM      4  N   UNL     1       1.883  -2.959   0.112  0.00  0.00    -0.112 NA
ATOM      5  N   UNL     1       3.166  -2.462  -0.016  0.00  0.00    -0.107 NA
ATOM     11  C   UNL     1       1.101  -1.912   0.234  0.00  0.00    +0.222 A 
ATOM     14  C   UNL     1       3.053  -1.156   0.039  0.00  0.00    +0.248 A 
BRANCH  14  16
ATOM     16  C   UNL     1       4.052  -0.130  -0.040  0.00  0.00    +0.038 A 
ATOM     20  C   UNL     1       5.394  -0.475  -0.201  0.00  0.00    +0.013 A 
ATOM     21  C   UNL     1       3.682   1.212   0.045  0.00  0.00    +0.013 A 
ATOM     22  C   UNL     1       6.366   0.522  -0.278  0.00  0.00    +0.004 A 
ATOM     23  C   UNL     1       4.654   2.209  -0.032  0.00  0.00    +0.004 A 
ATOM     24  C   UNL     1       5.996   1.864  -0.193  0.00  0.00    -0.050 A 
ATOM     25  C   UNL     1       7.036   2.931  -0.275  0.00  0.00    +0.044 C 
ENDBRANCH  14  16
ENDBRANCH   6  11
BRANCH   3  10
ATOM     10  C   UNL     1      -2.907   0.535  -0.847  0.00  0.00    +0.123 C 
BRANCH  10  12
ATOM     12  C   UNL     1      -4.319   0.798  -0.395  0.00  0.00    +0.008 A 
ATOM     13  C   UNL     1      -5.351  -0.077  -0.733  0.00  0.00    +0.121 A 
ATOM     15  C   UNL     1      -4.589   1.932   0.371  0.00  0.00    +0.008 A 
ATOM     17  C   UNL     1      -6.653   0.182  -0.306  0.00  0.00    +0.046 A 
ATOM     18  C   UNL     1      -5.891   2.191   0.799  0.00  0.00    +0.001 A 
ATOM     19  C   UNL     1      -6.923   1.316   0.460  0.00  0.00    +0.004 A 
BRANCH  13   2
ATOM      2  O   UNL     1      -5.104  -1.189  -1.480  0.00  0.00    -0.506 OA
ATOM     26  H   UNL     1      -5.937  -1.673  -1.613  0.00  0.00    +0.292 HD
ENDBRANCH  13   2
ENDBRANCH  10  12
ENDBRANCH   3  10
TORSDOF 5
