REMARK  Name = 75536107
REMARK  9 active torsions:
REMARK  status: ('A' for Active; 'I' for Inactive)
REMARK    1  A    between atoms: O_1  and  C_9
REMARK    2  A    between atoms: O_2  and  C_11
REMARK    3  A    between atoms: O_3  and  C_19
REMARK    4  A    between atoms: O_3  and  C_27
REMARK    5  A    between atoms: N_4  and  C_7
REMARK    6  A    between atoms: N_4  and  C_13
REMARK    7  A    between atoms: N_5  and  C_22
REMARK    8  A    between atoms: C_8  and  C_12
REMARK    9  A    between atoms: C_13  and  C_16
REMARK                            x       y       z     vdW  Elec       q    Type
REMARK                         _______ _______ _______ _____ _____    ______ ____
ROOT
ATOM      7  C   UNL     1       0.972   1.454  -0.657  0.00  0.00    +0.093 C 
ATOM      8  C   UNL     1       1.694   1.007   0.651  0.00  0.00    +0.041 C 
ATOM      9  C   UNL     1       1.304   2.947  -0.808  0.00  0.00    +0.160 C 
ATOM     10  C   UNL     1       2.392   2.267   1.199  0.00  0.00    +0.043 C 
ATOM     11  C   UNL     1       1.573   3.411   0.620  0.00  0.00    +0.145 C 
ENDROOT
BRANCH   8  12
ATOM     12  C   UNL     1       2.635  -0.165   0.468  0.00  0.00    -0.042 A 
ATOM     14  C   UNL     1       3.701  -0.069  -0.427  0.00  0.00    +0.007 A 
ATOM     15  C   UNL     1       2.436  -1.340   1.193  0.00  0.00    +0.007 A 
ATOM     17  C   UNL     1       4.568  -1.148  -0.596  0.00  0.00    +0.046 A 
ATOM     18  C   UNL     1       3.304  -2.419   1.023  0.00  0.00    +0.046 A 
ATOM     19  C   UNL     1       4.370  -2.323   0.129  0.00  0.00    +0.120 A 
BRANCH  19   3
ATOM      3  O   UNL     1       5.215  -3.376  -0.037  0.00  0.00    -0.495 OA
ATOM     27  C   UNL     1       6.284  -3.210  -0.968  0.00  0.00    +0.277 C 
ENDBRANCH  19   3
ENDBRANCH   8  12
BRANCH   9   1
ATOM      1  O   UNL     1       2.480   3.067  -1.608  0.00  0.00    -0.388 OA
ATOM     29  H   UNL     1       2.260   2.747  -2.500  0.00  0.00    +0.210 HD
ENDBRANCH   9   1
BRANCH  11   2
ATOM      2  O   UNL     1       2.283   4.632   0.671  0.00  0.00    -0.389 OA
ATOM     30  H   UNL     1       2.493   4.809   1.604  0.00  0.00    +0.210 HD
ENDBRANCH  11   2
BRANCH   7   4
ATOM      4  N   UNL     1      -0.474   1.279  -0.505  0.00  0.00    -0.304 NA
ATOM     28  H   UNL     1      -0.958   1.849  -1.198  0.00  0.00    +0.123 HD
BRANCH   4  13
ATOM     13  C   UNL     1      -0.852  -0.114  -0.702  0.00  0.00    +0.156 C 
BRANCH  13  16
ATOM      5  N   UNL     1      -2.937  -0.349   0.685  0.00  0.00    -0.330 N 
ATOM      6  N   UNL     1      -3.198  -0.491  -1.517  0.00  0.00    -0.231 NA
ATOM     16  C   UNL     1      -2.334  -0.320  -0.542  0.00  0.00    +0.124 A 
ATOM     20  C   UNL     1      -4.278  -0.553   0.489  0.00  0.00    +0.069 A 
ATOM     21  C   UNL     1      -4.417  -0.638  -0.894  0.00  0.00    +0.089 A 
ATOM     22  C   UNL     1      -2.280  -0.195   1.964  0.00  0.00    +0.150 C 
ATOM     23  C   UNL     1      -5.350  -0.666   1.375  0.00  0.00    +0.028 A 
ATOM     24  C   UNL     1      -5.693  -0.848  -1.443  0.00  0.00    +0.030 A 
ATOM     25  C   UNL     1      -6.613  -0.875   0.811  0.00  0.00    +0.002 A 
ATOM     26  C   UNL     1      -6.784  -0.965  -0.573  0.00  0.00    +0.002 A 
ENDBRANCH  13  16
ENDBRANCH   4  13
ENDBRANCH   7   4
TORSDOF 7
