REMARK  Name = 51138115
REMARK  9 active torsions:
REMARK  status: ('A' for Active; 'I' for Inactive)
REMARK    1  A    between atoms: N_3  and  C_21
REMARK    2  A    between atoms: N_4  and  C_23
REMARK    3  A    between atoms: C_5  and  C_9
REMARK    4  A    between atoms: C_8  and  C_16
REMARK    5  A    between atoms: C_9  and  C_13
REMARK    6  A    between atoms: C_13  and  C_19
REMARK    7  A    between atoms: C_13  and  C_20
REMARK    8  A    between atoms: C_21  and  C_22
REMARK    9  A    between atoms: C_23  and  C_25
REMARK                            x       y       z     vdW  Elec       q    Type
REMARK                         _______ _______ _______ _____ _____    ______ ____
ROOT
ATOM      2  N   UNL     1      -1.301  -0.242  -0.396  0.00  0.00    -0.299 NA
ATOM      3  N   UNL     1       3.510   1.188   0.168  0.00  0.00    -0.343 N 
ATOM      5  C   UNL     1      -0.629  -1.362   0.276  0.00  0.00    +0.085 C 
ATOM      6  C   UNL     1       0.894  -1.251   0.401  0.00  0.00    -0.021 A 
ATOM      7  C   UNL     1       1.646  -0.052   0.238  0.00  0.00    +0.008 A 
ATOM      8  C   UNL     1      -1.192   1.036   0.294  0.00  0.00    +0.145 C 
ATOM     10  C   UNL     1       1.300   1.314  -0.050  0.00  0.00    -0.020 A 
ATOM     11  C   UNL     1      -0.060   1.887  -0.276  0.00  0.00    +0.065 C 
ATOM     12  C   UNL     1       3.037  -0.083   0.392  0.00  0.00    +0.050 A 
ATOM     14  C   UNL     1       2.475   2.036  -0.093  0.00  0.00    +0.090 A 
ATOM     15  C   UNL     1       1.629  -2.403   0.782  0.00  0.00    +0.006 A 
ATOM     17  C   UNL     1       3.747  -1.238   0.722  0.00  0.00    +0.026 A 
ATOM     18  C   UNL     1       3.015  -2.400   0.929  0.00  0.00    +0.002 A 
ATOM     27  H   UNL     1      -0.996  -0.163  -1.366  0.00  0.00    +0.123 HD
ENDROOT
BRANCH   8  16
ATOM      1  O   UNL     1      -2.666   2.470  -0.917  0.00  0.00    -0.274 OA
ATOM      4  N   UNL     1      -3.435   1.443   1.026  0.00  0.00    -0.310 N 
ATOM     16  C   UNL     1      -2.498   1.728   0.047  0.00  0.00    +0.231 C 
ATOM     28  H   UNL     1      -3.197   0.795   1.771  0.00  0.00    +0.149 HD
BRANCH   4  23
ATOM     23  C   UNL     1      -4.768   2.003   1.032  0.00  0.00    +0.131 C 
BRANCH  23  25
ATOM     25  C   UNL     1      -5.680   1.098   0.272  0.00  0.00    -0.016 C 
ATOM     26  C   UNL     1      -6.383   1.478  -0.801  0.00  0.00    +0.005 C 
ENDBRANCH  23  25
ENDBRANCH   4  23
ENDBRANCH   8  16
BRANCH   5   9
ATOM      9  C   UNL     1      -1.068  -2.609  -0.512  0.00  0.00    +0.026 C 
BRANCH   9  13
ATOM     13  C   UNL     1      -2.497  -3.051  -0.184  0.00  0.00    -0.015 C 
ATOM     19  C   UNL     1      -2.824  -4.324  -0.969  0.00  0.00    +0.007 C 
ATOM     20  C   UNL     1      -3.534  -1.972  -0.496  0.00  0.00    +0.007 C 
ENDBRANCH   9  13
ENDBRANCH   5   9
BRANCH   3  21
ATOM     21  C   UNL     1       4.899   1.591   0.217  0.00  0.00    +0.148 C 
BRANCH  21  22
ATOM     22  C   UNL     1       5.643   1.240  -1.037  0.00  0.00    -0.013 C 
ATOM     24  C   UNL     1       6.741   0.476  -1.065  0.00  0.00    +0.005 C 
ENDBRANCH  21  22
ENDBRANCH   3  21
TORSDOF 7
