REMARK  Name = 75368488
REMARK  4 active torsions:
REMARK  status: ('A' for Active; 'I' for Inactive)
REMARK    1  A    between atoms: O_4  and  C_25
REMARK    2  A    between atoms: O_4  and  C_26
REMARK    3  A    between atoms: N_5  and  C_10
REMARK    4  A    between atoms: C_19  and  C_20
REMARK                            x       y       z     vdW  Elec       q    Type
REMARK                         _______ _______ _______ _____ _____    ______ ____
ROOT
ATOM      2  O   UNL     1      -3.610   2.486   0.546  0.00  0.00    -0.252 OA
ATOM      3  O   UNL     1       3.344   2.921   0.038  0.00  0.00    -0.270 OA
ATOM      5  N   UNL     1      -2.965   0.247   0.184  0.00  0.00    -0.280 N 
ATOM      6  N   UNL     1      -1.364   1.807   0.418  0.00  0.00    -0.278 N 
ATOM      7  N   UNL     1       1.297   1.875  -0.379  0.00  0.00    -0.294 N 
ATOM      8  C   UNL     1      -0.641   0.550   0.333  0.00  0.00    +0.112 C 
ATOM      9  C   UNL     1      -1.718  -0.465  -0.039  0.00  0.00    +0.133 C 
ATOM     11  C   UNL     1       0.501   0.667  -0.671  0.00  0.00    +0.132 C 
ATOM     12  C   UNL     1      -0.635   3.050   0.607  0.00  0.00    +0.128 C 
ATOM     13  C   UNL     1      -2.754   1.623   0.405  0.00  0.00    +0.305 C 
ATOM     14  C   UNL     1       0.529   3.128  -0.379  0.00  0.00    +0.127 C 
ATOM     19  C   UNL     1       2.675   1.908  -0.162  0.00  0.00    +0.247 C 
ENDROOT
BRANCH   5  10
ATOM      1  O   UNL     1      -5.768  -2.807  -0.361  0.00  0.00    -0.380 OA
ATOM     10  C   UNL     1      -4.247  -0.398   0.049  0.00  0.00    +0.082 C 
ATOM     15  C   UNL     1      -4.394  -1.051  -1.326  0.00  0.00    +0.050 C 
ATOM     16  C   UNL     1      -4.456  -1.434   1.154  0.00  0.00    +0.050 C 
ATOM     17  C   UNL     1      -5.695  -1.840  -1.409  0.00  0.00    +0.161 C 
ATOM     18  C   UNL     1      -5.752  -2.203   0.932  0.00  0.00    +0.161 C 
ENDBRANCH   5  10
BRANCH  19  20
ATOM     20  C   UNL     1       3.406   0.634  -0.156  0.00  0.00    +0.037 A 
ATOM     21  C   UNL     1       3.938   0.130  -1.343  0.00  0.00    +0.016 A 
ATOM     22  C   UNL     1       3.567  -0.072   1.035  0.00  0.00    +0.016 A 
ATOM     23  C   UNL     1       4.630  -1.081  -1.338  0.00  0.00    +0.046 A 
ATOM     24  C   UNL     1       4.259  -1.283   1.040  0.00  0.00    +0.046 A 
ATOM     25  C   UNL     1       4.791  -1.787  -0.146  0.00  0.00    +0.120 A 
BRANCH  25   4
ATOM      4  O   UNL     1       5.467  -2.969  -0.142  0.00  0.00    -0.495 OA
ATOM     26  C   UNL     1       5.594  -3.639   1.111  0.00  0.00    +0.277 C 
ENDBRANCH  25   4
ENDBRANCH  19  20
TORSDOF 3
