REMARK  Name = 45783371
REMARK  8 active torsions:
REMARK  status: ('A' for Active; 'I' for Inactive)
REMARK    1  A    between atoms: O_2  and  C_27
REMARK    2  A    between atoms: O_2  and  C_28
REMARK    3  A    between atoms: N_3  and  C_12
REMARK    4  A    between atoms: N_6  and  C_24
REMARK    5  A    between atoms: C_8  and  C_13
REMARK    6  A    between atoms: C_12  and  C_14
REMARK    7  A    between atoms: C_15  and  C_18
REMARK    8  A    between atoms: C_24  and  C_27
REMARK                            x       y       z     vdW  Elec       q    Type
REMARK                         _______ _______ _______ _____ _____    ______ ____
ROOT
ATOM      1  O   UNL     1      -0.899   2.782   1.211  0.00  0.00    -0.336 OA
ATOM      4  N   UNL     1      -1.126   1.132  -0.287  0.00  0.00    -0.190 NA
ATOM      5  N   UNL     1      -2.127   2.169   1.490  0.00  0.00    -0.056 NA
ATOM     13  C   UNL     1      -0.376   2.111   0.151  0.00  0.00    +0.245 A 
ATOM     15  C   UNL     1      -2.189   1.206   0.565  0.00  0.00    +0.205 A 
ENDROOT
BRANCH  15  18
ATOM      6  N   UNL     1      -1.887  -1.445  -0.407  0.00  0.00    -0.326 N 
ATOM      7  N   UNL     1      -4.197  -1.866  -0.113  0.00  0.00    -0.240 NA
ATOM     18  C   UNL     1      -3.300   0.303   0.465  0.00  0.00    +0.062 A 
ATOM     22  C   UNL     1      -3.170  -0.993  -0.007  0.00  0.00    +0.130 A 
ATOM     23  C   UNL     1      -4.564   0.732   0.854  0.00  0.00    +0.016 A 
ATOM     25  C   UNL     1      -5.646  -0.137   0.759  0.00  0.00    +0.020 A 
ATOM     26  C   UNL     1      -5.411  -1.414   0.274  0.00  0.00    +0.113 A 
ATOM     29  H   UNL     1      -1.096  -0.961   0.004  0.00  0.00    +0.148 HD
BRANCH   6  24
ATOM     24  C   UNL     1      -1.657  -2.762  -0.905  0.00  0.00    +0.131 C 
BRANCH  24  27
ATOM     27  C   UNL     1      -0.181  -2.950  -1.213  0.00  0.00    +0.178 C 
BRANCH  27   2
ATOM      2  O   UNL     1       0.214  -2.025  -2.218  0.00  0.00    -0.381 OA
ATOM     28  C   UNL     1       1.590  -2.168  -2.545  0.00  0.00    +0.194 C 
ENDBRANCH  27   2
ENDBRANCH  24  27
ENDBRANCH   6  24
ENDBRANCH  15  18
BRANCH  13   8
ATOM      3  N   UNL     1       1.991   1.520  -0.340  0.00  0.00    -0.287 NA
ATOM      8  C   UNL     1       0.971   2.588  -0.351  0.00  0.00    +0.146 C 
ATOM      9  C   UNL     1       0.924   3.068  -1.813  0.00  0.00    +0.030 C 
ATOM     10  C   UNL     1       1.993   2.257  -2.533  0.00  0.00    +0.017 C 
ATOM     11  C   UNL     1       2.928   1.833  -1.419  0.00  0.00    +0.085 C 
BRANCH   3  12
ATOM     12  C   UNL     1       2.663   1.382   0.946  0.00  0.00    +0.120 C 
BRANCH  12  14
ATOM     14  C   UNL     1       3.310   0.031   1.098  0.00  0.00    -0.033 A 
ATOM     16  C   UNL     1       2.592  -1.028   1.654  0.00  0.00    +0.005 A 
ATOM     17  C   UNL     1       4.628  -0.162   0.684  0.00  0.00    +0.005 A 
ATOM     19  C   UNL     1       3.191  -2.280   1.795  0.00  0.00    +0.000 A 
ATOM     20  C   UNL     1       5.227  -1.413   0.824  0.00  0.00    +0.000 A 
ATOM     21  C   UNL     1       4.509  -2.472   1.380  0.00  0.00    +0.000 A 
ENDBRANCH  12  14
ENDBRANCH   3  12
ENDBRANCH  13   8
TORSDOF 7
