REMARK  Name = 38027180
REMARK  14 active torsions:
REMARK  status: ('A' for Active; 'I' for Inactive)
REMARK    1  A    between atoms: N_4  and  C_14
REMARK    2  A    between atoms: N_5  and  C_21
REMARK    3  A    between atoms: N_5  and  C_22
REMARK    4  A    between atoms: N_6  and  C_31
REMARK    5  A    between atoms: C_7  and  C_11
REMARK    6  A    between atoms: C_8  and  C_14
REMARK    7  A    between atoms: C_10  and  C_15
REMARK    8  A    between atoms: C_11  and  C_16
REMARK    9  A    between atoms: C_11  and  C_17
REMARK   10  A    between atoms: C_12  and  C_18
REMARK   11  A    between atoms: C_15  and  C_19
REMARK   12  A    between atoms: C_20  and  C_23
REMARK   13  A    between atoms: C_21  and  C_24
REMARK   14  A    between atoms: C_35  and  C_36
REMARK                            x       y       z     vdW  Elec       q    Type
REMARK                         _______ _______ _______ _____ _____    ______ ____
ROOT
ATOM      7  C   UNL     1      -1.710   2.681  -0.444  0.00  0.00    +0.000 C 
ATOM      8  C   UNL     1      -0.997   3.930   0.131  0.00  0.00    +0.032 C 
ATOM      9  C   UNL     1      -2.703   2.111   0.581  0.00  0.00    +0.012 C 
ATOM     10  C   UNL     1      -2.014   1.716   1.901  0.00  0.00    +0.023 C 
ATOM     12  C   UNL     1      -1.079   2.801   2.395  0.00  0.00    -0.073 C 
ATOM     13  C   UNL     1      -0.645   3.790   1.593  0.00  0.00    -0.022 C 
ATOM     18  C   UNL     1      -0.689   2.749   3.846  0.00  0.00    +0.039 C 
ENDROOT
BRANCH   7  11
ATOM     11  C   UNL     1      -2.440   2.995  -1.754  0.00  0.00    -0.013 C 
ATOM     16  C   UNL     1      -2.606   1.728  -2.587  0.00  0.00    +0.007 C 
ATOM     17  C   UNL     1      -3.794   3.636  -1.467  0.00  0.00    +0.007 C 
ENDBRANCH   7  11
BRANCH   8  14
ATOM     14  C   UNL     1       0.269   4.261  -0.669  0.00  0.00    +0.112 C 
BRANCH  14   4
ATOM      2  O   UNL     1       1.389   2.616  -2.739  0.00  0.00    -0.270 OA
ATOM      4  N   UNL     1       1.245   3.174  -0.495  0.00  0.00    -0.311 N 
ATOM     20  C   UNL     1       1.712   2.452  -1.565  0.00  0.00    +0.244 C 
ATOM     37  H   UNL     1       1.637   3.049   0.432  0.00  0.00    +0.149 HD
BRANCH  20  23
ATOM     23  C   UNL     1       2.671   1.372  -1.220  0.00  0.00    +0.037 A 
ATOM     25  C   UNL     1       3.619   0.956  -2.156  0.00  0.00    +0.015 A 
ATOM     26  C   UNL     1       2.625   0.773   0.039  0.00  0.00    +0.015 A 
ATOM     29  C   UNL     1       4.520  -0.058  -1.833  0.00  0.00    +0.024 A 
ATOM     30  C   UNL     1       3.526  -0.242   0.362  0.00  0.00    +0.024 A 
ATOM     31  C   UNL     1       4.474  -0.657  -0.574  0.00  0.00    +0.033 A 
BRANCH  31   6
ATOM      3  O   UNL     1       4.794  -2.255   1.958  0.00  0.00    -0.276 OA
ATOM      6  N   UNL     1       5.376  -1.671  -0.251  0.00  0.00    -0.286 N 
ATOM     35  C   UNL     1       5.482  -2.384   0.951  0.00  0.00    +0.214 C 
ATOM     36  C   UNL     1       6.593  -3.404   0.900  0.00  0.00    +0.109 C 
ATOM     38  H   UNL     1       6.035  -1.916  -0.986  0.00  0.00    +0.155 HD
ENDBRANCH  31   6
ENDBRANCH  20  23
ENDBRANCH  14   4
ENDBRANCH   8  14
BRANCH  10  15
ATOM     15  C   UNL     1      -1.279   0.379   1.762  0.00  0.00    +0.103 C 
BRANCH  15  19
ATOM      1  O   UNL     1      -3.451  -0.633   1.815  0.00  0.00    -0.276 OA
ATOM      5  N   UNL     1      -1.635  -2.061   1.607  0.00  0.00    -0.300 N 
ATOM     19  C   UNL     1      -2.232  -0.802   1.732  0.00  0.00    +0.216 C 
ATOM     22  C   UNL     1      -0.191  -2.236   1.511  0.00  0.00    +0.132 C 
BRANCH   5  21
ATOM     21  C   UNL     1      -2.415  -3.296   1.564  0.00  0.00    +0.142 C 
BRANCH  21  24
ATOM     24  C   UNL     1      -2.754  -3.697   0.157  0.00  0.00    -0.030 A 
ATOM     27  C   UNL     1      -3.933  -3.241  -0.433  0.00  0.00    +0.005 A 
ATOM     28  C   UNL     1      -1.891  -4.526  -0.559  0.00  0.00    +0.005 A 
ATOM     32  C   UNL     1      -4.248  -3.614  -1.740  0.00  0.00    +0.000 A 
ATOM     33  C   UNL     1      -2.206  -4.899  -1.866  0.00  0.00    +0.000 A 
ATOM     34  C   UNL     1      -3.384  -4.443  -2.456  0.00  0.00    +0.000 A 
ENDBRANCH  21  24
ENDBRANCH   5  21
ENDBRANCH  15  19
ENDBRANCH  10  15
TORSDOF 9
