REMARK  Name = 28960653
REMARK  6 active torsions:
REMARK  status: ('A' for Active; 'I' for Inactive)
REMARK    1  A    between atoms: N_6  and  C_18
REMARK    2  A    between atoms: N_7  and  C_13
REMARK    3  A    between atoms: N_9  and  C_21
REMARK    4  A    between atoms: C_14  and  C_17
REMARK    5  A    between atoms: C_20  and  C_22
REMARK    6  A    between atoms: C_25  and  C_29
REMARK                            x       y       z     vdW  Elec       q    Type
REMARK                         _______ _______ _______ _____ _____    ______ ____
ROOT
ATOM      6  N   UNL     1      -2.546   2.842   1.357  0.00  0.00    -0.293 NA
ATOM     13  C   UNL     1      -0.742   3.381  -0.017  0.00  0.00    +0.090 C 
ATOM     14  C   UNL     1      -3.050   2.580  -0.005  0.00  0.00    +0.147 C 
ATOM     15  C   UNL     1      -1.824   2.785  -0.917  0.00  0.00    +0.052 C 
ATOM     16  C   UNL     1      -1.502   3.861   1.210  0.00  0.00    +0.107 C 
ATOM     18  C   UNL     1      -3.590   3.262   2.284  0.00  0.00    +0.105 C 
ENDROOT
BRANCH  13   7
ATOM      5  O   UNL     1       1.708   2.858  -1.406  0.00  0.00    -0.253 OA
ATOM      7  N   UNL     1       0.257   2.400   0.335  0.00  0.00    -0.295 N 
ATOM      9  N   UNL     1       2.203   1.194   0.174  0.00  0.00    -0.269 N 
ATOM     19  C   UNL     1       1.431   2.207  -0.401  0.00  0.00    +0.304 C 
ATOM     32  H   UNL     1       0.065   1.772   1.110  0.00  0.00    +0.151 HD
ATOM     33  H   UNL     1       1.828   0.753   1.010  0.00  0.00    +0.156 HD
BRANCH   9  21
ATOM     21  C   UNL     1       3.454   0.701  -0.265  0.00  0.00    +0.035 A 
ATOM     23  C   UNL     1       4.086  -0.325   0.439  0.00  0.00    +0.035 A 
ATOM     24  C   UNL     1       4.056   1.240  -1.402  0.00  0.00    +0.023 A 
ATOM     25  C   UNL     1       5.319  -0.811   0.005  0.00  0.00    +0.057 A 
ATOM     27  C   UNL     1       5.289   0.753  -1.836  0.00  0.00    +0.002 A 
ATOM     28  C   UNL     1       5.921  -0.272  -1.132  0.00  0.00    +0.012 A 
BRANCH  25  29
ATOM      1  F   UNL     1       7.190  -2.266   0.203  0.00  0.00    -0.166 F 
ATOM      2  F   UNL     1       6.275  -1.589   2.056  0.00  0.00    -0.166 F 
ATOM      3  F   UNL     1       5.262  -3.058   0.823  0.00  0.00    -0.166 F 
ATOM     29  C   UNL     1       5.995  -1.907   0.757  0.00  0.00    +0.417 C 
ENDBRANCH  25  29
ENDBRANCH   9  21
ENDBRANCH  13   7
BRANCH  14  17
ATOM      4  O   UNL     1      -4.960   1.176  -0.597  0.00  0.00    -0.336 OA
ATOM      8  N   UNL     1      -3.148   0.030   0.052  0.00  0.00    -0.189 NA
ATOM     10  N   UNL     1      -5.311  -0.178  -0.666  0.00  0.00    -0.054 NA
ATOM     17  C   UNL     1      -3.672   1.210  -0.166  0.00  0.00    +0.245 A 
ATOM     20  C   UNL     1      -4.191  -0.790  -0.268  0.00  0.00    +0.222 A 
BRANCH  20  22
ATOM     11  N   UNL     1      -5.173  -2.931  -0.522  0.00  0.00    -0.249 NA
ATOM     12  N   UNL     1      -2.797  -4.163   0.316  0.00  0.00    -0.260 NA
ATOM     22  C   UNL     1      -4.081  -2.218  -0.182  0.00  0.00    +0.129 A 
ATOM     26  C   UNL     1      -2.914  -2.823   0.230  0.00  0.00    +0.142 A 
ATOM     30  C   UNL     1      -5.056  -4.271  -0.435  0.00  0.00    +0.131 A 
ATOM     31  C   UNL     1      -3.889  -4.876  -0.024  0.00  0.00    +0.130 A 
ENDBRANCH  20  22
ENDBRANCH  14  17
TORSDOF 5
