REMARK  Name = 40781515
REMARK  7 active torsions:
REMARK  status: ('A' for Active; 'I' for Inactive)
REMARK    1  A    between atoms: O_2  and  C_11
REMARK    2  A    between atoms: O_3  and  C_12
REMARK    3  A    between atoms: N_6  and  C_15
REMARK    4  A    between atoms: C_8  and  C_15
REMARK    5  A    between atoms: C_9  and  C_17
REMARK    6  A    between atoms: C_10  and  C_16
REMARK    7  A    between atoms: C_16  and  C_18
REMARK                            x       y       z     vdW  Elec       q    Type
REMARK                         _______ _______ _______ _____ _____    ______ ____
ROOT
ATOM      1  O   UNL     1      -1.690  -0.406  -1.059  0.00  0.00    -0.366 OA
ATOM      8  C   UNL     1      -2.857   0.233  -0.513  0.00  0.00    +0.167 C 
ATOM     10  C   UNL     1      -1.399  -1.593  -0.287  0.00  0.00    +0.159 C 
ATOM     11  C   UNL     1      -3.020  -0.338   0.886  0.00  0.00    +0.176 C 
ATOM     12  C   UNL     1      -2.559  -1.767   0.687  0.00  0.00    +0.175 C 
ENDROOT
BRANCH  11   2
ATOM      2  O   UNL     1      -4.350  -0.238   1.347  0.00  0.00    -0.387 OA
ATOM     24  H   UNL     1      -4.407  -0.732   2.183  0.00  0.00    +0.210 HD
ENDBRANCH  11   2
BRANCH  12   3
ATOM      3  O   UNL     1      -3.575  -2.528   0.034  0.00  0.00    -0.387 OA
ATOM     25  H   UNL     1      -3.226  -3.427  -0.095  0.00  0.00    +0.210 HD
ENDBRANCH  12   3
BRANCH   8  15
ATOM     15  C   UNL     1      -2.671   1.740  -0.530  0.00  0.00    +0.138 C 
BRANCH  15   6
ATOM      4  O   UNL     1       0.044   2.038  -1.527  0.00  0.00    -0.276 OA
ATOM      6  N   UNL     1      -1.507   2.127   0.210  0.00  0.00    -0.313 N 
ATOM     17  C   UNL     1      -0.243   2.244  -0.354  0.00  0.00    +0.216 C 
ATOM     23  H   UNL     1      -1.621   2.334   1.198  0.00  0.00    +0.149 HD
BRANCH  17   9
ATOM      9  C   UNL     1       0.823   2.662   0.603  0.00  0.00    +0.075 C 
ATOM     13  C   UNL     1       2.247   2.714   0.132  0.00  0.00    +0.013 C 
ATOM     14  C   UNL     1       1.501   3.987   0.407  0.00  0.00    +0.013 C 
ENDBRANCH  17   9
ENDBRANCH  15   6
ENDBRANCH   8  15
BRANCH  10  16
ATOM     16  C   UNL     1      -0.062  -1.379   0.410  0.00  0.00    +0.130 C 
BRANCH  16  18
ATOM      5  O   UNL     1       0.849  -1.894  -1.730  0.00  0.00    -0.276 OA
ATOM      7  N   UNL     1       2.342  -1.379  -0.043  0.00  0.00    -0.301 N 
ATOM     18  C   UNL     1       1.074  -1.575  -0.561  0.00  0.00    +0.218 C 
ATOM     19  C   UNL     1       3.543  -1.535  -0.850  0.00  0.00    +0.108 C 
ATOM     20  C   UNL     1       2.675  -0.997   1.325  0.00  0.00    +0.108 C 
ATOM     21  C   UNL     1       4.650  -0.921  -0.006  0.00  0.00    +0.020 C 
ATOM     22  C   UNL     1       4.182  -1.195   1.418  0.00  0.00    +0.020 C 
ENDBRANCH  16  18
ENDBRANCH  10  16
TORSDOF 7
