REMARK  Name = 11911767
REMARK  7 active torsions:
REMARK  status: ('A' for Active; 'I' for Inactive)
REMARK    1  A    between atoms: N_5  and  C_12
REMARK    2  A    between atoms: N_6  and  C_13
REMARK    3  A    between atoms: N_9  and  C_26
REMARK    4  A    between atoms: N_9  and  C_29
REMARK    5  A    between atoms: N_9  and  C_30
REMARK    6  A    between atoms: C_16  and  C_18
REMARK    7  A    between atoms: C_21  and  C_27
REMARK                            x       y       z     vdW  Elec       q    Type
REMARK                         _______ _______ _______ _____ _____    ______ ____
ROOT
ATOM      1  O   UNL     1       0.806   1.577   1.626  0.00  0.00    -0.370 OA
ATOM      2  O   UNL     1       0.823   3.835  -0.527  0.00  0.00    -0.370 OA
ATOM     10  C   UNL     1       0.161   2.562  -0.441  0.00  0.00    +0.171 C 
ATOM     11  C   UNL     1       1.123   1.597   0.224  0.00  0.00    +0.171 C 
ATOM     12  C   UNL     1      -1.004   2.640   0.519  0.00  0.00    +0.130 C 
ATOM     13  C   UNL     1       2.482   2.219   0.003  0.00  0.00    +0.130 C 
ATOM     14  C   UNL     1      -0.333   2.418   1.863  0.00  0.00    +0.185 C 
ATOM     15  C   UNL     1       2.166   3.703  -0.038  0.00  0.00    +0.185 C 
ENDROOT
BRANCH  13   6
ATOM      6  N   UNL     1       3.023   1.788  -1.267  0.00  0.00    -0.306 N 
ATOM      7  N   UNL     1       3.911  -0.179  -0.345  0.00  0.00    -0.211 NA
ATOM      8  N   UNL     1       4.179   0.320  -2.687  0.00  0.00    -0.223 NA
ATOM     17  C   UNL     1       3.725   0.608  -1.438  0.00  0.00    +0.216 A 
ATOM     21  C   UNL     1       4.599  -1.322  -0.548  0.00  0.00    +0.111 A 
ATOM     22  C   UNL     1       4.859  -0.838  -2.818  0.00  0.00    +0.116 A 
ATOM     23  C   UNL     1       5.101  -1.707  -1.774  0.00  0.00    +0.051 A 
ATOM     34  H   UNL     1       2.846   2.340  -2.098  0.00  0.00    +0.149 HD
BRANCH  21  27
ATOM      4  O   UNL     1       4.235  -1.634   1.765  0.00  0.00    -0.461 OA
ATOM     27  C   UNL     1       4.780  -2.133   0.626  0.00  0.00    +0.153 A 
ATOM     28  C   UNL     1       5.398  -3.336   0.868  0.00  0.00    +0.051 A 
ATOM     31  C   UNL     1       5.222  -3.595   2.249  0.00  0.00    +0.042 A 
ATOM     32  C   UNL     1       4.509  -2.530   2.749  0.00  0.00    +0.196 A 
ENDBRANCH  21  27
ENDBRANCH  13   6
BRANCH  12   5
ATOM      3  O   UNL     1      -3.804   2.716   1.151  0.00  0.00    -0.270 OA
ATOM      5  N   UNL     1      -1.978   1.612   0.244  0.00  0.00    -0.304 N 
ATOM     16  C   UNL     1      -3.316   1.740   0.589  0.00  0.00    +0.244 C 
ATOM     33  H   UNL     1      -1.624   0.730  -0.114  0.00  0.00    +0.149 HD
BRANCH  16  18
ATOM     18  C   UNL     1      -4.185   0.581   0.260  0.00  0.00    +0.037 A 
ATOM     19  C   UNL     1      -5.317   0.362   1.017  0.00  0.00    +0.015 A 
ATOM     20  C   UNL     1      -3.833  -0.239  -0.792  0.00  0.00    +0.015 A 
ATOM     24  C   UNL     1      -6.135  -0.726   0.708  0.00  0.00    +0.024 A 
ATOM     25  C   UNL     1      -4.651  -1.326  -1.101  0.00  0.00    +0.024 A 
ATOM     26  C   UNL     1      -5.801  -1.570  -0.351  0.00  0.00    +0.029 A 
BRANCH  26   9
ATOM      9  N   UNL     1      -6.628  -2.668  -0.665  0.00  0.00    -0.336 N 
ATOM     29  C   UNL     1      -6.065  -3.864  -1.261  0.00  0.00    +0.129 C 
ATOM     30  C   UNL     1      -8.053  -2.611  -0.409  0.00  0.00    +0.129 C 
ENDBRANCH  26   9
ENDBRANCH  16  18
ENDBRANCH  12   5
TORSDOF 5
