REMARK  Name = 7050336
REMARK  9 active torsions:
REMARK  status: ('A' for Active; 'I' for Inactive)
REMARK    1  A    between atoms: S_1  and  C_30
REMARK    2  A    between atoms: S_1  and  C_33
REMARK    3  A    between atoms: O_5  and  C_25
REMARK    4  A    between atoms: O_5  and  C_32
REMARK    5  A    between atoms: N_8  and  C_17
REMARK    6  A    between atoms: N_9  and  C_11
REMARK    7  A    between atoms: C_18  and  C_21
REMARK    8  A    between atoms: C_22  and  C_27
REMARK    9  A    between atoms: C_27  and  C_31
REMARK                            x       y       z     vdW  Elec       q    Type
REMARK                         _______ _______ _______ _____ _____    ______ ____
ROOT
ATOM      2  O   UNL     1      -2.517  -1.646   0.699  0.00  0.00    -0.273 OA
ATOM      3  O   UNL     1      -2.643   2.370  -1.629  0.00  0.00    -0.252 OA
ATOM      7  N   UNL     1      -0.953   1.125  -0.641  0.00  0.00    -0.273 N 
ATOM      8  N   UNL     1      -3.031   0.292  -0.560  0.00  0.00    -0.193 N 
ATOM     10  C   UNL     1      -0.789  -0.093   0.105  0.00  0.00    +0.166 C 
ATOM     11  C   UNL     1       1.036   1.083   1.415  0.00  0.00    +0.077 C 
ATOM     12  C   UNL     1      -0.214   0.189   1.489  0.00  0.00    +0.054 C 
ATOM     13  C   UNL     1       0.776   2.345   0.574  0.00  0.00    +0.041 C 
ATOM     14  C   UNL     1       0.180   2.019  -0.797  0.00  0.00    +0.112 C 
ATOM     15  C   UNL     1      -2.222  -0.595   0.144  0.00  0.00    +0.248 C 
ATOM     16  C   UNL     1      -2.271   1.366  -1.034  0.00  0.00    +0.316 C 
ENDROOT
BRANCH   8  17
ATOM     17  C   UNL     1      -4.441   0.142  -0.753  0.00  0.00    +0.046 A 
ATOM     19  C   UNL     1      -5.217  -0.511   0.208  0.00  0.00    +0.035 A 
ATOM     20  C   UNL     1      -5.050   0.650  -1.904  0.00  0.00    +0.024 A 
ATOM     22  C   UNL     1      -6.591  -0.655   0.020  0.00  0.00    +0.019 A 
ATOM     23  C   UNL     1      -6.424   0.505  -2.092  0.00  0.00    +0.003 A 
ATOM     24  C   UNL     1      -7.195  -0.147  -1.130  0.00  0.00    +0.011 A 
BRANCH  22  27
ATOM      6  O   UNL     1      -8.626  -1.479   0.882  0.00  0.00    -0.292 OA
ATOM     27  C   UNL     1      -7.395  -1.335   1.023  0.00  0.00    +0.160 C 
ATOM     31  C   UNL     1      -6.742  -1.893   2.283  0.00  0.00    +0.091 C 
ENDBRANCH  22  27
ENDBRANCH   8  17
BRANCH  11   9
ATOM      4  O   UNL     1       3.789   1.487   2.124  0.00  0.00    -0.270 OA
ATOM      9  N   UNL     1       2.174   0.351   0.908  0.00  0.00    -0.308 N 
ATOM     18  C   UNL     1       3.472   0.621   1.313  0.00  0.00    +0.248 C 
ATOM     34  H   UNL     1       2.003  -0.300   0.149  0.00  0.00    +0.149 HD
BRANCH  18  21
ATOM     21  C   UNL     1       4.533  -0.202   0.678  0.00  0.00    +0.078 A 
ATOM     25  C   UNL     1       5.795   0.326   0.497  0.00  0.00    +0.133 A 
ATOM     26  C   UNL     1       4.211  -1.486   0.285  0.00  0.00    +0.018 A 
ATOM     28  C   UNL     1       6.777  -0.463  -0.102  0.00  0.00    +0.061 A 
ATOM     29  C   UNL     1       5.193  -2.274  -0.314  0.00  0.00    +0.015 A 
ATOM     30  C   UNL     1       6.476  -1.763  -0.507  0.00  0.00    +0.011 A 
BRANCH  30   1
ATOM      1  S   UNL     1       7.731  -2.771  -1.272  0.00  0.00    -0.128 S 
ATOM     33  C   UNL     1       8.155  -1.785  -2.736  0.00  0.00    +0.090 C 
ENDBRANCH  30   1
BRANCH  25   5
ATOM      5  O   UNL     1       6.110   1.593   0.888  0.00  0.00    -0.494 OA
ATOM     32  C   UNL     1       5.912   2.633  -0.067  0.00  0.00    +0.277 C 
ENDBRANCH  25   5
ENDBRANCH  18  21
ENDBRANCH  11   9
TORSDOF 6
