REMARK  Name = 71693195
REMARK  14 active torsions:
REMARK  status: ('A' for Active; 'I' for Inactive)
REMARK    1  A    between atoms: O_2  and  C_28
REMARK    2  A    between atoms: O_2  and  C_31
REMARK    3  A    between atoms: O_3  and  C_30
REMARK    4  A    between atoms: N_5  and  C_15
REMARK    5  A    between atoms: C_8  and  C_12
REMARK    6  A    between atoms: C_9  and  C_15
REMARK    7  A    between atoms: C_11  and  C_16
REMARK    8  A    between atoms: C_12  and  C_17
REMARK    9  A    between atoms: C_12  and  C_18
REMARK   10  A    between atoms: C_13  and  C_19
REMARK   11  A    between atoms: C_16  and  C_20
REMARK   12  A    between atoms: C_21  and  C_24
REMARK   13  A    between atoms: C_24  and  C_27
REMARK   14  A    between atoms: C_27  and  C_30
REMARK                            x       y       z     vdW  Elec       q    Type
REMARK                         _______ _______ _______ _____ _____    ______ ____
ROOT
ATOM      8  C   UNL     1       1.218   1.945  -0.850  0.00  0.00    +0.000 C 
ATOM      9  C   UNL     1       2.345   2.770  -0.179  0.00  0.00    +0.032 C 
ATOM     10  C   UNL     1      -0.144   2.297  -0.234  0.00  0.00    +0.012 C 
ATOM     11  C   UNL     1      -0.183   2.033   1.283  0.00  0.00    +0.022 C 
ATOM     13  C   UNL     1       1.040   2.588   1.983  0.00  0.00    -0.073 C 
ATOM     14  C   UNL     1       2.156   2.925   1.312  0.00  0.00    -0.022 C 
ATOM     19  C   UNL     1       0.936   2.792   3.469  0.00  0.00    +0.039 C 
ENDROOT
BRANCH   8  12
ATOM     12  C   UNL     1       1.175   2.169  -2.365  0.00  0.00    -0.013 C 
ATOM     17  C   UNL     1       0.529   0.975  -3.061  0.00  0.00    +0.007 C 
ATOM     18  C   UNL     1       0.426   3.456  -2.692  0.00  0.00    +0.007 C 
ENDBRANCH   8  12
BRANCH   9  15
ATOM     15  C   UNL     1       3.721   2.156  -0.458  0.00  0.00    +0.112 C 
BRANCH  15   5
ATOM      1  O   UNL     1       4.218  -0.378  -1.764  0.00  0.00    -0.276 OA
ATOM      5  N   UNL     1       3.840   0.873   0.160  0.00  0.00    -0.315 N 
ATOM     21  C   UNL     1       4.081  -0.307  -0.546  0.00  0.00    +0.214 C 
ATOM     32  H   UNL     1       3.800   0.826   1.175  0.00  0.00    +0.149 HD
BRANCH  21  24
ATOM     24  C   UNL     1       4.156  -1.515   0.370  0.00  0.00    +0.107 C 
BRANCH  24  27
ATOM     27  C   UNL     1       4.419  -2.809  -0.394  0.00  0.00    +0.129 C 
BRANCH  27  30
ATOM      4  O   UNL     1       4.366  -3.971   1.744  0.00  0.00    -0.251 OA
ATOM     30  C   UNL     1       4.485  -4.005   0.528  0.00  0.00    +0.305 C 
BRANCH  30   3
ATOM      3  O   UNL     1       4.694  -5.155  -0.166  0.00  0.00    -0.481 OA
ATOM     34  H   UNL     1       4.737  -5.936   0.426  0.00  0.00    +0.295 HD
ENDBRANCH  30   3
ENDBRANCH  27  30
ENDBRANCH  24  27
ENDBRANCH  21  24
ENDBRANCH  15   5
ENDBRANCH   9  15
BRANCH  11  16
ATOM     16  C   UNL     1      -0.353   0.538   1.579  0.00  0.00    +0.082 C 
BRANCH  16  20
ATOM      6  N   UNL     1      -2.830   0.223   1.425  0.00  0.00    -0.342 N 
ATOM      7  N   UNL     1      -1.627  -0.757  -0.166  0.00  0.00    -0.232 NA
ATOM     20  C   UNL     1      -1.583  -0.015   0.918  0.00  0.00    +0.109 A 
ATOM     22  C   UNL     1      -3.739  -0.406   0.613  0.00  0.00    +0.070 A 
ATOM     23  C   UNL     1      -2.963  -1.011  -0.372  0.00  0.00    +0.089 A 
ATOM     25  C   UNL     1      -5.131  -0.496   0.655  0.00  0.00    +0.073 A 
ATOM     26  C   UNL     1      -3.596  -1.753  -1.383  0.00  0.00    +0.033 A 
ATOM     28  C   UNL     1      -5.744  -1.238  -0.359  0.00  0.00    +0.122 A 
ATOM     29  C   UNL     1      -4.993  -1.857  -1.361  0.00  0.00    +0.048 A 
ATOM     33  H   UNL     1      -3.046   0.767   2.249  0.00  0.00    +0.167 HD
BRANCH  28   2
ATOM      2  O   UNL     1      -7.103  -1.360  -0.368  0.00  0.00    -0.495 OA
ATOM     31  C   UNL     1      -7.817  -0.708   0.679  0.00  0.00    +0.277 C 
ENDBRANCH  28   2
ENDBRANCH  16  20
ENDBRANCH  11  16
TORSDOF 10
