REMARK  Name = 11883387
REMARK  7 active torsions:
REMARK  status: ('A' for Active; 'I' for Inactive)
REMARK    1  A    between atoms: O_9  and  C_17
REMARK    2  A    between atoms: O_9  and  C_21
REMARK    3  A    between atoms: N_12  and  C_16
REMARK    4  A    between atoms: N_13  and  C_25
REMARK    5  A    between atoms: C_20  and  C_22
REMARK    6  A    between atoms: C_28  and  C_32
REMARK    7  A    between atoms: C_31  and  C_35
REMARK                            x       y       z     vdW  Elec       q    Type
REMARK                         _______ _______ _______ _____ _____    ______ ____
ROOT
ATOM      7  O   UNL     1      -0.077   1.632   0.983  0.00  0.00    -0.368 OA
ATOM      8  O   UNL     1      -0.545   4.025  -0.876  0.00  0.00    -0.368 OA
ATOM     14  C   UNL     1      -1.166   2.724  -0.818  0.00  0.00    +0.173 C 
ATOM     15  C   UNL     1      -0.079   1.734  -0.450  0.00  0.00    +0.192 C 
ATOM     16  C   UNL     1      -2.125   2.658   0.348  0.00  0.00    +0.130 C 
ATOM     17  C   UNL     1       1.168   2.413  -0.965  0.00  0.00    +0.235 C 
ATOM     18  C   UNL     1      -1.197   2.359   1.512  0.00  0.00    +0.185 C 
ATOM     19  C   UNL     1       0.871   3.871  -0.697  0.00  0.00    +0.207 C 
ENDROOT
BRANCH  16  12
ATOM     10  O   UNL     1      -4.748   2.530   1.509  0.00  0.00    -0.270 OA
ATOM     12  N   UNL     1      -3.096   1.607   0.168  0.00  0.00    -0.304 N 
ATOM     20  C   UNL     1      -4.345   1.633   0.773  0.00  0.00    +0.244 C 
ATOM     36  H   UNL     1      -2.794   0.782  -0.340  0.00  0.00    +0.149 HD
BRANCH  20  22
ATOM     22  C   UNL     1      -5.221   0.462   0.509  0.00  0.00    +0.037 A 
ATOM     23  C   UNL     1      -6.192   0.093   1.440  0.00  0.00    +0.013 A 
ATOM     24  C   UNL     1      -5.072  -0.269  -0.670  0.00  0.00    +0.013 A 
ATOM     26  C   UNL     1      -7.014  -1.006   1.192  0.00  0.00    +0.013 A 
ATOM     27  C   UNL     1      -5.893  -1.369  -0.917  0.00  0.00    +0.013 A 
ATOM     28  C   UNL     1      -6.864  -1.737   0.014  0.00  0.00    +0.055 A 
BRANCH  28  32
ATOM      1  F   UNL     1      -8.492  -2.790  -1.388  0.00  0.00    -0.166 F 
ATOM      2  F   UNL     1      -8.648  -3.154   0.745  0.00  0.00    -0.166 F 
ATOM      3  F   UNL     1      -7.041  -4.072  -0.397  0.00  0.00    -0.166 F 
ATOM     32  C   UNL     1      -7.744  -2.912  -0.251  0.00  0.00    +0.417 C 
ENDBRANCH  28  32
ENDBRANCH  20  22
ENDBRANCH  16  12
BRANCH  17   9
ATOM      9  O   UNL     1       2.347   1.985  -0.322  0.00  0.00    -0.442 OA
BRANCH   9  21
ATOM     11  O   UNL     1       2.673   0.417  -1.954  0.00  0.00    -0.226 OA
ATOM     13  N   UNL     1       4.165   0.659  -0.166  0.00  0.00    -0.251 N 
ATOM     21  C   UNL     1       3.043   0.953  -0.916  0.00  0.00    +0.405 C 
ATOM     37  H   UNL     1       4.305   1.219   0.671  0.00  0.00    +0.158 HD
BRANCH  13  25
ATOM     25  C   UNL     1       5.146  -0.327  -0.418  0.00  0.00    +0.037 A 
ATOM     29  C   UNL     1       6.221  -0.481   0.458  0.00  0.00    +0.035 A 
ATOM     30  C   UNL     1       5.040  -1.145  -1.542  0.00  0.00    +0.023 A 
ATOM     31  C   UNL     1       7.190  -1.453   0.208  0.00  0.00    +0.057 A 
ATOM     33  C   UNL     1       6.009  -2.117  -1.792  0.00  0.00    +0.002 A 
ATOM     34  C   UNL     1       7.084  -2.271  -0.916  0.00  0.00    +0.012 A 
BRANCH  31  35
ATOM      4  F   UNL     1       9.210  -2.604   0.774  0.00  0.00    -0.166 F 
ATOM      5  F   UNL     1       9.108  -0.494   1.268  0.00  0.00    -0.166 F 
ATOM      6  F   UNL     1       7.946  -1.933   2.411  0.00  0.00    -0.166 F 
ATOM     35  C   UNL     1       8.340  -1.617   1.143  0.00  0.00    +0.417 C 
ENDBRANCH  31  35
ENDBRANCH  13  25
ENDBRANCH   9  21
ENDBRANCH  17   9
TORSDOF 7
