REMARK  Name = 11879846
REMARK  7 active torsions:
REMARK  status: ('A' for Active; 'I' for Inactive)
REMARK    1  A    between atoms: S_1  and  N_11
REMARK    2  A    between atoms: S_1  and  C_25
REMARK    3  A    between atoms: O_4  and  C_24
REMARK    4  A    between atoms: O_8  and  C_30
REMARK    5  A    between atoms: O_8  and  C_31
REMARK    6  A    between atoms: N_11  and  C_22
REMARK    7  A    between atoms: C_21  and  C_24
REMARK                            x       y       z     vdW  Elec       q    Type
REMARK                         _______ _______ _______ _____ _____    ______ ____
ROOT
ATOM      2  O   UNL     1      -0.598  -2.205  -1.763  0.00  0.00    -0.266 OA
ATOM      3  O   UNL     1      -2.237   2.661   0.462  0.00  0.00    -0.263 OA
ATOM      9  N   UNL     1      -1.982  -1.611   0.032  0.00  0.00    -0.310 N 
ATOM     10  N   UNL     1      -3.855   0.974   0.444  0.00  0.00    -0.291 N 
ATOM     12  C   UNL     1      -4.518  -1.357  -0.185  0.00  0.00    +0.027 C 
ATOM     13  C   UNL     1      -3.433  -0.940   1.981  0.00  0.00    +0.054 C 
ATOM     14  C   UNL     1      -4.545  -1.727   1.292  0.00  0.00    +0.018 C 
ATOM     15  C   UNL     1      -3.184  -1.815  -0.786  0.00  0.00    +0.130 C 
ATOM     16  C   UNL     1      -4.748   0.154  -0.377  0.00  0.00    +0.113 C 
ATOM     17  C   UNL     1      -3.715   0.566   1.844  0.00  0.00    +0.118 C 
ATOM     18  C   UNL     1      -2.075  -1.267   1.387  0.00  0.00    +0.027 A 
ATOM     19  C   UNL     1      -0.969  -1.201   2.151  0.00  0.00    +0.024 A 
ATOM     20  C   UNL     1      -0.743  -1.883  -0.584  0.00  0.00    +0.274 A 
ATOM     21  C   UNL     1      -3.259   2.155   0.013  0.00  0.00    +0.324 C 
ATOM     22  C   UNL     1       0.442  -1.770   0.303  0.00  0.00    +0.112 A 
ATOM     23  C   UNL     1       0.332  -1.459   1.595  0.00  0.00    +0.031 A 
ENDROOT
BRANCH  21  24
ATOM      5  O   UNL     1      -4.831   2.694  -1.677  0.00  0.00    -0.240 OA
ATOM     24  C   UNL     1      -3.815   2.992  -1.081  0.00  0.00    +0.392 C 
BRANCH  24   4
ATOM      4  O   UNL     1      -3.032   4.064  -1.260  0.00  0.00    -0.474 OA
ATOM     33  H   UNL     1      -3.361   4.650  -1.974  0.00  0.00    +0.296 HD
ENDBRANCH  24   4
ENDBRANCH  21  24
BRANCH  22  11
ATOM     11  N   UNL     1       1.732  -2.010  -0.203  0.00  0.00    -0.211 N 
ATOM     32  H   UNL     1       2.426  -2.180   0.537  0.00  0.00    +0.174 HD
BRANCH  11   1
ATOM      1  S   UNL     1       2.268  -1.002  -1.453  0.00  0.00    +0.073 S 
ATOM      6  O   UNL     1       2.727  -1.808  -2.568  0.00  0.00    -0.150 OA
ATOM      7  O   UNL     1       1.306   0.063  -1.668  0.00  0.00    -0.150 OA
BRANCH   1  25
ATOM     25  C   UNL     1       3.697  -0.279  -0.702  0.00  0.00    +0.109 A 
ATOM     26  C   UNL     1       3.561   0.895   0.017  0.00  0.00    +0.032 A 
ATOM     27  C   UNL     1       4.924  -0.901  -0.850  0.00  0.00    +0.032 A 
ATOM     28  C   UNL     1       4.689   1.466   0.607  0.00  0.00    +0.047 A 
ATOM     29  C   UNL     1       6.052  -0.331  -0.259  0.00  0.00    +0.047 A 
ATOM     30  C   UNL     1       5.934   0.853   0.469  0.00  0.00    +0.120 A 
BRANCH  30   8
ATOM      8  O   UNL     1       7.034   1.410   1.046  0.00  0.00    -0.495 OA
ATOM     31  C   UNL     1       6.842   2.620   1.775  0.00  0.00    +0.277 C 
ENDBRANCH  30   8
ENDBRANCH   1  25
ENDBRANCH  11   1
ENDBRANCH  22  11
TORSDOF 6
