REMARK  Name = 75536919
REMARK  7 active torsions:
REMARK  status: ('A' for Active; 'I' for Inactive)
REMARK    1  A    between atoms: S_1  and  C_22
REMARK    2  A    between atoms: S_1  and  C_28
REMARK    3  A    between atoms: O_3  and  C_8
REMARK    4  A    between atoms: O_3  and  C_14
REMARK    5  A    between atoms: N_6  and  C_11
REMARK    6  A    between atoms: C_11  and  C_13
REMARK    7  A    between atoms: C_17  and  C_25
REMARK                            x       y       z     vdW  Elec       q    Type
REMARK                         _______ _______ _______ _____ _____    ______ ____
ROOT
ATOM      2  O   UNL     1       5.440   0.022  -1.418  0.00  0.00    -0.375 OA
ATOM      6  N   UNL     1       3.556  -1.474   0.163  0.00  0.00    -0.292 NA
ATOM      7  C   UNL     1       3.352  -0.145   0.739  0.00  0.00    +0.131 C 
ATOM      8  C   UNL     1       3.417   0.939  -0.345  0.00  0.00    +0.213 C 
ATOM      9  C   UNL     1       4.962  -1.876   0.043  0.00  0.00    +0.113 C 
ATOM     10  C   UNL     1       4.801   1.197  -0.934  0.00  0.00    +0.205 C 
ATOM     12  C   UNL     1       5.951  -0.786  -0.365  0.00  0.00    +0.175 C 
ENDROOT
BRANCH   8   3
ATOM      3  O   UNL     1       2.931   2.156   0.221  0.00  0.00    -0.485 OA
BRANCH   3  14
ATOM     14  C   UNL     1       1.580   2.359   0.168  0.00  0.00    +0.121 A 
ATOM     20  C   UNL     1       0.851   2.518   1.347  0.00  0.00    +0.047 A 
ATOM     21  C   UNL     1       0.930   2.406  -1.065  0.00  0.00    +0.047 A 
ATOM     22  C   UNL     1      -1.177   2.771   0.059  0.00  0.00    +0.088 A 
ATOM     23  C   UNL     1      -0.527   2.724   1.292  0.00  0.00    +0.030 A 
ATOM     24  C   UNL     1      -0.448   2.612  -1.120  0.00  0.00    +0.030 A 
BRANCH  22   1
ATOM      1  S   UNL     1      -2.903   3.028  -0.010  0.00  0.00    -0.006 S 
ATOM      4  O   UNL     1      -3.411   2.487  -1.263  0.00  0.00    -0.170 OA
ATOM      5  O   UNL     1      -3.473   2.583   1.254  0.00  0.00    -0.170 OA
ATOM     28  C   UNL     1      -3.083   4.796  -0.099  0.00  0.00    +0.200 C 
ENDBRANCH  22   1
ENDBRANCH   3  14
ENDBRANCH   8   3
BRANCH   6  11
ATOM     11  C   UNL     1       2.804  -2.496   0.892  0.00  0.00    +0.119 C 
BRANCH  11  13
ATOM     13  C   UNL     1       1.324  -2.393   0.636  0.00  0.00    -0.033 A 
ATOM     15  C   UNL     1       0.833  -2.497  -0.666  0.00  0.00    +0.005 A 
ATOM     16  C   UNL     1       0.444  -2.193   1.700  0.00  0.00    +0.005 A 
ATOM     17  C   UNL     1      -1.418  -2.201   0.160  0.00  0.00    -0.018 A 
ATOM     18  C   UNL     1      -0.538  -2.401  -0.903  0.00  0.00    +0.009 A 
ATOM     19  C   UNL     1      -0.927  -2.097   1.462  0.00  0.00    +0.009 A 
BRANCH  17  25
ATOM     25  C   UNL     1      -2.840  -2.102  -0.086  0.00  0.00    -0.018 A 
ATOM     26  C   UNL     1      -3.410  -2.783  -1.161  0.00  0.00    +0.008 A 
ATOM     27  C   UNL     1      -3.641  -1.325   0.751  0.00  0.00    +0.008 A 
ATOM     29  C   UNL     1      -4.782  -2.688  -1.399  0.00  0.00    +0.001 A 
ATOM     30  C   UNL     1      -5.012  -1.230   0.513  0.00  0.00    +0.001 A 
ATOM     31  C   UNL     1      -5.583  -1.912  -0.562  0.00  0.00    +0.000 A 
ENDBRANCH  17  25
ENDBRANCH  11  13
ENDBRANCH   6  11
TORSDOF 6
