REMARK  Name = 11887578
REMARK  14 active torsions:
REMARK  status: ('A' for Active; 'I' for Inactive)
REMARK    1  A    between atoms: S_1  and  N_9
REMARK    2  A    between atoms: S_1  and  C_20
REMARK    3  A    between atoms: O_6  and  C_23
REMARK    4  A    between atoms: O_6  and  C_32
REMARK    5  A    between atoms: O_8  and  C_31
REMARK    6  A    between atoms: O_8  and  C_33
REMARK    7  A    between atoms: N_11  and  C_19
REMARK    8  A    between atoms: N_12  and  C_22
REMARK    9  A    between atoms: C_13  and  C_17
REMARK   10  A    between atoms: C_19  and  C_21
REMARK   11  A    between atoms: C_19  and  C_23
REMARK   12  A    between atoms: C_21  and  C_24
REMARK   13  A    between atoms: C_22  and  C_25
REMARK   14  A    between atoms: C_22  and  C_26
REMARK                            x       y       z     vdW  Elec       q    Type
REMARK                         _______ _______ _______ _____ _____    ______ ____
ROOT
ATOM      4  O   UNL     1       1.347   0.419  -1.746  0.00  0.00    -0.274 OA
ATOM     11  N   UNL     1      -0.338   1.056  -0.273  0.00  0.00    -0.301 N 
ATOM     17  C   UNL     1       0.881   0.497  -0.612  0.00  0.00    +0.236 C 
ATOM     34  H   UNL     1      -0.626   1.067   0.702  0.00  0.00    +0.150 HD
ENDROOT
BRANCH  17  13
ATOM      5  O   UNL     1       0.730  -2.645   0.807  0.00  0.00    -0.253 OA
ATOM      9  N   UNL     1       3.660   1.389   0.360  0.00  0.00    -0.178 NA
ATOM     10  N   UNL     1       2.399  -1.173   0.131  0.00  0.00    -0.272 N 
ATOM     12  N   UNL     1       2.491  -3.479  -0.405  0.00  0.00    -0.297 N 
ATOM     13  C   UNL     1       1.629  -0.009   0.588  0.00  0.00    +0.179 C 
ATOM     14  C   UNL     1       2.482   1.086   1.222  0.00  0.00    +0.141 C 
ATOM     15  C   UNL     1       4.495   0.176   0.155  0.00  0.00    +0.128 C 
ATOM     16  C   UNL     1       3.673  -0.892  -0.555  0.00  0.00    +0.127 C 
ATOM     18  C   UNL     1       1.800  -2.448   0.222  0.00  0.00    +0.303 C 
ATOM     35  H   UNL     1       3.254  -3.274  -1.037  0.00  0.00    +0.150 HD
BRANCH   9   1
ATOM      1  S   UNL     1       4.518   2.816   0.761  0.00  0.00    +0.029 S 
ATOM      2  O   UNL     1       3.565   3.852   1.095  0.00  0.00    -0.158 OA
ATOM      3  O   UNL     1       5.557   3.026  -0.222  0.00  0.00    -0.158 OA
ATOM     20  C   UNL     1       5.286   2.272   2.265  0.00  0.00    +0.215 C 
ENDBRANCH   9   1
BRANCH  12  22
ATOM     22  C   UNL     1       2.002  -4.840  -0.413  0.00  0.00    +0.068 C 
ATOM     25  C   UNL     1       1.077  -5.069  -1.602  0.00  0.00    +0.027 C 
ATOM     26  C   UNL     1       3.167  -5.821  -0.423  0.00  0.00    +0.027 C 
ENDBRANCH  12  22
ENDBRANCH  17  13
BRANCH  11  19
ATOM     19  C   UNL     1      -1.240   1.635  -1.242  0.00  0.00    +0.186 C 
BRANCH  19  23
ATOM      7  O   UNL     1      -1.903   3.192   0.483  0.00  0.00    -0.249 OA
ATOM     23  C   UNL     1      -1.992   2.838  -0.688  0.00  0.00    +0.328 C 
BRANCH  23   6
ATOM      6  O   UNL     1      -2.769   3.439  -1.633  0.00  0.00    -0.467 OA
ATOM     32  C   UNL     1      -3.526   4.569  -1.188  0.00  0.00    +0.280 C 
ENDBRANCH  23   6
ENDBRANCH  19  23
BRANCH  19  21
ATOM     21  C   UNL     1      -2.191   0.578  -1.821  0.00  0.00    +0.069 C 
BRANCH  21  24
ATOM     24  C   UNL     1      -3.138  -0.039  -0.816  0.00  0.00    -0.045 A 
ATOM     27  C   UNL     1      -2.762  -1.185  -0.115  0.00  0.00    +0.007 A 
ATOM     28  C   UNL     1      -4.387   0.539  -0.590  0.00  0.00    +0.007 A 
ATOM     29  C   UNL     1      -3.635  -1.753   0.812  0.00  0.00    +0.046 A 
ATOM     30  C   UNL     1      -5.260  -0.030   0.337  0.00  0.00    +0.046 A 
ATOM     31  C   UNL     1      -4.884  -1.176   1.038  0.00  0.00    +0.120 A 
BRANCH  31   8
ATOM      8  O   UNL     1      -5.736  -1.730   1.943  0.00  0.00    -0.495 OA
ATOM     33  C   UNL     1      -6.998  -1.089   2.125  0.00  0.00    +0.277 C 
ENDBRANCH  31   8
ENDBRANCH  21  24
ENDBRANCH  19  21
ENDBRANCH  11  19
TORSDOF 9
