REMARK  Name = 11866326
REMARK  11 active torsions:
REMARK  status: ('A' for Active; 'I' for Inactive)
REMARK    1  A    between atoms: O_1  and  C_11
REMARK    2  A    between atoms: O_2  and  C_12
REMARK    3  A    between atoms: O_6  and  C_30
REMARK    4  A    between atoms: N_7  and  C_13
REMARK    5  A    between atoms: N_8  and  C_18
REMARK    6  A    between atoms: N_9  and  C_23
REMARK    7  A    between atoms: C_15  and  C_17
REMARK    8  A    between atoms: C_18  and  C_20
REMARK    9  A    between atoms: C_18  and  C_22
REMARK   10  A    between atoms: C_20  and  C_21
REMARK   11  A    between atoms: C_33  and  C_34
REMARK                            x       y       z     vdW  Elec       q    Type
REMARK                         _______ _______ _______ _____ _____    ______ ____
ROOT
ATOM     11  C   UNL     1       0.610   4.051  -0.029  0.00  0.00    +0.167 C 
ATOM     12  C   UNL     1       2.095   4.214  -0.378  0.00  0.00    +0.149 C 
ATOM     13  C   UNL     1       0.113   2.624  -0.330  0.00  0.00    +0.129 C 
ATOM     14  C   UNL     1       2.976   3.180   0.343  0.00  0.00    +0.074 C 
ATOM     15  C   UNL     1       2.347   1.818   0.430  0.00  0.00    +0.015 C 
ATOM     16  C   UNL     1       1.068   1.553   0.123  0.00  0.00    +0.006 C 
ENDROOT
BRANCH  13   7
ATOM      4  O   UNL     1      -1.929   0.892  -1.348  0.00  0.00    -0.252 OA
ATOM      7  N   UNL     1      -1.180   2.375   0.260  0.00  0.00    -0.290 N 
ATOM      9  N   UNL     1      -3.278   1.468   0.486  0.00  0.00    -0.269 N 
ATOM     19  C   UNL     1      -2.125   1.510  -0.303  0.00  0.00    +0.304 C 
ATOM     35  H   UNL     1      -1.381   2.784   1.168  0.00  0.00    +0.151 HD
ATOM     39  H   UNL     1      -3.278   2.045   1.323  0.00  0.00    +0.156 HD
BRANCH   9  23
ATOM     23  C   UNL     1      -4.456   0.719   0.262  0.00  0.00    +0.035 A 
ATOM     28  C   UNL     1      -5.517   0.802   1.164  0.00  0.00    +0.023 A 
ATOM     29  C   UNL     1      -4.558  -0.104  -0.860  0.00  0.00    +0.023 A 
ATOM     31  C   UNL     1      -6.679   0.063   0.944  0.00  0.00    +0.005 A 
ATOM     32  C   UNL     1      -5.720  -0.843  -1.079  0.00  0.00    +0.005 A 
ATOM     33  C   UNL     1      -6.781  -0.760  -0.178  0.00  0.00    -0.050 A 
ATOM     34  C   UNL     1      -8.024  -1.549  -0.413  0.00  0.00    +0.044 C 
ENDBRANCH   9  23
ENDBRANCH  13   7
BRANCH  15  17
ATOM      3  O   UNL     1       3.722   0.690   1.965  0.00  0.00    -0.271 OA
ATOM      8  N   UNL     1       3.292  -0.297  -0.102  0.00  0.00    -0.300 N 
ATOM     17  C   UNL     1       3.188   0.695   0.857  0.00  0.00    +0.241 C 
ATOM     38  H   UNL     1       2.878  -0.145  -1.018  0.00  0.00    +0.150 HD
BRANCH   8  18
ATOM     18  C   UNL     1       4.068  -1.501   0.088  0.00  0.00    +0.163 C 
BRANCH  18  22
ATOM      5  O   UNL     1       5.783  -0.426  -1.257  0.00  0.00    -0.274 OA
ATOM     10  N   UNL     1       6.437  -1.801   0.463  0.00  0.00    -0.328 N 
ATOM     22  C   UNL     1       5.496  -1.185  -0.334  0.00  0.00    +0.231 C 
ATOM     40  H   UNL     1       7.429  -1.661   0.299  0.00  0.00    +0.145 HD
ATOM     41  H   UNL     1       6.185  -2.422   1.226  0.00  0.00    +0.145 HD
ENDBRANCH  18  22
BRANCH  18  20
ATOM     20  C   UNL     1       3.520  -2.679  -0.725  0.00  0.00    +0.067 C 
BRANCH  20  21
ATOM     21  C   UNL     1       2.093  -3.020  -0.368  0.00  0.00    -0.045 A 
ATOM     24  C   UNL     1       1.040  -2.410  -1.049  0.00  0.00    +0.007 A 
ATOM     25  C   UNL     1       1.828  -3.945   0.642  0.00  0.00    +0.007 A 
ATOM     26  C   UNL     1      -0.279  -2.725  -0.720  0.00  0.00    +0.045 A 
ATOM     27  C   UNL     1       0.510  -4.260   0.971  0.00  0.00    +0.045 A 
ATOM     30  C   UNL     1      -0.543  -3.650   0.290  0.00  0.00    +0.117 A 
BRANCH  30   6
ATOM      6  O   UNL     1      -1.830  -3.957   0.612  0.00  0.00    -0.507 OA
ATOM     42  H   UNL     1      -2.428  -3.441   0.044  0.00  0.00    +0.292 HD
ENDBRANCH  30   6
ENDBRANCH  20  21
ENDBRANCH  18  20
ENDBRANCH   8  18
ENDBRANCH  15  17
BRANCH  11   1
ATOM      1  O   UNL     1       0.430   4.338   1.360  0.00  0.00    -0.387 OA
ATOM     36  H   UNL     1       0.725   5.253   1.510  0.00  0.00    +0.210 HD
ENDBRANCH  11   1
BRANCH  12   2
ATOM      2  O   UNL     1       2.281   4.118  -1.788  0.00  0.00    -0.389 OA
ATOM     37  H   UNL     1       3.224   4.270  -1.971  0.00  0.00    +0.210 HD
ENDBRANCH  12   2
TORSDOF 10
