REMARK  Name = 56774115
REMARK  10 active torsions:
REMARK  status: ('A' for Active; 'I' for Inactive)
REMARK    1  A    between atoms: O_3  and  C_17
REMARK    2  A    between atoms: O_3  and  C_20
REMARK    3  A    between atoms: O_4  and  C_19
REMARK    4  A    between atoms: N_5  and  C_9
REMARK    5  A    between atoms: C_7  and  C_12
REMARK    6  A    between atoms: C_7  and  C_13
REMARK    7  A    between atoms: C_8  and  C_11
REMARK    8  A    between atoms: C_11  and  C_14
REMARK    9  A    between atoms: C_15  and  C_17
REMARK   10  A    between atoms: C_18  and  C_19
REMARK                            x       y       z     vdW  Elec       q    Type
REMARK                         _______ _______ _______ _____ _____    ______ ____
ROOT
ATOM      7  C   UNL     1      -0.975   1.324  -0.162  0.00  0.00    -0.013 C 
ATOM      8  C   UNL     1       0.490   1.046   0.234  0.00  0.00    +0.004 C 
ATOM      9  C   UNL     1      -1.377   0.242   0.862  0.00  0.00    +0.079 C 
ATOM     10  C   UNL     1       0.028  -0.364   0.658  0.00  0.00    +0.027 C 
ATOM     12  C   UNL     1      -1.427   2.735   0.146  0.00  0.00    +0.013 C 
ATOM     13  C   UNL     1      -1.356   0.956  -1.584  0.00  0.00    +0.013 C 
ENDROOT
BRANCH   9   5
ATOM      2  O   UNL     1      -4.190   0.896   0.654  0.00  0.00    -0.273 OA
ATOM      5  N   UNL     1      -2.472  -0.653   0.449  0.00  0.00    -0.310 N 
ATOM     15  C   UNL     1      -3.793  -0.234   0.383  0.00  0.00    +0.239 C 
ATOM     21  H   UNL     1      -2.266  -1.619   0.205  0.00  0.00    +0.149 HD
BRANCH  15  17
ATOM     17  C   UNL     1      -4.717  -1.345  -0.067  0.00  0.00    +0.255 C 
BRANCH  17   3
ATOM      3  O   UNL     1      -6.050  -0.886  -0.137  0.00  0.00    -0.374 OA
ATOM     20  C   UNL     1      -6.944  -1.912  -0.559  0.00  0.00    +0.194 C 
ENDBRANCH  17   3
ENDBRANCH  15  17
ENDBRANCH   9   5
BRANCH   8  11
ATOM     11  C   UNL     1       1.522   1.071  -0.869  0.00  0.00    +0.063 C 
BRANCH  11  14
ATOM      1  O   UNL     1       4.803   0.477   0.512  0.00  0.00    -0.357 OA
ATOM      6  N   UNL     1       3.742   1.309   0.176  0.00  0.00    -0.083 NA
ATOM     14  C   UNL     1       2.831   0.502  -0.377  0.00  0.00    +0.084 A 
ATOM     16  C   UNL     1       3.259  -0.837  -0.416  0.00  0.00    +0.073 A 
ATOM     18  C   UNL     1       4.503  -0.798   0.155  0.00  0.00    +0.163 A 
BRANCH  18  19
ATOM     19  C   UNL     1       5.522  -1.815   0.440  0.00  0.00    +0.232 C 
BRANCH  19   4
ATOM      4  O   UNL     1       6.600  -1.714  -0.495  0.00  0.00    -0.387 OA
ATOM     22  H   UNL     1       7.243  -2.405  -0.262  0.00  0.00    +0.210 HD
ENDBRANCH  19   4
ENDBRANCH  18  19
ENDBRANCH  11  14
ENDBRANCH   8  11
TORSDOF 7
