REMARK  Name = 45361612
REMARK  12 active torsions:
REMARK  status: ('A' for Active; 'I' for Inactive)
REMARK    1  A    between atoms: O_1  and  C_11
REMARK    2  A    between atoms: O_4  and  C_35
REMARK    3  A    between atoms: O_4  and  C_36
REMARK    4  A    between atoms: N_5  and  C_15
REMARK    5  A    between atoms: N_6  and  C_25
REMARK    6  A    between atoms: C_8  and  C_18
REMARK    7  A    between atoms: C_10  and  C_20
REMARK    8  A    between atoms: C_14  and  C_19
REMARK    9  A    between atoms: C_19  and  C_21
REMARK   10  A    between atoms: C_19  and  C_22
REMARK   11  A    between atoms: C_23  and  C_24
REMARK   12  A    between atoms: C_25  and  C_27
REMARK                            x       y       z     vdW  Elec       q    Type
REMARK                         _______ _______ _______ _____ _____    ______ ____
ROOT
ATOM      8  C   UNL     1      -0.351   0.206   1.165  0.00  0.00    -0.027 C 
ATOM      9  C   UNL     1      -0.765  -0.689  -0.050  0.00  0.00    +0.028 C 
ATOM     10  C   UNL     1      -2.317  -0.932  -0.061  0.00  0.00    +0.012 C 
ATOM     11  C   UNL     1       0.113  -1.971  -0.131  0.00  0.00    +0.122 C 
ATOM     12  C   UNL     1       1.162   0.519   1.083  0.00  0.00    +0.007 C 
ATOM     13  C   UNL     1      -1.114   1.548   1.087  0.00  0.00    +0.009 C 
ATOM     14  C   UNL     1       1.627  -1.657  -0.108  0.00  0.00    +0.029 C 
ATOM     15  C   UNL     1      -3.075   0.425  -0.064  0.00  0.00    +0.076 C 
ATOM     16  C   UNL     1       2.027  -0.734   1.043  0.00  0.00    +0.007 C 
ATOM     17  C   UNL     1      -2.626   1.375   1.046  0.00  0.00    +0.023 C 
ATOM     18  C   UNL     1      -0.646  -0.469   2.529  0.00  0.00    +0.011 C 
ATOM     20  C   UNL     1      -2.799  -1.783  -1.248  0.00  0.00    +0.010 C 
ENDROOT
BRANCH  15   5
ATOM      3  O   UNL     1      -5.110   2.091  -1.216  0.00  0.00    -0.269 OA
ATOM      5  N   UNL     1      -4.507   0.240   0.043  0.00  0.00    -0.307 N 
ATOM     23  C   UNL     1      -5.411   1.103  -0.552  0.00  0.00    +0.263 C 
ATOM     37  H   UNL     1      -4.854  -0.519   0.623  0.00  0.00    +0.149 HD
BRANCH  23  24
ATOM      7  N   UNL     1      -7.096  -0.300   0.433  0.00  0.00    -0.250 NA
ATOM     24  C   UNL     1      -6.846   0.790  -0.327  0.00  0.00    +0.125 A 
ATOM     26  C   UNL     1      -7.831   1.593  -0.879  0.00  0.00    +0.033 A 
ATOM     28  C   UNL     1      -9.158   1.256  -0.636  0.00  0.00    +0.004 A 
ATOM     29  C   UNL     1      -8.398  -0.596   0.648  0.00  0.00    +0.111 A 
ATOM     32  C   UNL     1      -9.455   0.142   0.142  0.00  0.00    +0.020 A 
ENDBRANCH  23  24
ENDBRANCH  15   5
BRANCH  11   1
ATOM      1  O   UNL     1      -0.145  -2.648  -1.362  0.00  0.00    -0.391 OA
ATOM     38  H   UNL     1       0.072  -2.042  -2.091  0.00  0.00    +0.210 HD
ENDBRANCH  11   1
BRANCH  14  19
ATOM     19  C   UNL     1       2.473  -2.935  -0.057  0.00  0.00    +0.077 C 
ATOM     21  C   UNL     1       2.128  -3.743   1.189  0.00  0.00    +0.017 C 
BRANCH  19  22
ATOM      2  O   UNL     1       4.741  -2.905   0.791  0.00  0.00    -0.276 OA
ATOM      6  N   UNL     1       4.299  -1.859  -1.232  0.00  0.00    -0.311 N 
ATOM     22  C   UNL     1       3.956  -2.580  -0.097  0.00  0.00    +0.216 C 
ATOM     39  H   UNL     1       3.601  -1.675  -1.945  0.00  0.00    +0.149 HD
BRANCH   6  25
ATOM     25  C   UNL     1       5.646  -1.407  -1.492  0.00  0.00    +0.139 C 
BRANCH  25  27
ATOM     27  C   UNL     1       5.901  -0.042  -0.920  0.00  0.00    -0.030 A 
ATOM     30  C   UNL     1       5.378   1.088  -1.549  0.00  0.00    +0.009 A 
ATOM     31  C   UNL     1       6.661   0.095   0.242  0.00  0.00    +0.009 A 
ATOM     33  C   UNL     1       5.615   2.355  -1.017  0.00  0.00    +0.046 A 
ATOM     34  C   UNL     1       6.898   1.363   0.774  0.00  0.00    +0.046 A 
ATOM     35  C   UNL     1       6.375   2.492   0.145  0.00  0.00    +0.120 A 
BRANCH  35   4
ATOM      4  O   UNL     1       6.606   3.729   0.665  0.00  0.00    -0.495 OA
ATOM     36  C   UNL     1       6.041   4.840  -0.029  0.00  0.00    +0.277 C 
ENDBRANCH  35   4
ENDBRANCH  25  27
ENDBRANCH   6  25
ENDBRANCH  19  22
ENDBRANCH  14  19
TORSDOF 8
