REMARK  Name = 26744389
REMARK  5 active torsions:
REMARK  status: ('A' for Active; 'I' for Inactive)
REMARK    1  A    between atoms: O_2  and  C_10
REMARK    2  A    between atoms: N_4  and  C_12
REMARK    3  A    between atoms: C_8  and  C_13
REMARK    4  A    between atoms: C_12  and  C_14
REMARK    5  A    between atoms: C_18  and  C_22
REMARK                            x       y       z     vdW  Elec       q    Type
REMARK                         _______ _______ _______ _____ _____    ______ ____
ROOT
ATOM      4  N   UNL     1      -3.017  -0.124   0.261  0.00  0.00    -0.285 NA
ATOM      8  C   UNL     1      -2.749   1.133  -0.465  0.00  0.00    +0.149 C 
ATOM      9  C   UNL     1      -3.442   2.226   0.370  0.00  0.00    +0.061 C 
ATOM     10  C   UNL     1      -4.110   1.480   1.518  0.00  0.00    +0.130 C 
ATOM     11  C   UNL     1      -4.275   0.072   0.979  0.00  0.00    +0.116 C 
ENDROOT
BRANCH   8  13
ATOM      3  O   UNL     1      -0.919   2.138  -1.736  0.00  0.00    -0.336 OA
ATOM      5  N   UNL     1      -0.257   1.000   0.076  0.00  0.00    -0.190 NA
ATOM      7  N   UNL     1       0.478   2.240  -1.701  0.00  0.00    -0.056 NA
ATOM     13  C   UNL     1      -1.269   1.393  -0.655  0.00  0.00    +0.245 A 
ATOM     18  C   UNL     1       0.793   1.543  -0.605  0.00  0.00    +0.202 A 
BRANCH  18  22
ATOM      1  F   UNL     1       6.044   0.884   1.113  0.00  0.00    -0.205 F 
ATOM     22  C   UNL     1       2.147   1.373  -0.162  0.00  0.00    +0.023 A 
ATOM     24  C   UNL     1       2.416   0.637   0.992  0.00  0.00    +0.014 A 
ATOM     25  C   UNL     1       3.194   1.944  -0.885  0.00  0.00    +0.014 A 
ATOM     26  C   UNL     1       3.733   0.472   1.422  0.00  0.00    +0.039 A 
ATOM     27  C   UNL     1       4.511   1.779  -0.455  0.00  0.00    +0.039 A 
ATOM     28  C   UNL     1       4.780   1.043   0.699  0.00  0.00    +0.123 A 
ENDBRANCH  18  22
ENDBRANCH   8  13
BRANCH  10   2
ATOM      2  O   UNL     1      -5.355   2.068   1.842  0.00  0.00    -0.390 OA
ATOM     29  H   UNL     1      -5.184   2.988   2.106  0.00  0.00    +0.210 HD
ENDBRANCH  10   2
BRANCH   4  12
ATOM     12  C   UNL     1      -3.059  -1.292  -0.609  0.00  0.00    +0.122 C 
BRANCH  12  14
ATOM      6  N   UNL     1       0.113  -2.366  -2.136  0.00  0.00    -0.360 N 
ATOM     14  C   UNL     1      -1.678  -1.777  -0.963  0.00  0.00    -0.008 A 
ATOM     15  C   UNL     1      -0.668  -2.196  -0.052  0.00  0.00    +0.004 A 
ATOM     16  C   UNL     1      -1.168  -1.893  -2.236  0.00  0.00    +0.088 A 
ATOM     17  C   UNL     1       0.445  -2.561  -0.814  0.00  0.00    +0.047 A 
ATOM     19  C   UNL     1      -0.593  -2.301   1.351  0.00  0.00    +0.010 A 
ATOM     20  C   UNL     1       1.633  -3.026  -0.240  0.00  0.00    +0.026 A 
ATOM     21  C   UNL     1       0.589  -2.765   1.939  0.00  0.00    +0.001 A 
ATOM     23  C   UNL     1       1.684  -3.122   1.154  0.00  0.00    +0.002 A 
ATOM     30  H   UNL     1       0.726  -2.546  -2.918  0.00  0.00    +0.165 HD
ENDBRANCH  12  14
ENDBRANCH   4  12
TORSDOF 5
