REMARK  Name = 38029291
REMARK  13 active torsions:
REMARK  status: ('A' for Active; 'I' for Inactive)
REMARK    1  A    between atoms: S_1  and  N_5
REMARK    2  A    between atoms: S_1  and  C_21
REMARK    3  A    between atoms: N_5  and  C_15
REMARK    4  A    between atoms: N_6  and  C_22
REMARK    5  A    between atoms: C_8  and  C_12
REMARK    6  A    between atoms: C_9  and  C_15
REMARK    7  A    between atoms: C_11  and  C_16
REMARK    8  A    between atoms: C_12  and  C_17
REMARK    9  A    between atoms: C_12  and  C_18
REMARK   10  A    between atoms: C_13  and  C_19
REMARK   11  A    between atoms: C_16  and  C_20
REMARK   12  A    between atoms: C_22  and  C_23
REMARK   13  A    between atoms: C_28  and  C_29
REMARK                            x       y       z     vdW  Elec       q    Type
REMARK                         _______ _______ _______ _____ _____    ______ ____
ROOT
ATOM      8  C   UNL     1       1.448   0.046  -1.243  0.00  0.00    +0.000 C 
ATOM      9  C   UNL     1       2.978  -0.116  -1.423  0.00  0.00    +0.030 C 
ATOM     10  C   UNL     1       1.035   1.511  -1.455  0.00  0.00    +0.012 C 
ATOM     11  C   UNL     1       1.746   2.464  -0.475  0.00  0.00    +0.023 C 
ATOM     13  C   UNL     1       3.233   2.184  -0.397  0.00  0.00    -0.073 C 
ATOM     14  C   UNL     1       3.767   1.031  -0.838  0.00  0.00    -0.023 C 
ATOM     19  C   UNL     1       4.100   3.280   0.159  0.00  0.00    +0.039 C 
ENDROOT
BRANCH   8  12
ATOM     12  C   UNL     1       0.663  -0.857  -2.200  0.00  0.00    -0.013 C 
ATOM     17  C   UNL     1      -0.726  -1.146  -1.640  0.00  0.00    +0.007 C 
ATOM     18  C   UNL     1       0.568  -0.214  -3.580  0.00  0.00    +0.007 C 
ENDBRANCH   8  12
BRANCH   9  15
ATOM     15  C   UNL     1       3.470  -1.436  -0.818  0.00  0.00    +0.113 C 
BRANCH  15   5
ATOM      5  N   UNL     1       3.279  -1.396   0.640  0.00  0.00    -0.194 NA
ATOM     30  H   UNL     1       3.889  -0.722   1.121  0.00  0.00    +0.148 HD
BRANCH   5   1
ATOM      1  S   UNL     1       2.983  -2.852   1.484  0.00  0.00    +0.027 S 
ATOM      3  O   UNL     1       1.773  -3.473   0.982  0.00  0.00    -0.158 OA
ATOM      4  O   UNL     1       3.158  -2.607   2.903  0.00  0.00    -0.158 OA
ATOM     21  C   UNL     1       4.366  -3.829   0.940  0.00  0.00    +0.214 C 
ENDBRANCH   5   1
ENDBRANCH  15   5
ENDBRANCH   9  15
BRANCH  11  16
ATOM     16  C   UNL     1       1.103   2.407   0.915  0.00  0.00    +0.103 C 
BRANCH  16  20
ATOM      2  O   UNL     1      -0.924   3.385   0.029  0.00  0.00    -0.276 OA
ATOM      6  N   UNL     1      -1.044   1.980   1.876  0.00  0.00    -0.311 N 
ATOM     20  C   UNL     1      -0.386   2.663   0.864  0.00  0.00    +0.214 C 
ATOM     31  H   UNL     1      -0.510   1.403   2.520  0.00  0.00    +0.149 HD
BRANCH   6  22
ATOM     22  C   UNL     1      -2.474   2.041   2.069  0.00  0.00    +0.139 C 
BRANCH  22  23
ATOM     23  C   UNL     1      -3.192   0.970   1.301  0.00  0.00    -0.030 A 
ATOM     24  C   UNL     1      -4.143   1.317   0.342  0.00  0.00    +0.006 A 
ATOM     25  C   UNL     1      -2.906  -0.374   1.545  0.00  0.00    +0.006 A 
ATOM     26  C   UNL     1      -4.810   0.322  -0.372  0.00  0.00    +0.019 A 
ATOM     27  C   UNL     1      -3.573  -1.369   0.831  0.00  0.00    +0.019 A 
ATOM     28  C   UNL     1      -4.524  -1.022  -0.128  0.00  0.00    +0.052 A 
BRANCH  28  29
ATOM      7  N   UNL     1      -5.762  -2.870  -1.454  0.00  0.00    -0.191 NA
ATOM     29  C   UNL     1      -5.207  -2.042  -0.859  0.00  0.00    +0.099 C 
ENDBRANCH  28  29
ENDBRANCH  22  23
ENDBRANCH   6  22
ENDBRANCH  16  20
ENDBRANCH  11  16
TORSDOF 9
