REMARK  Name = 75368618
REMARK  7 active torsions:
REMARK  status: ('A' for Active; 'I' for Inactive)
REMARK    1  A    between atoms: O_2  and  C_25
REMARK    2  A    between atoms: O_2  and  C_28
REMARK    3  A    between atoms: N_4  and  C_13
REMARK    4  A    between atoms: N_5  and  C_14
REMARK    5  A    between atoms: C_13  and  C_15
REMARK    6  A    between atoms: C_14  and  C_16
REMARK    7  A    between atoms: C_21  and  C_27
REMARK                            x       y       z     vdW  Elec       q    Type
REMARK                         _______ _______ _______ _____ _____    ______ ____
ROOT
ATOM      1  O   UNL     1       2.532   3.249  -0.063  0.00  0.00    -0.252 OA
ATOM      3  N   UNL     1       0.356   2.366  -0.118  0.00  0.00    -0.278 N 
ATOM      4  N   UNL     1      -2.140   1.474   0.824  0.00  0.00    -0.295 NA
ATOM      5  N   UNL     1       1.943   1.363  -1.351  0.00  0.00    -0.279 N 
ATOM      7  C   UNL     1      -0.353   1.348  -0.864  0.00  0.00    +0.109 C 
ATOM      8  C   UNL     1      -1.272   0.553   0.063  0.00  0.00    +0.109 C 
ATOM      9  C   UNL     1       0.762   0.533  -1.515  0.00  0.00    +0.133 C 
ATOM     10  C   UNL     1      -0.382   3.232   0.778  0.00  0.00    +0.125 C 
ATOM     11  C   UNL     1      -1.332   2.401   1.644  0.00  0.00    +0.104 C 
ATOM     12  C   UNL     1       1.713   2.433  -0.463  0.00  0.00    +0.305 C 
ENDROOT
BRANCH   4  13
ATOM     13  C   UNL     1      -3.065   0.721   1.670  0.00  0.00    +0.119 C 
BRANCH  13  15
ATOM     15  C   UNL     1      -4.206   0.146   0.881  0.00  0.00    -0.032 A 
ATOM     17  C   UNL     1      -4.231  -1.216   0.581  0.00  0.00    +0.023 A 
ATOM     18  C   UNL     1      -5.241   0.974   0.449  0.00  0.00    +0.005 A 
ATOM     21  C   UNL     1      -5.292  -1.750  -0.151  0.00  0.00    +0.052 A 
ATOM     22  C   UNL     1      -6.302   0.441  -0.283  0.00  0.00    +0.002 A 
ATOM     26  C   UNL     1      -6.327  -0.921  -0.583  0.00  0.00    +0.019 A 
BRANCH  21  27
ATOM      6  N   UNL     1      -5.341  -4.278  -0.709  0.00  0.00    -0.191 NA
ATOM     27  C   UNL     1      -5.319  -3.145  -0.459  0.00  0.00    +0.099 C 
ENDBRANCH  21  27
ENDBRANCH  13  15
ENDBRANCH   4  13
BRANCH   5  14
ATOM     14  C   UNL     1       3.218   1.006  -1.931  0.00  0.00    +0.144 C 
BRANCH  14  16
ATOM     16  C   UNL     1       3.947  -0.012  -1.102  0.00  0.00    -0.030 A 
ATOM     19  C   UNL     1       4.571   0.373   0.085  0.00  0.00    +0.009 A 
ATOM     20  C   UNL     1       4.000  -1.342  -1.518  0.00  0.00    +0.009 A 
ATOM     23  C   UNL     1       5.248  -0.572   0.856  0.00  0.00    +0.046 A 
ATOM     24  C   UNL     1       4.677  -2.288  -0.747  0.00  0.00    +0.046 A 
ATOM     25  C   UNL     1       5.301  -1.902   0.440  0.00  0.00    +0.120 A 
BRANCH  25   2
ATOM      2  O   UNL     1       5.960  -2.825   1.192  0.00  0.00    -0.495 OA
ATOM     28  C   UNL     1       6.575  -2.362   2.394  0.00  0.00    +0.277 C 
ENDBRANCH  25   2
ENDBRANCH  14  16
ENDBRANCH   5  14
TORSDOF 6
