REMARK  Name = 71692863
REMARK  7 active torsions:
REMARK  status: ('A' for Active; 'I' for Inactive)
REMARK    1  A    between atoms: N_6  and  C_21
REMARK    2  A    between atoms: N_6  and  C_22
REMARK    3  A    between atoms: N_8  and  C_29
REMARK    4  A    between atoms: C_10  and  C_15
REMARK    5  A    between atoms: C_15  and  C_18
REMARK    6  A    between atoms: C_21  and  C_26
REMARK    7  A    between atoms: C_22  and  C_27
REMARK                            x       y       z     vdW  Elec       q    Type
REMARK                         _______ _______ _______ _____ _____    ______ ____
ROOT
ATOM      1  O   UNL     1      -1.165   1.464  -1.744  0.00  0.00    -0.492 OA
ATOM      2  O   UNL     1       0.289   4.282   0.018  0.00  0.00    -0.274 OA
ATOM      5  N   UNL     1       1.827   2.762   0.848  0.00  0.00    -0.300 N 
ATOM      7  N   UNL     1      -1.151   1.948   1.512  0.00  0.00    -0.304 NA
ATOM      9  C   UNL     1       3.011   1.524  -0.936  0.00  0.00    +0.010 C 
ATOM     10  C   UNL     1       3.742   0.695   0.158  0.00  0.00    +0.004 C 
ATOM     11  C   UNL     1       2.879   0.574   1.426  0.00  0.00    +0.023 C 
ATOM     12  C   UNL     1       2.697   2.905  -0.325  0.00  0.00    +0.111 C 
ATOM     13  C   UNL     1       1.741   0.815  -1.462  0.00  0.00    +0.008 C 
ATOM     14  C   UNL     1       2.388   1.935   1.925  0.00  0.00    +0.108 C 
ATOM     16  C   UNL     1       1.042   1.511  -2.640  0.00  0.00    +0.041 C 
ATOM     17  C   UNL     1       0.613   3.450   0.874  0.00  0.00    +0.229 C 
ATOM     19  C   UNL     1      -0.373   0.950  -2.817  0.00  0.00    +0.229 C 
ATOM     20  C   UNL     1      -0.386   3.111   1.966  0.00  0.00    +0.178 C 
ATOM     23  C   UNL     1      -2.287   2.337   0.669  0.00  0.00    +0.120 C 
ATOM     24  C   UNL     1      -2.267   0.759  -1.339  0.00  0.00    +0.125 A 
ATOM     25  C   UNL     1      -2.843   1.167  -0.116  0.00  0.00    +0.010 A 
ATOM     28  C   UNL     1      -3.956   0.473   0.383  0.00  0.00    +0.031 A 
ATOM     29  C   UNL     1      -4.507  -0.588  -0.331  0.00  0.00    +0.030 A 
ATOM     30  C   UNL     1      -2.842  -0.293  -2.059  0.00  0.00    +0.048 A 
ATOM     31  C   UNL     1      -3.956  -0.965  -1.553  0.00  0.00    +0.027 A 
ATOM     36  H   UNL     1      -1.509   1.444   2.323  0.00  0.00    +0.123 HD
ENDROOT
BRANCH  29   8
ATOM      4  O   UNL     1      -7.671  -2.906   1.186  0.00  0.00    -0.377 OA
ATOM      8  N   UNL     1      -5.609  -1.281   0.183  0.00  0.00    -0.326 N 
ATOM     32  C   UNL     1      -5.465  -1.944   1.486  0.00  0.00    +0.133 C 
ATOM     33  C   UNL     1      -6.573  -1.903  -0.732  0.00  0.00    +0.133 C 
ATOM     34  C   UNL     1      -6.841  -2.185   2.096  0.00  0.00    +0.178 C 
ATOM     35  C   UNL     1      -7.890  -2.147  -0.003  0.00  0.00    +0.178 C 
ENDBRANCH  29   8
BRANCH  10  15
ATOM     15  C   UNL     1       4.193  -0.684  -0.323  0.00  0.00    +0.100 C 
BRANCH  15  18
ATOM      3  O   UNL     1       5.794  -0.604   1.459  0.00  0.00    -0.276 OA
ATOM      6  N   UNL     1       5.798  -2.510   0.137  0.00  0.00    -0.302 N 
ATOM     18  C   UNL     1       5.331  -1.246   0.512  0.00  0.00    +0.216 C 
BRANCH   6  21
ATOM     21  C   UNL     1       6.884  -3.182   0.840  0.00  0.00    +0.104 C 
ATOM     26  C   UNL     1       8.232  -2.835   0.241  0.00  0.00    +0.024 C 
ENDBRANCH   6  21
BRANCH   6  22
ATOM     22  C   UNL     1       5.234  -3.252  -0.988  0.00  0.00    +0.104 C 
ATOM     27  C   UNL     1       4.085  -4.136  -0.549  0.00  0.00    +0.024 C 
ENDBRANCH   6  22
ENDBRANCH  15  18
ENDBRANCH  10  15
TORSDOF 5
