REMARK  Name = 11912816
REMARK  6 active torsions:
REMARK  status: ('A' for Active; 'I' for Inactive)
REMARK    1  A    between atoms: O_5  and  C_30
REMARK    2  A    between atoms: O_5  and  C_31
REMARK    3  A    between atoms: N_6  and  C_12
REMARK    4  A    between atoms: N_7  and  C_13
REMARK    5  A    between atoms: C_17  and  C_18
REMARK    6  A    between atoms: C_19  and  C_23
REMARK                            x       y       z     vdW  Elec       q    Type
REMARK                         _______ _______ _______ _____ _____    ______ ____
ROOT
ATOM      1  O   UNL     1      -2.353  -2.906  -1.474  0.00  0.00    -0.370 OA
ATOM      2  O   UNL     1      -0.931  -0.190  -2.054  0.00  0.00    -0.370 OA
ATOM     10  C   UNL     1      -0.967  -1.056  -0.908  0.00  0.00    +0.171 C 
ATOM     11  C   UNL     1      -2.369  -1.627  -0.819  0.00  0.00    +0.171 C 
ATOM     12  C   UNL     1      -0.090  -2.265  -1.138  0.00  0.00    +0.130 C 
ATOM     13  C   UNL     1      -3.215  -0.647  -1.599  0.00  0.00    +0.130 C 
ATOM     14  C   UNL     1      -1.013  -3.207  -1.890  0.00  0.00    +0.185 C 
ATOM     15  C   UNL     1      -2.239  -0.135  -2.643  0.00  0.00    +0.185 C 
ENDROOT
BRANCH  12   6
ATOM      6  N   UNL     1       0.293  -2.846   0.130  0.00  0.00    -0.306 N 
ATOM      8  N   UNL     1       2.116  -1.388   0.372  0.00  0.00    -0.214 NA
ATOM      9  N   UNL     1       1.627  -3.048   2.050  0.00  0.00    -0.223 NA
ATOM     16  C   UNL     1       1.378  -2.414   0.873  0.00  0.00    +0.216 A 
ATOM     19  C   UNL     1       3.165  -0.993   1.122  0.00  0.00    +0.076 A 
ATOM     21  C   UNL     1       2.692  -2.601   2.748  0.00  0.00    +0.116 A 
ATOM     22  C   UNL     1       3.504  -1.568   2.330  0.00  0.00    +0.048 A 
ATOM     32  H   UNL     1      -0.280  -3.576   0.537  0.00  0.00    +0.149 HD
BRANCH  19  23
ATOM     23  C   UNL     1       3.934   0.098   0.573  0.00  0.00    +0.001 A 
ATOM     26  C   UNL     1       5.300   0.201   0.848  0.00  0.00    +0.013 A 
ATOM     27  C   UNL     1       3.316   1.055  -0.234  0.00  0.00    +0.013 A 
ATOM     28  C   UNL     1       6.043   1.256   0.318  0.00  0.00    +0.046 A 
ATOM     29  C   UNL     1       4.059   2.110  -0.764  0.00  0.00    +0.046 A 
ATOM     30  C   UNL     1       5.422   2.211  -0.488  0.00  0.00    +0.120 A 
BRANCH  30   5
ATOM      5  O   UNL     1       6.146   3.240  -1.004  0.00  0.00    -0.495 OA
ATOM     31  C   UNL     1       5.449   4.180  -1.820  0.00  0.00    +0.277 C 
ENDBRANCH  30   5
ENDBRANCH  19  23
ENDBRANCH  12   6
BRANCH  13   7
ATOM      3  O   UNL     1      -5.710  -0.561  -0.287  0.00  0.00    -0.267 OA
ATOM      7  N   UNL     1      -3.688   0.423  -0.755  0.00  0.00    -0.301 N 
ATOM     17  C   UNL     1      -4.939   0.389  -0.140  0.00  0.00    +0.280 C 
ATOM     33  H   UNL     1      -3.065   1.204  -0.564  0.00  0.00    +0.150 HD
BRANCH  17  18
ATOM      4  O   UNL     1      -4.325   2.487   0.810  0.00  0.00    -0.458 OA
ATOM     18  C   UNL     1      -5.264   1.538   0.716  0.00  0.00    +0.189 A 
ATOM     20  C   UNL     1      -6.371   1.798   1.434  0.00  0.00    +0.054 A 
ATOM     24  C   UNL     1      -6.113   3.044   2.053  0.00  0.00    +0.042 A 
ATOM     25  C   UNL     1      -4.856   3.422   1.641  0.00  0.00    +0.196 A 
ENDBRANCH  17  18
ENDBRANCH  13   7
TORSDOF 5
