REMARK  Name = 75536804
REMARK  7 active torsions:
REMARK  status: ('A' for Active; 'I' for Inactive)
REMARK    1  A    between atoms: O_2  and  C_9
REMARK    2  A    between atoms: N_4  and  C_8
REMARK    3  A    between atoms: N_4  and  C_13
REMARK    4  A    between atoms: N_5  and  C_12
REMARK    5  A    between atoms: C_10  and  C_12
REMARK    6  A    between atoms: C_13  and  C_14
REMARK    7  A    between atoms: C_15  and  C_18
REMARK                            x       y       z     vdW  Elec       q    Type
REMARK                         _______ _______ _______ _____ _____    ______ ____
ROOT
ATOM      1  O   UNL     1       0.416  -0.923   0.017  0.00  0.00    -0.371 OA
ATOM      8  C   UNL     1      -1.644   0.218  -0.294  0.00  0.00    +0.111 C 
ATOM      9  C   UNL     1      -0.743   1.058   0.592  0.00  0.00    +0.164 C 
ATOM     10  C   UNL     1       0.624   0.480   0.251  0.00  0.00    +0.165 C 
ATOM     11  C   UNL     1      -0.991  -1.149  -0.178  0.00  0.00    +0.181 C 
ENDROOT
BRANCH   9   2
ATOM      2  O   UNL     1      -0.820   2.439   0.297  0.00  0.00    -0.388 OA
ATOM     26  H   UNL     1      -0.608   2.563  -0.643  0.00  0.00    +0.210 HD
ENDBRANCH   9   2
BRANCH   8   4
ATOM      4  N   UNL     1      -3.037   0.218   0.123  0.00  0.00    -0.305 NA
ATOM     25  H   UNL     1      -3.321   1.175   0.335  0.00  0.00    +0.123 HD
BRANCH   4  13
ATOM     13  C   UNL     1      -3.900  -0.309  -0.927  0.00  0.00    +0.116 C 
BRANCH  13  14
ATOM      6  N   UNL     1      -8.029  -0.376   0.275  0.00  0.00    -0.263 NA
ATOM     14  C   UNL     1      -5.345  -0.332  -0.506  0.00  0.00    -0.031 A 
ATOM     16  C   UNL     1      -5.802  -1.313   0.367  0.00  0.00    +0.024 A 
ATOM     17  C   UNL     1      -6.228   0.627  -0.989  0.00  0.00    +0.024 A 
ATOM     19  C   UNL     1      -7.141  -1.291   0.723  0.00  0.00    +0.111 A 
ATOM     20  C   UNL     1      -7.548   0.562  -0.572  0.00  0.00    +0.111 A 
ENDBRANCH  13  14
ENDBRANCH   4  13
ENDBRANCH   8   4
BRANCH  10  12
ATOM     12  C   UNL     1       1.649   0.670   1.355  0.00  0.00    +0.138 C 
BRANCH  12   5
ATOM      3  O   UNL     1       3.792   2.011  -0.006  0.00  0.00    -0.270 OA
ATOM      5  N   UNL     1       2.918   0.108   0.992  0.00  0.00    -0.309 N 
ATOM     15  C   UNL     1       3.902   0.835   0.330  0.00  0.00    +0.244 C 
ATOM     27  H   UNL     1       3.049  -0.880   1.180  0.00  0.00    +0.149 HD
BRANCH  15  18
ATOM      7  N   UNL     1       7.499  -1.284  -0.620  0.00  0.00    -0.263 NA
ATOM     18  C   UNL     1       5.151   0.101   0.001  0.00  0.00    +0.040 A 
ATOM     21  C   UNL     1       5.925   0.491  -1.086  0.00  0.00    +0.033 A 
ATOM     22  C   UNL     1       5.550  -0.981   0.778  0.00  0.00    +0.033 A 
ATOM     23  C   UNL     1       7.079  -0.228  -1.352  0.00  0.00    +0.111 A 
ATOM     24  C   UNL     1       6.721  -1.634   0.429  0.00  0.00    +0.111 A 
ENDBRANCH  15  18
ENDBRANCH  12   5
ENDBRANCH  10  12
TORSDOF 7
