REMARK  Name = 11912776
REMARK  10 active torsions:
REMARK  status: ('A' for Active; 'I' for Inactive)
REMARK    1  A    between atoms: O_3  and  C_12
REMARK    2  A    between atoms: O_3  and  C_16
REMARK    3  A    between atoms: O_4  and  C_19
REMARK    4  A    between atoms: O_4  and  C_25
REMARK    5  A    between atoms: N_6  and  C_11
REMARK    6  A    between atoms: C_16  and  C_19
REMARK    7  A    between atoms: C_17  and  C_18
REMARK    8  A    between atoms: C_17  and  C_20
REMARK    9  A    between atoms: C_17  and  C_21
REMARK   10  A    between atoms: C_17  and  C_22
REMARK                            x       y       z     vdW  Elec       q    Type
REMARK                         _______ _______ _______ _____ _____    ______ ____
ROOT
ATOM      1  O   UNL     1       1.928   0.380  -1.288  0.00  0.00    -0.369 OA
ATOM      2  O   UNL     1       0.414  -2.081  -0.257  0.00  0.00    -0.369 OA
ATOM      9  C   UNL     1       0.218  -0.671  -0.025  0.00  0.00    +0.172 C 
ATOM     10  C   UNL     1       1.596  -0.042   0.044  0.00  0.00    +0.180 C 
ATOM     11  C   UNL     1      -0.415  -0.030  -1.238  0.00  0.00    +0.130 C 
ATOM     12  C   UNL     1       2.459  -1.194   0.498  0.00  0.00    +0.176 C 
ATOM     13  C   UNL     1       0.783   0.214  -2.139  0.00  0.00    +0.185 C 
ATOM     14  C   UNL     1       1.820  -2.369  -0.208  0.00  0.00    +0.194 C 
ENDROOT
BRANCH  11   6
ATOM      6  N   UNL     1      -1.035   1.227  -0.875  0.00  0.00    -0.306 N 
ATOM      7  N   UNL     1      -3.029   0.180  -0.216  0.00  0.00    -0.219 NA
ATOM      8  N   UNL     1      -2.780   2.573  -0.070  0.00  0.00    -0.223 NA
ATOM     15  C   UNL     1      -2.320   1.330  -0.372  0.00  0.00    +0.216 A 
ATOM     18  C   UNL     1      -4.277   0.318   0.276  0.00  0.00    +0.052 A 
ATOM     23  C   UNL     1      -4.839   1.532   0.615  0.00  0.00    +0.043 A 
ATOM     24  C   UNL     1      -4.036   2.637   0.418  0.00  0.00    +0.116 A 
ATOM     26  H   UNL     1      -0.497   2.084  -0.938  0.00  0.00    +0.149 HD
BRANCH  18  17
ATOM     17  C   UNL     1      -5.070  -0.934   0.454  0.00  0.00    +0.005 C 
ATOM     20  C   UNL     1      -4.340  -2.255   0.042  0.00  0.00    +0.017 C 
ATOM     21  C   UNL     1      -5.482  -1.135   1.945  0.00  0.00    +0.017 C 
ATOM     22  C   UNL     1      -6.378  -0.900  -0.396  0.00  0.00    +0.017 C 
ENDBRANCH  18  17
ENDBRANCH  11   6
BRANCH  12   3
ATOM      3  O   UNL     1       3.819  -1.047   0.157  0.00  0.00    -0.360 OA
BRANCH   3  16
ATOM     16  C   UNL     1       4.419   0.061   0.824  0.00  0.00    +0.280 C 
BRANCH  16  19
ATOM      5  O   UNL     1       6.425  -0.618  -0.357  0.00  0.00    -0.248 OA
ATOM     19  C   UNL     1       5.865   0.152   0.410  0.00  0.00    +0.333 C 
BRANCH  19   4
ATOM      4  O   UNL     1       6.436   1.227   1.029  0.00  0.00    -0.466 OA
ATOM     25  C   UNL     1       7.819   1.446   0.731  0.00  0.00    +0.280 C 
ENDBRANCH  19   4
ENDBRANCH  16  19
ENDBRANCH   3  16
ENDBRANCH  12   3
TORSDOF 6
