REMARK  Name = 45783560
REMARK  9 active torsions:
REMARK  status: ('A' for Active; 'I' for Inactive)
REMARK    1  A    between atoms: O_2  and  C_25
REMARK    2  A    between atoms: O_2  and  C_26
REMARK    3  A    between atoms: O_3  and  C_27
REMARK    4  A    between atoms: O_3  and  C_28
REMARK    5  A    between atoms: N_4  and  C_13
REMARK    6  A    between atoms: C_9  and  C_14
REMARK    7  A    between atoms: C_13  and  C_15
REMARK    8  A    between atoms: C_16  and  C_19
REMARK    9  A    between atoms: C_26  and  C_27
REMARK                            x       y       z     vdW  Elec       q    Type
REMARK                         _______ _______ _______ _____ _____    ______ ____
ROOT
ATOM      1  O   UNL     1      -2.074   0.364  -2.014  0.00  0.00    -0.336 OA
ATOM      5  N   UNL     1      -1.199   1.128  -0.099  0.00  0.00    -0.190 NA
ATOM      6  N   UNL     1      -0.713   0.037  -2.050  0.00  0.00    -0.056 NA
ATOM     14  C   UNL     1      -2.276   1.004  -0.832  0.00  0.00    +0.245 A 
ATOM     16  C   UNL     1      -0.266   0.520  -0.886  0.00  0.00    +0.204 A 
ENDROOT
BRANCH  16  19
ATOM      8  N   UNL     1       3.350  -0.345  -0.970  0.00  0.00    -0.221 NA
ATOM     19  C   UNL     1       1.106   0.412  -0.482  0.00  0.00    +0.041 A 
ATOM     22  C   UNL     1       1.537   0.928   0.735  0.00  0.00    +0.018 A 
ATOM     23  C   UNL     1       2.044  -0.209  -1.291  0.00  0.00    +0.126 A 
ATOM     24  C   UNL     1       2.873   0.808   1.101  0.00  0.00    +0.068 A 
ATOM     25  C   UNL     1       3.731   0.169   0.222  0.00  0.00    +0.215 A 
BRANCH  25   2
ATOM      2  O   UNL     1       5.053   0.038   0.559  0.00  0.00    -0.474 OA
BRANCH   2  26
ATOM     26  C   UNL     1       5.891  -0.626  -0.379  0.00  0.00    +0.258 C 
BRANCH  26  27
ATOM     27  C   UNL     1       7.310  -0.652   0.155  0.00  0.00    +0.200 C 
BRANCH  27   3
ATOM      3  O   UNL     1       7.766   0.684   0.326  0.00  0.00    -0.380 OA
ATOM     28  C   UNL     1       9.087   0.721   0.847  0.00  0.00    +0.194 C 
ENDBRANCH  27   3
ENDBRANCH  26  27
ENDBRANCH   2  26
ENDBRANCH  25   2
ENDBRANCH  16  19
BRANCH  14   9
ATOM      4  N   UNL     1      -4.228   0.911   0.709  0.00  0.00    -0.287 NA
ATOM      9  C   UNL     1      -3.690   1.467  -0.549  0.00  0.00    +0.146 C 
ATOM     10  C   UNL     1      -3.792   2.994  -0.376  0.00  0.00    +0.030 C 
ATOM     11  C   UNL     1      -4.454   3.197   0.979  0.00  0.00    +0.017 C 
ATOM     12  C   UNL     1      -5.186   1.892   1.218  0.00  0.00    +0.085 C 
BRANCH   4  13
ATOM     13  C   UNL     1      -4.829  -0.407   0.543  0.00  0.00    +0.121 C 
BRANCH  13  15
ATOM      7  N   UNL     1      -2.774  -3.328  -0.713  0.00  0.00    -0.263 NA
ATOM     15  C   UNL     1      -3.789  -1.495   0.493  0.00  0.00    -0.015 A 
ATOM     17  C   UNL     1      -2.905  -1.690   1.549  0.00  0.00    +0.008 A 
ATOM     18  C   UNL     1      -3.683  -2.333  -0.605  0.00  0.00    +0.115 A 
ATOM     20  C   UNL     1      -1.956  -2.703   1.475  0.00  0.00    +0.020 A 
ATOM     21  C   UNL     1      -1.932  -3.487   0.333  0.00  0.00    +0.111 A 
ENDBRANCH  13  15
ENDBRANCH   4  13
ENDBRANCH  14   9
TORSDOF 8
