REMARK  Name = 11883369
REMARK  10 active torsions:
REMARK  status: ('A' for Active; 'I' for Inactive)
REMARK    1  A    between atoms: O_6  and  C_16
REMARK    2  A    between atoms: O_6  and  C_20
REMARK    3  A    between atoms: O_9  and  C_31
REMARK    4  A    between atoms: O_9  and  C_34
REMARK    5  A    between atoms: O_10  and  C_32
REMARK    6  A    between atoms: O_10  and  C_35
REMARK    7  A    between atoms: N_11  and  C_15
REMARK    8  A    between atoms: N_12  and  C_24
REMARK    9  A    between atoms: C_19  and  C_21
REMARK   10  A    between atoms: C_27  and  C_30
REMARK                            x       y       z     vdW  Elec       q    Type
REMARK                         _______ _______ _______ _____ _____    ______ ____
ROOT
ATOM      4  O   UNL     1      -0.097   1.938   0.957  0.00  0.00    -0.368 OA
ATOM      5  O   UNL     1      -0.502   3.977  -1.298  0.00  0.00    -0.368 OA
ATOM     13  C   UNL     1      -1.087   2.678  -1.067  0.00  0.00    +0.173 C 
ATOM     14  C   UNL     1       0.001   1.807  -0.471  0.00  0.00    +0.192 C 
ATOM     15  C   UNL     1      -2.124   2.762   0.028  0.00  0.00    +0.130 C 
ATOM     16  C   UNL     1       1.260   2.445  -1.007  0.00  0.00    +0.235 C 
ATOM     17  C   UNL     1      -1.273   2.694   1.284  0.00  0.00    +0.185 C 
ATOM     18  C   UNL     1       0.901   3.913  -1.002  0.00  0.00    +0.207 C 
ENDROOT
BRANCH  15  11
ATOM      7  O   UNL     1      -4.819   2.715   1.019  0.00  0.00    -0.270 OA
ATOM     11  N   UNL     1      -3.048   1.656  -0.041  0.00  0.00    -0.304 N 
ATOM     19  C   UNL     1      -4.337   1.728   0.469  0.00  0.00    +0.244 C 
ATOM     36  H   UNL     1      -2.686   0.773  -0.385  0.00  0.00    +0.149 HD
BRANCH  19  21
ATOM     21  C   UNL     1      -5.156   0.494   0.343  0.00  0.00    +0.037 A 
ATOM     22  C   UNL     1      -6.180   0.242   1.256  0.00  0.00    +0.013 A 
ATOM     23  C   UNL     1      -4.901  -0.411  -0.687  0.00  0.00    +0.013 A 
ATOM     25  C   UNL     1      -6.948  -0.916   1.139  0.00  0.00    +0.013 A 
ATOM     26  C   UNL     1      -5.669  -1.569  -0.804  0.00  0.00    +0.013 A 
ATOM     27  C   UNL     1      -6.693  -1.822   0.109  0.00  0.00    +0.055 A 
BRANCH  27  30
ATOM      1  F   UNL     1      -8.183  -3.154  -1.205  0.00  0.00    -0.166 F 
ATOM      2  F   UNL     1      -8.481  -3.175   0.943  0.00  0.00    -0.166 F 
ATOM      3  F   UNL     1      -6.769  -4.198   0.076  0.00  0.00    -0.166 F 
ATOM     30  C   UNL     1      -7.516  -3.059  -0.017  0.00  0.00    +0.417 C 
ENDBRANCH  27  30
ENDBRANCH  19  21
ENDBRANCH  15  11
BRANCH  16   6
ATOM      6  O   UNL     1       2.403   2.176  -0.226  0.00  0.00    -0.442 OA
BRANCH   6  20
ATOM      8  O   UNL     1       2.892   0.379  -1.553  0.00  0.00    -0.226 OA
ATOM     12  N   UNL     1       4.244   0.968   0.265  0.00  0.00    -0.251 N 
ATOM     20  C   UNL     1       3.170   1.091  -0.596  0.00  0.00    +0.405 C 
ATOM     37  H   UNL     1       4.306   1.661   1.006  0.00  0.00    +0.158 HD
BRANCH  12  24
ATOM     24  C   UNL     1       5.270  -0.003   0.244  0.00  0.00    +0.043 A 
ATOM     28  C   UNL     1       6.282   0.030   1.202  0.00  0.00    +0.069 A 
ATOM     29  C   UNL     1       5.271  -0.996  -0.737  0.00  0.00    +0.069 A 
ATOM     31  C   UNL     1       6.284  -1.954  -0.758  0.00  0.00    +0.125 A 
ATOM     32  C   UNL     1       7.296  -0.928   1.181  0.00  0.00    +0.125 A 
ATOM     33  C   UNL     1       7.297  -1.920   0.200  0.00  0.00    +0.091 A 
BRANCH  31   9
ATOM      9  O   UNL     1       6.286  -2.921  -1.716  0.00  0.00    -0.495 OA
ATOM     34  C   UNL     1       7.352  -3.869  -1.680  0.00  0.00    +0.277 C 
ENDBRANCH  31   9
BRANCH  32  10
ATOM     10  O   UNL     1       8.285  -0.894   2.115  0.00  0.00    -0.495 OA
ATOM     35  C   UNL     1       9.289  -1.905   2.034  0.00  0.00    +0.277 C 
ENDBRANCH  32  10
ENDBRANCH  12  24
ENDBRANCH   6  20
ENDBRANCH  16   6
TORSDOF 8
