REMARK  Name = 26742973
REMARK  10 active torsions:
REMARK  status: ('A' for Active; 'I' for Inactive)
REMARK    1  A    between atoms: N_5  and  C_19
REMARK    2  A    between atoms: C_7  and  C_13
REMARK    3  A    between atoms: C_8  and  C_11
REMARK    4  A    between atoms: C_11  and  C_14
REMARK    5  A    between atoms: C_13  and  C_15
REMARK    6  A    between atoms: C_17  and  C_18
REMARK    7  A    between atoms: C_18  and  C_20
REMARK    8  A    between atoms: C_19  and  C_21
REMARK    9  A    between atoms: C_20  and  C_22
REMARK   10  A    between atoms: C_22  and  C_23
REMARK                            x       y       z     vdW  Elec       q    Type
REMARK                         _______ _______ _______ _____ _____    ______ ____
ROOT
ATOM      4  N   UNL     1       5.627  -1.320  -0.322  0.00  0.00    -0.316 NA
ATOM      7  C   UNL     1       2.791  -0.529  -0.525  0.00  0.00    +0.004 C 
ATOM      8  C   UNL     1       3.790   0.175   0.424  0.00  0.00    +0.012 C 
ATOM      9  C   UNL     1       3.570  -1.176  -1.683  0.00  0.00    +0.019 C 
ATOM     10  C   UNL     1       4.936  -0.763   0.841  0.00  0.00    +0.085 C 
ATOM     12  C   UNL     1       4.716  -2.060  -1.193  0.00  0.00    +0.081 C 
ATOM     29  H   UNL     1       6.372  -1.941  -0.006  0.00  0.00    +0.122 HD
ENDROOT
BRANCH   8  11
ATOM     11  C   UNL     1       3.119   0.783   1.657  0.00  0.00    +0.064 C 
BRANCH  11  14
ATOM      2  O   UNL     1       1.192   3.688   0.757  0.00  0.00    -0.359 OA
ATOM      6  N   UNL     1       2.381   3.062   1.110  0.00  0.00    -0.083 NA
ATOM     14  C   UNL     1       2.060   1.775   1.269  0.00  0.00    +0.084 A 
ATOM     16  C   UNL     1       0.696   1.532   1.033  0.00  0.00    +0.071 A 
ATOM     17  C   UNL     1       0.196   2.767   0.715  0.00  0.00    +0.138 A 
BRANCH  17  18
ATOM     18  C   UNL     1      -1.139   3.261   0.356  0.00  0.00    +0.077 C 
BRANCH  18  20
ATOM     20  C   UNL     1      -1.531   2.939  -1.104  0.00  0.00    +0.007 C 
BRANCH  20  22
ATOM     22  C   UNL     1      -2.903   3.497  -1.480  0.00  0.00    -0.003 C 
ATOM     23  C   UNL     1      -3.247   3.201  -2.931  0.00  0.00    +0.004 C 
ENDBRANCH  20  22
ENDBRANCH  18  20
ENDBRANCH  17  18
ENDBRANCH  11  14
ENDBRANCH   8  11
BRANCH   7  13
ATOM     13  C   UNL     1       1.891  -1.558   0.169  0.00  0.00    +0.099 C 
BRANCH  13  15
ATOM      3  O   UNL     1       0.365  -1.302  -1.690  0.00  0.00    -0.276 OA
ATOM      5  N   UNL     1      -0.153  -2.795   0.014  0.00  0.00    -0.311 N 
ATOM     15  C   UNL     1       0.634  -1.848  -0.624  0.00  0.00    +0.214 C 
ATOM     30  H   UNL     1       0.150  -3.175   0.906  0.00  0.00    +0.149 HD
BRANCH   5  19
ATOM     19  C   UNL     1      -1.414  -3.260  -0.518  0.00  0.00    +0.139 C 
BRANCH  19  21
ATOM      1  F   UNL     1      -5.740  -0.139   1.281  0.00  0.00    -0.205 F 
ATOM     21  C   UNL     1      -2.567  -2.428  -0.039  0.00  0.00    -0.030 A 
ATOM     24  C   UNL     1      -3.235  -2.773   1.136  0.00  0.00    +0.008 A 
ATOM     25  C   UNL     1      -2.972  -1.310  -0.768  0.00  0.00    +0.008 A 
ATOM     26  C   UNL     1      -4.307  -2.000   1.582  0.00  0.00    +0.038 A 
ATOM     27  C   UNL     1      -4.044  -0.537  -0.322  0.00  0.00    +0.038 A 
ATOM     28  C   UNL     1      -4.712  -0.882   0.853  0.00  0.00    +0.123 A 
ENDBRANCH  19  21
ENDBRANCH   5  19
ENDBRANCH  13  15
ENDBRANCH   7  13
TORSDOF 9
