REMARK  Name = 26762206
REMARK  5 active torsions:
REMARK  status: ('A' for Active; 'I' for Inactive)
REMARK    1  A    between atoms: N_8  and  C_13
REMARK    2  A    between atoms: N_10  and  C_28
REMARK    3  A    between atoms: C_12  and  C_17
REMARK    4  A    between atoms: C_17  and  C_19
REMARK    5  A    between atoms: C_19  and  C_20
REMARK                            x       y       z     vdW  Elec       q    Type
REMARK                         _______ _______ _______ _____ _____    ______ ____
ROOT
ATOM      3  O   UNL     1      -3.888  -3.272   2.346  0.00  0.00    -0.274 OA
ATOM      6  N   UNL     1      -2.772  -1.948  -0.620  0.00  0.00    -0.285 NA
ATOM      7  N   UNL     1      -4.996  -1.847   0.903  0.00  0.00    -0.313 N 
ATOM     11  C   UNL     1      -3.195  -3.189   0.024  0.00  0.00    +0.145 C 
ATOM     12  C   UNL     1      -3.873  -1.197  -1.230  0.00  0.00    +0.075 C 
ATOM     13  C   UNL     1      -0.869  -3.281  -0.659  0.00  0.00    +0.090 C 
ATOM     14  C   UNL     1      -1.875  -3.885   0.332  0.00  0.00    +0.052 C 
ATOM     15  C   UNL     1      -1.688  -2.321  -1.523  0.00  0.00    +0.107 C 
ATOM     16  C   UNL     1      -5.200  -1.428  -0.473  0.00  0.00    +0.123 C 
ATOM     18  C   UNL     1      -4.028  -2.789   1.227  0.00  0.00    +0.230 C 
ATOM     36  H   UNL     1      -5.635  -1.525   1.623  0.00  0.00    +0.149 HD
ENDROOT
BRANCH  13   8
ATOM      5  O   UNL     1       1.815  -2.912  -1.593  0.00  0.00    -0.252 OA
ATOM      8  N   UNL     1       0.200  -2.597   0.031  0.00  0.00    -0.295 N 
ATOM     10  N   UNL     1       2.306  -1.754   0.389  0.00  0.00    -0.267 N 
ATOM     21  C   UNL     1       1.489  -2.460  -0.498  0.00  0.00    +0.304 C 
ATOM     37  H   UNL     1      -0.015  -2.117   0.900  0.00  0.00    +0.151 HD
ATOM     38  H   UNL     1       1.880  -1.446   1.260  0.00  0.00    +0.156 HD
BRANCH  10  28
ATOM      1  F   UNL     1       3.692  -0.332   2.344  0.00  0.00    -0.203 F 
ATOM      2  F   UNL     1       7.644  -0.404  -0.256  0.00  0.00    -0.205 F 
ATOM     28  C   UNL     1       3.668  -1.408   0.226  0.00  0.00    +0.070 A 
ATOM     31  C   UNL     1       4.333  -0.696   1.224  0.00  0.00    +0.147 A 
ATOM     32  C   UNL     1       4.346  -1.782  -0.934  0.00  0.00    +0.029 A 
ATOM     33  C   UNL     1       5.677  -0.356   1.061  0.00  0.00    +0.078 A 
ATOM     34  C   UNL     1       5.689  -1.442  -1.097  0.00  0.00    +0.040 A 
ATOM     35  C   UNL     1       6.355  -0.730  -0.099  0.00  0.00    +0.126 A 
ENDBRANCH  10  28
ENDBRANCH  13   8
BRANCH  12  17
ATOM     17  C   UNL     1      -3.513   0.291  -1.225  0.00  0.00    +0.029 C 
BRANCH  17  19
ATOM     19  C   UNL     1      -3.271   0.824   0.179  0.00  0.00    +0.098 C 
BRANCH  19  20
ATOM      4  O   UNL     1      -3.752   3.145   0.204  0.00  0.00    -0.275 OA
ATOM      9  N   UNL     1      -1.510   2.513   0.051  0.00  0.00    -0.271 N 
ATOM     20  C   UNL     1      -2.876   2.282   0.146  0.00  0.00    +0.220 C 
ATOM     22  C   UNL     1      -0.461   1.474  -0.018  0.00  0.00    +0.118 C 
ATOM     23  C   UNL     1      -0.887   3.777   0.003  0.00  0.00    +0.039 A 
ATOM     24  C   UNL     1       0.894   2.184  -0.107  0.00  0.00    +0.056 C 
ATOM     25  C   UNL     1       0.498   3.624  -0.090  0.00  0.00    -0.024 A 
ATOM     26  C   UNL     1      -1.457   5.042   0.035  0.00  0.00    +0.024 A 
ATOM     27  C   UNL     1       1.342   4.722  -0.152  0.00  0.00    +0.005 A 
ATOM     29  C   UNL     1      -0.613   6.155  -0.028  0.00  0.00    +0.002 A 
ATOM     30  C   UNL     1       0.777   5.997  -0.120  0.00  0.00    +0.000 A 
ENDBRANCH  19  20
ENDBRANCH  17  19
ENDBRANCH  12  17
TORSDOF 5
