REMARK  Name = 9419217
REMARK  3 active torsions:
REMARK  status: ('A' for Active; 'I' for Inactive)
REMARK    1  A    between atoms: C_14  and  C_19
REMARK    2  A    between atoms: C_16  and  C_20
REMARK    3  A    between atoms: C_24  and  C_29
REMARK                            x       y       z     vdW  Elec       q    Type
REMARK                         _______ _______ _______ _____ _____    ______ ____
ROOT
ATOM      1  O   UNL     1      -3.507  -2.161  -2.063  0.00  0.00    -0.268 OA
ATOM      2  O   UNL     1      -2.944   2.189  -0.672  0.00  0.00    -0.267 OA
ATOM      4  N   UNL     1      -2.073  -1.585  -0.304  0.00  0.00    -0.311 N 
ATOM      5  N   UNL     1      -1.746   1.229   1.091  0.00  0.00    -0.294 N 
ATOM      7  C   UNL     1      -2.978  -0.749   1.946  0.00  0.00    +0.027 C 
ATOM      8  C   UNL     1      -0.551  -0.897   1.574  0.00  0.00    +0.054 C 
ATOM      9  C   UNL     1      -1.684  -1.314   2.511  0.00  0.00    +0.018 C 
ATOM     10  C   UNL     1      -3.231  -1.389   0.580  0.00  0.00    +0.130 C 
ATOM     11  C   UNL     1      -2.907   0.785   1.860  0.00  0.00    +0.113 C 
ATOM     12  C   UNL     1      -0.467   0.644   1.520  0.00  0.00    +0.117 C 
ATOM     13  C   UNL     1      -0.750  -1.460   0.165  0.00  0.00    +0.034 A 
ATOM     14  C   UNL     1       0.290  -1.802  -0.641  0.00  0.00    +0.002 A 
ATOM     15  C   UNL     1      -2.372  -2.021  -1.607  0.00  0.00    +0.252 A 
ATOM     16  C   UNL     1      -1.926   2.098   0.013  0.00  0.00    +0.282 C 
ATOM     17  C   UNL     1       0.019  -2.252  -1.993  0.00  0.00    +0.015 A 
ATOM     18  C   UNL     1      -1.219  -2.349  -2.476  0.00  0.00    +0.071 A 
ENDROOT
BRANCH  14  19
ATOM     19  C   UNL     1       1.693  -1.711  -0.182  0.00  0.00    -0.015 A 
ATOM     21  C   UNL     1       2.403  -0.527  -0.358  0.00  0.00    +0.027 A 
ATOM     22  C   UNL     1       2.295  -2.811   0.423  0.00  0.00    +0.008 A 
ATOM     24  C   UNL     1       3.727  -0.442   0.074  0.00  0.00    +0.052 A 
ATOM     25  C   UNL     1       3.618  -2.726   0.855  0.00  0.00    +0.002 A 
ATOM     26  C   UNL     1       4.334  -1.541   0.681  0.00  0.00    +0.019 A 
BRANCH  24  29
ATOM      6  N   UNL     1       5.058   1.757  -0.249  0.00  0.00    -0.191 NA
ATOM     29  C   UNL     1       4.461   0.771  -0.104  0.00  0.00    +0.099 C 
ENDBRANCH  24  29
ENDBRANCH  14  19
BRANCH  16  20
ATOM      3  O   UNL     1       0.035   3.369   0.614  0.00  0.00    -0.458 OA
ATOM     20  C   UNL     1      -0.811   2.974  -0.366  0.00  0.00    +0.189 A 
ATOM     23  C   UNL     1      -0.445   3.494  -1.578  0.00  0.00    +0.054 A 
ATOM     27  C   UNL     1       0.714   4.268  -1.331  0.00  0.00    +0.042 A 
ATOM     28  C   UNL     1       0.965   4.160   0.017  0.00  0.00    +0.196 A 
ENDBRANCH  16  20
TORSDOF 3
