REMARK  Name = 45360654
REMARK  10 active torsions:
REMARK  status: ('A' for Active; 'I' for Inactive)
REMARK    1  A    between atoms: O_4  and  C_26
REMARK    2  A    between atoms: O_4  and  C_32
REMARK    3  A    between atoms: N_7  and  C_10
REMARK    4  A    between atoms: N_7  and  C_18
REMARK    5  A    between atoms: N_8  and  C_23
REMARK    6  A    between atoms: C_12  and  C_16
REMARK    7  A    between atoms: C_16  and  C_17
REMARK    8  A    between atoms: C_17  and  C_19
REMARK    9  A    between atoms: C_18  and  C_20
REMARK   10  A    between atoms: C_23  and  C_27
REMARK                            x       y       z     vdW  Elec       q    Type
REMARK                         _______ _______ _______ _____ _____    ______ ____
ROOT
ATOM      2  O   UNL     1      -0.693  -2.095   2.765  0.00  0.00    -0.274 OA
ATOM      5  N   UNL     1      -0.950   0.907   0.705  0.00  0.00    -0.286 NA
ATOM      6  N   UNL     1      -1.496  -0.034   3.292  0.00  0.00    -0.313 N 
ATOM      9  C   UNL     1      -0.836  -0.537   0.945  0.00  0.00    +0.145 C 
ATOM     10  C   UNL     1       1.156   0.416  -0.065  0.00  0.00    +0.070 C 
ATOM     11  C   UNL     1       0.556  -0.908   0.410  0.00  0.00    +0.048 C 
ATOM     12  C   UNL     1      -1.980   1.568   1.498  0.00  0.00    +0.075 C 
ATOM     13  C   UNL     1       0.402   1.459   0.749  0.00  0.00    +0.104 C 
ATOM     14  C   UNL     1      -1.738   1.357   2.984  0.00  0.00    +0.123 C 
ATOM     15  C   UNL     1      -0.978  -0.949   2.407  0.00  0.00    +0.230 C 
ATOM     34  H   UNL     1      -1.605  -0.326   4.258  0.00  0.00    +0.149 HD
ENDROOT
BRANCH  10   7
ATOM      7  N   UNL     1       2.599   0.481   0.104  0.00  0.00    -0.308 NA
ATOM     35  H   UNL     1       2.891   1.458   0.087  0.00  0.00    +0.123 HD
BRANCH   7  18
ATOM     18  C   UNL     1       3.283  -0.236  -0.965  0.00  0.00    +0.116 C 
BRANCH  18  20
ATOM     20  C   UNL     1       4.779  -0.192  -0.800  0.00  0.00    -0.033 A 
ATOM     21  C   UNL     1       5.483   0.968  -1.123  0.00  0.00    +0.008 A 
ATOM     22  C   UNL     1       5.461  -1.312  -0.326  0.00  0.00    +0.008 A 
ATOM     24  C   UNL     1       6.869   1.008  -0.970  0.00  0.00    +0.046 A 
ATOM     25  C   UNL     1       6.847  -1.272  -0.173  0.00  0.00    +0.046 A 
ATOM     26  C   UNL     1       7.551  -0.112  -0.496  0.00  0.00    +0.120 A 
BRANCH  26   4
ATOM      4  O   UNL     1       8.903  -0.072  -0.346  0.00  0.00    -0.495 OA
ATOM     32  C   UNL     1       9.537  -1.253   0.144  0.00  0.00    +0.277 C 
ENDBRANCH  26   4
ENDBRANCH  18  20
ENDBRANCH   7  18
ENDBRANCH  10   7
BRANCH  12  16
ATOM     16  C   UNL     1      -2.118   3.055   1.170  0.00  0.00    +0.029 C 
BRANCH  16  17
ATOM     17  C   UNL     1      -2.319   3.274  -0.323  0.00  0.00    +0.097 C 
BRANCH  17  19
ATOM      3  O   UNL     1      -4.704   2.866  -0.420  0.00  0.00    -0.276 OA
ATOM      8  N   UNL     1      -3.294   1.661  -1.817  0.00  0.00    -0.311 N 
ATOM     19  C   UNL     1      -3.579   2.600  -0.836  0.00  0.00    +0.213 C 
ATOM     36  H   UNL     1      -2.331   1.481  -2.083  0.00  0.00    +0.149 HD
BRANCH   8  23
ATOM     23  C   UNL     1      -4.325   0.883  -2.462  0.00  0.00    +0.139 C 
BRANCH  23  27
ATOM      1  F   UNL     1      -5.338  -3.938   0.273  0.00  0.00    -0.205 F 
ATOM     27  C   UNL     1      -4.596  -0.405  -1.731  0.00  0.00    -0.030 A 
ATOM     28  C   UNL     1      -3.883  -1.557  -2.062  0.00  0.00    +0.008 A 
ATOM     29  C   UNL     1      -5.559  -0.446  -0.723  0.00  0.00    +0.008 A 
ATOM     30  C   UNL     1      -4.133  -2.751  -1.385  0.00  0.00    +0.038 A 
ATOM     31  C   UNL     1      -5.810  -1.640  -0.046  0.00  0.00    +0.038 A 
ATOM     33  C   UNL     1      -5.097  -2.792  -0.377  0.00  0.00    +0.123 A 
ENDBRANCH  23  27
ENDBRANCH   8  23
ENDBRANCH  17  19
ENDBRANCH  16  17
ENDBRANCH  12  16
TORSDOF 9
