REMARK  Name = 75536869
REMARK  5 active torsions:
REMARK  status: ('A' for Active; 'I' for Inactive)
REMARK    1  A    between atoms: O_5  and  C_13
REMARK    2  A    between atoms: O_5  and  C_16
REMARK    3  A    between atoms: N_6  and  C_10
REMARK    4  A    between atoms: C_7  and  C_10
REMARK    5  A    between atoms: C_21  and  C_22
REMARK                            x       y       z     vdW  Elec       q    Type
REMARK                         _______ _______ _______ _____ _____    ______ ____
ROOT
ATOM      5  O   UNL     1      -0.278   1.087  -1.395  0.00  0.00    -0.485 OA
ENDROOT
BRANCH   5  13
ATOM      4  O   UNL     1      -2.847   3.055   0.180  0.00  0.00    -0.375 OA
ATOM      6  N   UNL     1      -3.334  -0.014   0.438  0.00  0.00    -0.296 NA
ATOM     11  C   UNL     1      -1.990  -0.045  -0.149  0.00  0.00    +0.131 C 
ATOM     12  C   UNL     1      -3.534   1.040   1.434  0.00  0.00    +0.112 C 
ATOM     13  C   UNL     1      -1.290   1.298  -0.410  0.00  0.00    +0.213 C 
ATOM     14  C   UNL     1      -3.940   2.341   0.742  0.00  0.00    +0.175 C 
ATOM     15  C   UNL     1      -2.213   2.400  -0.913  0.00  0.00    +0.205 C 
BRANCH   6  10
ATOM     10  C   UNL     1      -3.679  -1.331   0.975  0.00  0.00    +0.088 C 
BRANCH  10   7
ATOM      7  C   UNL     1      -3.974  -2.304  -0.120  0.00  0.00    +0.003 C 
ATOM      8  C   UNL     1      -3.932  -3.783   0.150  0.00  0.00    +0.005 C 
ATOM      9  C   UNL     1      -2.872  -3.145  -0.703  0.00  0.00    +0.005 C 
ENDBRANCH  10   7
ENDBRANCH   6  10
ENDBRANCH   5  13
BRANCH   5  16
ATOM     16  C   UNL     1       0.952   0.703  -0.935  0.00  0.00    +0.121 A 
ATOM     17  C   UNL     1       1.502  -0.511  -1.346  0.00  0.00    +0.046 A 
ATOM     18  C   UNL     1       1.655   1.526  -0.055  0.00  0.00    +0.046 A 
ATOM     19  C   UNL     1       2.755  -0.903  -0.876  0.00  0.00    +0.016 A 
ATOM     20  C   UNL     1       2.909   1.133   0.414  0.00  0.00    +0.016 A 
ATOM     21  C   UNL     1       3.459  -0.081   0.004  0.00  0.00    +0.055 A 
BRANCH  21  22
ATOM      1  F   UNL     1       4.859  -0.624   1.865  0.00  0.00    -0.166 F 
ATOM      2  F   UNL     1       5.801   0.370   0.183  0.00  0.00    -0.166 F 
ATOM      3  F   UNL     1       5.191  -1.710   0.011  0.00  0.00    -0.166 F 
ATOM     22  C   UNL     1       4.799  -0.500   0.506  0.00  0.00    +0.417 C 
ENDBRANCH  21  22
ENDBRANCH   5  16
TORSDOF 5
