REMARK  Name = 75536954
REMARK  2 active torsions:
REMARK  status: ('A' for Active; 'I' for Inactive)
REMARK    1  A    between atoms: O_3  and  C_10
REMARK    2  A    between atoms: N_4  and  C_5
REMARK                            x       y       z     vdW  Elec       q    Type
REMARK                         _______ _______ _______ _____ _____    ______ ____
ROOT
ATOM      2  O   UNL     1       3.126   1.315  -0.165  0.00  0.00    -0.376 OA
ATOM      4  N   UNL     1       0.223   0.190   0.012  0.00  0.00    -0.295 NA
ATOM      8  C   UNL     1       0.964  -1.052   0.258  0.00  0.00    +0.118 C 
ATOM      9  C   UNL     1       0.796   1.372   0.656  0.00  0.00    +0.113 C 
ATOM     10  C   UNL     1       2.498  -0.971   0.323  0.00  0.00    +0.154 C 
ATOM     13  C   UNL     1       1.875   1.983  -0.239  0.00  0.00    +0.175 C 
ATOM     14  C   UNL     1       3.119  -0.011  -0.683  0.00  0.00    +0.192 C 
ENDROOT
BRANCH   4   5
ATOM      1  O   UNL     1      -3.933  -0.187  -0.465  0.00  0.00    -0.380 OA
ATOM      5  C   UNL     1      -1.185   0.014   0.369  0.00  0.00    +0.061 C 
ATOM      6  C   UNL     1      -2.002   1.233  -0.069  0.00  0.00    +0.047 C 
ATOM      7  C   UNL     1      -1.760  -1.257  -0.264  0.00  0.00    +0.047 C 
ATOM     11  C   UNL     1      -3.486   0.999   0.191  0.00  0.00    +0.161 C 
ATOM     12  C   UNL     1      -3.257  -1.353   0.007  0.00  0.00    +0.161 C 
ENDBRANCH   4   5
BRANCH  10   3
ATOM      3  O   UNL     1       3.022  -2.275   0.069  0.00  0.00    -0.388 OA
ATOM     15  H   UNL     1       2.651  -2.876   0.738  0.00  0.00    +0.210 HD
ENDBRANCH  10   3
TORSDOF 2
