REMARK  Name = 75536846
REMARK  9 active torsions:
REMARK  status: ('A' for Active; 'I' for Inactive)
REMARK    1  A    between atoms: O_2  and  C_7
REMARK    2  A    between atoms: O_3  and  C_12
REMARK    3  A    between atoms: O_3  and  C_13
REMARK    4  A    between atoms: N_5  and  C_9
REMARK    5  A    between atoms: N_6  and  C_11
REMARK    6  A    between atoms: C_8  and  C_11
REMARK    7  A    between atoms: C_12  and  C_14
REMARK    8  A    between atoms: C_12  and  C_15
REMARK    9  A    between atoms: C_12  and  C_16
REMARK                            x       y       z     vdW  Elec       q    Type
REMARK                         _______ _______ _______ _____ _____    ______ ____
ROOT
ATOM      1  O   UNL     1      -1.938  -1.395   0.099  0.00  0.00    -0.371 OA
ATOM      7  C   UNL     1      -3.042   0.696   0.176  0.00  0.00    +0.164 C 
ATOM      8  C   UNL     1      -1.681   0.019   0.072  0.00  0.00    +0.165 C 
ATOM      9  C   UNL     1      -3.911  -0.274  -0.603  0.00  0.00    +0.108 C 
ATOM     10  C   UNL     1      -3.334  -1.611  -0.168  0.00  0.00    +0.181 C 
ENDROOT
BRANCH   9   5
ATOM      5  N   UNL     1      -5.330  -0.148  -0.313  0.00  0.00    -0.323 NA
ATOM     17  H   UNL     1      -5.854  -0.834  -0.855  0.00  0.00    +0.119 HD
ATOM     18  H   UNL     1      -5.660   0.770  -0.607  0.00  0.00    +0.119 HD
ENDBRANCH   9   5
BRANCH   7   2
ATOM      2  O   UNL     1      -3.031   1.993  -0.387  0.00  0.00    -0.388 OA
ATOM     19  H   UNL     1      -2.748   1.920  -1.314  0.00  0.00    +0.210 HD
ENDBRANCH   7   2
BRANCH   8  11
ATOM     11  C   UNL     1      -0.737   0.392   1.201  0.00  0.00    +0.141 C 
BRANCH  11   6
ATOM      4  O   UNL     1       1.621   1.334  -0.210  0.00  0.00    -0.226 OA
ATOM      6  N   UNL     1       0.528  -0.270   1.063  0.00  0.00    -0.279 N 
ATOM     13  C   UNL     1       1.606   0.253   0.369  0.00  0.00    +0.401 C 
ATOM     20  H   UNL     1       0.641  -1.183   1.494  0.00  0.00    +0.152 HD
BRANCH  13   3
ATOM      3  O   UNL     1       2.661  -0.614   0.421  0.00  0.00    -0.445 OA
BRANCH   3  12
ATOM     12  C   UNL     1       3.848  -0.194  -0.261  0.00  0.00    +0.107 C 
ATOM     14  C   UNL     1       4.326   1.119   0.359  0.00  0.00    +0.055 C 
ATOM     15  C   UNL     1       3.519  -0.009  -1.742  0.00  0.00    +0.055 C 
ATOM     16  C   UNL     1       4.897  -1.289  -0.076  0.00  0.00    +0.055 C 
ENDBRANCH   3  12
ENDBRANCH  13   3
ENDBRANCH  11   6
ENDBRANCH   8  11
TORSDOF 6
