REMARK  Name = 7155689
REMARK  4 active torsions:
REMARK  status: ('A' for Active; 'I' for Inactive)
REMARK    1  A    between atoms: N_4  and  C_15
REMARK    2  A    between atoms: N_6  and  C_18
REMARK    3  A    between atoms: C_15  and  C_20
REMARK    4  A    between atoms: C_25  and  C_27
REMARK                            x       y       z     vdW  Elec       q    Type
REMARK                         _______ _______ _______ _____ _____    ______ ____
ROOT
ATOM      2  O   UNL     1      -1.382   2.377  -1.429  0.00  0.00    -0.266 OA
ATOM      4  N   UNL     1       3.376   1.008  -0.645  0.00  0.00    -0.297 NA
ATOM      5  N   UNL     1       0.488   2.222  -0.037  0.00  0.00    -0.310 N 
ATOM      8  C   UNL     1       2.698   3.419  -0.537  0.00  0.00    +0.024 C 
ATOM      9  C   UNL     1       2.500   2.021   1.464  0.00  0.00    +0.050 C 
ATOM     10  C   UNL     1       2.869   3.419   0.977  0.00  0.00    +0.017 C 
ATOM     11  C   UNL     1       3.619   2.356  -1.172  0.00  0.00    +0.090 C 
ATOM     12  C   UNL     1       3.450   0.983   0.823  0.00  0.00    +0.094 C 
ATOM     13  C   UNL     1       1.217   3.190  -0.868  0.00  0.00    +0.130 C 
ATOM     14  C   UNL     1       1.055   1.697   1.129  0.00  0.00    +0.026 A 
ATOM     16  C   UNL     1       0.333   0.899   1.932  0.00  0.00    +0.024 A 
ATOM     17  C   UNL     1      -0.836   1.927  -0.420  0.00  0.00    +0.273 A 
ATOM     18  C   UNL     1      -1.600   1.016   0.489  0.00  0.00    +0.099 A 
ATOM     19  C   UNL     1      -1.021   0.552   1.602  0.00  0.00    +0.030 A 
ENDROOT
BRANCH  18   6
ATOM      3  O   UNL     1      -2.978  -1.387   1.176  0.00  0.00    -0.270 OA
ATOM      6  N   UNL     1      -2.881   0.697   0.147  0.00  0.00    -0.277 N 
ATOM     25  C   UNL     1      -3.497  -0.492   0.513  0.00  0.00    +0.248 C 
ATOM     32  H   UNL     1      -3.316   1.319  -0.525  0.00  0.00    +0.155 HD
BRANCH  25  27
ATOM      7  N   UNL     1      -7.524  -0.949  -0.762  0.00  0.00    -0.263 NA
ATOM     27  C   UNL     1      -4.905  -0.652   0.067  0.00  0.00    +0.040 A 
ATOM     28  C   UNL     1      -5.748  -1.455   0.799  0.00  0.00    +0.033 A 
ATOM     29  C   UNL     1      -5.324   0.007  -1.063  0.00  0.00    +0.033 A 
ATOM     30  C   UNL     1      -7.051  -1.571   0.342  0.00  0.00    +0.111 A 
ATOM     31  C   UNL     1      -6.646  -0.174  -1.437  0.00  0.00    +0.111 A 
ENDBRANCH  25  27
ENDBRANCH  18   6
BRANCH   4  15
ATOM     15  C   UNL     1       4.301   0.041  -1.232  0.00  0.00    +0.119 C 
BRANCH  15  20
ATOM      1  F   UNL     1       3.168  -5.209   0.425  0.00  0.00    -0.205 F 
ATOM     20  C   UNL     1       3.998  -1.365  -0.788  0.00  0.00    -0.033 A 
ATOM     21  C   UNL     1       4.602  -1.866   0.357  0.00  0.00    +0.008 A 
ATOM     22  C   UNL     1       3.119  -2.141  -1.530  0.00  0.00    +0.008 A 
ATOM     23  C   UNL     1       4.321  -3.169   0.768  0.00  0.00    +0.038 A 
ATOM     24  C   UNL     1       2.838  -3.444  -1.119  0.00  0.00    +0.038 A 
ATOM     26  C   UNL     1       3.439  -3.958   0.030  0.00  0.00    +0.123 A 
ENDBRANCH  15  20
ENDBRANCH   4  15
TORSDOF 4
