REMARK  Name = 40533380
REMARK  5 active torsions:
REMARK  status: ('A' for Active; 'I' for Inactive)
REMARK    1  A    between atoms: N_3  and  C_10
REMARK    2  A    between atoms: N_3  and  C_15
REMARK    3  A    between atoms: N_4  and  C_11
REMARK    4  A    between atoms: C_14  and  C_15
REMARK    5  A    between atoms: C_22  and  C_23
REMARK                            x       y       z     vdW  Elec       q    Type
REMARK                         _______ _______ _______ _____ _____    ______ ____
ROOT
ATOM      1  O   UNL     1      -1.212  -1.456  -1.702  0.00  0.00    -0.370 OA
ATOM      2  O   UNL     1      -0.438  -2.694   1.060  0.00  0.00    -0.370 OA
ATOM      8  C   UNL     1      -1.025  -1.442   0.669  0.00  0.00    +0.168 C 
ATOM      9  C   UNL     1      -0.363  -1.015  -0.626  0.00  0.00    +0.175 C 
ATOM     10  C   UNL     1      -2.477  -1.636   0.297  0.00  0.00    +0.111 C 
ATOM     11  C   UNL     1       0.950  -1.779  -0.654  0.00  0.00    +0.166 C 
ATOM     12  C   UNL     1      -2.384  -2.075  -1.153  0.00  0.00    +0.181 C 
ATOM     13  C   UNL     1       0.602  -3.038   0.133  0.00  0.00    +0.189 C 
ENDROOT
BRANCH  11   4
ATOM      4  N   UNL     1       2.086  -0.946  -0.088  0.00  0.00    -0.243 N 
ATOM      5  N   UNL     1       2.026  -0.468   1.166  0.00  0.00    -0.065 NA
ATOM      6  N   UNL     1       3.146   0.213   1.381  0.00  0.00    -0.128 NA
ATOM     21  C   UNL     1       3.242  -0.585  -0.708  0.00  0.00    +0.140 A 
ATOM     22  C   UNL     1       3.901   0.152   0.243  0.00  0.00    +0.131 A 
BRANCH  22  23
ATOM      7  N   UNL     1       5.767   0.587  -1.123  0.00  0.00    -0.253 NA
ATOM     23  C   UNL     1       5.180   0.765   0.082  0.00  0.00    +0.092 A 
ATOM     24  C   UNL     1       5.746   1.486   1.121  0.00  0.00    +0.030 A 
ATOM     25  C   UNL     1       6.994   2.062   0.910  0.00  0.00    +0.004 A 
ATOM     26  C   UNL     1       6.980   1.161  -1.291  0.00  0.00    +0.111 A 
ATOM     27  C   UNL     1       7.629   1.901  -0.316  0.00  0.00    +0.020 A 
ENDBRANCH  22  23
ENDBRANCH  11   4
BRANCH  10   3
ATOM      3  N   UNL     1      -3.218  -0.405   0.424  0.00  0.00    -0.309 NA
ATOM     28  H   UNL     1      -2.999   0.046   1.312  0.00  0.00    +0.122 HD
BRANCH   3  15
ATOM     15  C   UNL     1      -4.651  -0.649   0.362  0.00  0.00    +0.084 C 
BRANCH  15  14
ATOM     14  C   UNL     1      -5.432   0.657   0.486  0.00  0.00    +0.003 C 
ATOM     16  C   UNL     1      -5.081   1.610  -0.665  0.00  0.00    +0.005 C 
ATOM     17  C   UNL     1      -6.941   0.384   0.528  0.00  0.00    +0.005 C 
ATOM     18  C   UNL     1      -5.889   2.904  -0.592  0.00  0.00    +0.000 C 
ATOM     19  C   UNL     1      -7.747   1.680   0.599  0.00  0.00    +0.000 C 
ATOM     20  C   UNL     1      -7.389   2.628  -0.542  0.00  0.00    +0.000 C 
ENDBRANCH  15  14
ENDBRANCH   3  15
ENDBRANCH  10   3
TORSDOF 5
