REMARK  Name = 86768994
REMARK  10 active torsions:
REMARK  status: ('A' for Active; 'I' for Inactive)
REMARK    1  A    between atoms: O_2  and  C_11
REMARK    2  A    between atoms: O_5  and  C_26
REMARK    3  A    between atoms: O_5  and  C_27
REMARK    4  A    between atoms: N_6  and  C_10
REMARK    5  A    between atoms: N_6  and  C_13
REMARK    6  A    between atoms: C_9  and  C_13
REMARK    7  A    between atoms: C_12  and  C_20
REMARK    8  A    between atoms: C_20  and  C_21
REMARK    9  A    between atoms: C_22  and  C_24
REMARK   10  A    between atoms: C_25  and  C_26
REMARK                            x       y       z     vdW  Elec       q    Type
REMARK                         _______ _______ _______ _____ _____    ______ ____
ROOT
ATOM      1  O   UNL     1       2.907  -0.288   0.738  0.00  0.00    -0.369 OA
ATOM      9  C   UNL     1       3.229   1.094   0.945  0.00  0.00    +0.161 C 
ATOM     11  C   UNL     1       4.568   1.459   0.291  0.00  0.00    +0.145 C 
ATOM     12  C   UNL     1       2.884  -0.709  -0.628  0.00  0.00    +0.125 C 
ATOM     14  C   UNL     1       4.653   0.993  -1.160  0.00  0.00    +0.036 C 
ATOM     15  C   UNL     1       4.241  -0.471  -1.288  0.00  0.00    +0.034 C 
ENDROOT
BRANCH  11   2
ATOM      2  O   UNL     1       5.624   0.821   1.016  0.00  0.00    -0.389 OA
ATOM     29  H   UNL     1       6.465   1.102   0.617  0.00  0.00    +0.210 HD
ENDBRANCH  11   2
BRANCH   9  13
ATOM     13  C   UNL     1       2.082   1.999   0.501  0.00  0.00    +0.115 C 
BRANCH  13   6
ATOM      6  N   UNL     1       0.838   1.634   1.162  0.00  0.00    -0.311 NA
ATOM     28  H   UNL     1       0.856   1.980   2.121  0.00  0.00    +0.122 HD
BRANCH   6  10
ATOM      3  O   UNL     1      -5.189   1.366  -0.025  0.00  0.00    -0.276 OA
ATOM      7  N   UNL     1      -2.997   1.881  -0.597  0.00  0.00    -0.302 N 
ATOM     10  C   UNL     1      -0.310   2.178   0.441  0.00  0.00    +0.057 C 
ATOM     16  C   UNL     1      -0.602   1.328  -0.803  0.00  0.00    +0.037 C 
ATOM     17  C   UNL     1      -1.537   2.220   1.361  0.00  0.00    +0.037 C 
ATOM     18  C   UNL     1      -1.858   1.821  -1.521  0.00  0.00    +0.109 C 
ATOM     19  C   UNL     1      -2.773   2.695   0.600  0.00  0.00    +0.109 C 
ATOM     22  C   UNL     1      -4.234   1.271  -0.800  0.00  0.00    +0.212 C 
ATOM     24  C   UNL     1      -4.384   0.447  -2.055  0.00  0.00    +0.109 C 
ENDBRANCH   6  10
ENDBRANCH  13   6
ENDBRANCH   9  13
BRANCH  12  20
ATOM     20  C   UNL     1       2.525  -2.189  -0.645  0.00  0.00    +0.090 C 
BRANCH  20  21
ATOM      4  O   UNL     1      -1.035  -2.663  -0.954  0.00  0.00    -0.357 OA
ATOM      8  N   UNL     1       0.229  -2.450  -1.491  0.00  0.00    -0.083 NA
ATOM     21  C   UNL     1       1.050  -2.408  -0.438  0.00  0.00    +0.086 A 
ATOM     23  C   UNL     1       0.367  -2.587   0.778  0.00  0.00    +0.073 A 
ATOM     25  C   UNL     1      -0.939  -2.743   0.398  0.00  0.00    +0.163 A 
BRANCH  25  26
ATOM     26  C   UNL     1      -2.191  -2.968   1.131  0.00  0.00    +0.236 C 
BRANCH  26   5
ATOM      5  O   UNL     1      -2.966  -1.767   1.170  0.00  0.00    -0.375 OA
ATOM     27  C   UNL     1      -4.181  -1.964   1.874  0.00  0.00    +0.194 C 
ENDBRANCH  26   5
ENDBRANCH  25  26
ENDBRANCH  20  21
ENDBRANCH  12  20
TORSDOF 8
