REMARK  Name = 26744962
REMARK  6 active torsions:
REMARK  status: ('A' for Active; 'I' for Inactive)
REMARK    1  A    between atoms: N_3  and  C_13
REMARK    2  A    between atoms: C_8  and  C_14
REMARK    3  A    between atoms: C_13  and  C_15
REMARK    4  A    between atoms: C_17  and  C_18
REMARK    5  A    between atoms: C_18  and  C_21
REMARK    6  A    between atoms: C_18  and  C_22
REMARK                            x       y       z     vdW  Elec       q    Type
REMARK                         _______ _______ _______ _____ _____    ______ ____
ROOT
ATOM      3  N   UNL     1      -0.385  -0.805   0.442  0.00  0.00    -0.281 NA
ATOM      4  N   UNL     1      -1.323  -4.334  -0.416  0.00  0.00    -0.347 N 
ATOM      5  N   UNL     1       0.825  -4.548  -0.999  0.00  0.00    -0.240 NA
ATOM      8  C   UNL     1       1.051  -1.149   0.728  0.00  0.00    +0.152 C 
ATOM      9  C   UNL     1       1.605  -2.258  -0.235  0.00  0.00    +0.086 C 
ATOM     10  C   UNL     1      -1.289  -1.983   0.593  0.00  0.00    +0.140 C 
ATOM     11  C   UNL     1      -0.709  -3.169  -0.070  0.00  0.00    +0.053 A 
ATOM     12  C   UNL     1       0.604  -3.327  -0.429  0.00  0.00    +0.065 A 
ATOM     16  C   UNL     1      -0.356  -5.134  -0.974  0.00  0.00    +0.197 A 
ATOM     26  H   UNL     1      -2.297  -4.571  -0.287  0.00  0.00    +0.167 HD
ENDROOT
BRANCH   8  14
ATOM      2  O   UNL     1       2.665   0.355   1.801  0.00  0.00    -0.336 OA
ATOM      6  N   UNL     1       2.268   0.832  -0.351  0.00  0.00    -0.194 NA
ATOM      7  N   UNL     1       3.458   1.469   1.496  0.00  0.00    -0.061 NA
ATOM     14  C   UNL     1       1.998   0.045   0.659  0.00  0.00    +0.245 A 
ATOM     17  C   UNL     1       3.169   1.690   0.210  0.00  0.00    +0.174 A 
BRANCH  17  18
ATOM     18  C   UNL     1       3.782   2.787  -0.547  0.00  0.00    +0.054 C 
ATOM     21  C   UNL     1       2.754   3.829  -1.056  0.00  0.00    +0.015 C 
ATOM     22  C   UNL     1       4.638   2.302  -1.744  0.00  0.00    +0.015 C 
ENDBRANCH  17  18
ENDBRANCH   8  14
BRANCH   3  13
ATOM     13  C   UNL     1      -0.886   0.269   1.310  0.00  0.00    +0.120 C 
BRANCH  13  15
ATOM      1  F   UNL     1      -5.208   3.019  -1.035  0.00  0.00    -0.205 F 
ATOM     15  C   UNL     1      -2.041   1.004   0.684  0.00  0.00    -0.033 A 
ATOM     19  C   UNL     1      -1.804   2.119  -0.120  0.00  0.00    +0.008 A 
ATOM     20  C   UNL     1      -3.348   0.570   0.906  0.00  0.00    +0.008 A 
ATOM     23  C   UNL     1      -2.874   2.800  -0.701  0.00  0.00    +0.038 A 
ATOM     24  C   UNL     1      -4.417   1.251   0.326  0.00  0.00    +0.038 A 
ATOM     25  C   UNL     1      -4.180   2.366  -0.478  0.00  0.00    +0.123 A 
ENDBRANCH  13  15
ENDBRANCH   3  13
TORSDOF 4
