REMARK  Name = 71693204
REMARK  15 active torsions:
REMARK  status: ('A' for Active; 'I' for Inactive)
REMARK    1  A    between atoms: O_2  and  C_32
REMARK    2  A    between atoms: O_2  and  C_33
REMARK    3  A    between atoms: O_3  and  C_31
REMARK    4  A    between atoms: N_6  and  C_16
REMARK    5  A    between atoms: C_9  and  C_13
REMARK    6  A    between atoms: C_10  and  C_16
REMARK    7  A    between atoms: C_12  and  C_17
REMARK    8  A    between atoms: C_13  and  C_18
REMARK    9  A    between atoms: C_13  and  C_19
REMARK   10  A    between atoms: C_14  and  C_20
REMARK   11  A    between atoms: C_17  and  C_21
REMARK   12  A    between atoms: C_22  and  C_25
REMARK   13  A    between atoms: C_25  and  C_28
REMARK   14  A    between atoms: C_28  and  C_31
REMARK   15  A    between atoms: C_29  and  C_32
REMARK                            x       y       z     vdW  Elec       q    Type
REMARK                         _______ _______ _______ _____ _____    ______ ____
ROOT
ATOM      9  C   UNL     1       1.804   1.922  -0.885  0.00  0.00    +0.000 C 
ATOM     10  C   UNL     1       2.973   2.713  -0.248  0.00  0.00    +0.032 C 
ATOM     11  C   UNL     1       0.467   2.342  -0.257  0.00  0.00    +0.012 C 
ATOM     12  C   UNL     1       0.441   2.110   1.266  0.00  0.00    +0.022 C 
ATOM     14  C   UNL     1       1.696   2.630   1.936  0.00  0.00    -0.073 C 
ATOM     15  C   UNL     1       2.814   2.907   1.242  0.00  0.00    -0.022 C 
ATOM     20  C   UNL     1       1.623   2.868   3.419  0.00  0.00    +0.039 C 
ENDROOT
BRANCH   9  13
ATOM     13  C   UNL     1       1.747   2.115  -2.404  0.00  0.00    -0.013 C 
ATOM     18  C   UNL     1       1.045   3.425  -2.747  0.00  0.00    +0.007 C 
ATOM     19  C   UNL     1       1.042   0.935  -3.064  0.00  0.00    +0.007 C 
ENDBRANCH   9  13
BRANCH  10  16
ATOM     16  C   UNL     1       4.319   2.038  -0.535  0.00  0.00    +0.112 C 
BRANCH  16   6
ATOM      1  O   UNL     1       4.692  -0.540  -1.794  0.00  0.00    -0.276 OA
ATOM      6  N   UNL     1       4.395   0.764   0.109  0.00  0.00    -0.315 N 
ATOM     22  C   UNL     1       4.577  -0.439  -0.575  0.00  0.00    +0.214 C 
ATOM     34  H   UNL     1       4.369   0.740   1.125  0.00  0.00    +0.149 HD
BRANCH  22  25
ATOM     25  C   UNL     1       4.618  -1.630   0.365  0.00  0.00    +0.107 C 
BRANCH  25  28
ATOM     28  C   UNL     1       4.816  -2.949  -0.374  0.00  0.00    +0.129 C 
BRANCH  28  31
ATOM      4  O   UNL     1       4.749  -4.063   1.789  0.00  0.00    -0.251 OA
ATOM     31  C   UNL     1       4.847  -4.128   0.571  0.00  0.00    +0.305 C 
BRANCH  31   3
ATOM      3  O   UNL     1       5.000  -5.299  -0.100  0.00  0.00    -0.481 OA
ATOM     36  H   UNL     1       5.020  -6.069   0.508  0.00  0.00    +0.295 HD
ENDBRANCH  31   3
ENDBRANCH  28  31
ENDBRANCH  25  28
ENDBRANCH  22  25
ENDBRANCH  16   6
ENDBRANCH  10  16
BRANCH  12  17
ATOM     17  C   UNL     1       0.215   0.631   1.596  0.00  0.00    +0.082 C 
BRANCH  17  21
ATOM      7  N   UNL     1      -2.275   0.414   1.484  0.00  0.00    -0.342 N 
ATOM      8  N   UNL     1      -1.137  -0.647  -0.102  0.00  0.00    -0.232 NA
ATOM     21  C   UNL     1      -1.047   0.114   0.965  0.00  0.00    +0.109 A 
ATOM     23  C   UNL     1      -3.221  -0.194   0.700  0.00  0.00    +0.067 A 
ATOM     24  C   UNL     1      -2.486  -0.850  -0.283  0.00  0.00    +0.089 A 
ATOM     26  C   UNL     1      -4.615  -0.225   0.764  0.00  0.00    +0.042 A 
ATOM     27  C   UNL     1      -3.164  -1.587  -1.269  0.00  0.00    +0.030 A 
ATOM     29  C   UNL     1      -5.274  -0.963  -0.226  0.00  0.00    +0.061 A 
ATOM     30  C   UNL     1      -4.563  -1.632  -1.224  0.00  0.00    +0.017 A 
ATOM     35  H   UNL     1      -2.457   0.984   2.300  0.00  0.00    +0.167 HD
BRANCH  29  32
ATOM      5  O   UNL     1      -7.385  -1.994  -0.631  0.00  0.00    -0.245 OA
ATOM     32  C   UNL     1      -6.727  -1.033  -0.211  0.00  0.00    +0.339 C 
BRANCH  32   2
ATOM      2  O   UNL     1      -7.279   0.097   0.326  0.00  0.00    -0.464 OA
ATOM     33  C   UNL     1      -8.708   0.148   0.395  0.00  0.00    +0.280 C 
ENDBRANCH  32   2
ENDBRANCH  29  32
ENDBRANCH  17  21
ENDBRANCH  12  17
TORSDOF 11
