REMARK  Name = 45361617
REMARK  10 active torsions:
REMARK  status: ('A' for Active; 'I' for Inactive)
REMARK    1  A    between atoms: O_1  and  C_11
REMARK    2  A    between atoms: N_4  and  C_15
REMARK    3  A    between atoms: N_5  and  C_25
REMARK    4  A    between atoms: C_8  and  C_18
REMARK    5  A    between atoms: C_10  and  C_20
REMARK    6  A    between atoms: C_14  and  C_19
REMARK    7  A    between atoms: C_19  and  C_21
REMARK    8  A    between atoms: C_19  and  C_22
REMARK    9  A    between atoms: C_23  and  C_24
REMARK   10  A    between atoms: C_25  and  C_27
REMARK                            x       y       z     vdW  Elec       q    Type
REMARK                         _______ _______ _______ _____ _____    ______ ____
ROOT
ATOM      8  C   UNL     1      -0.021   0.407   1.201  0.00  0.00    -0.027 C 
ATOM      9  C   UNL     1      -0.361  -0.460  -0.056  0.00  0.00    +0.028 C 
ATOM     10  C   UNL     1      -1.890  -0.819  -0.091  0.00  0.00    +0.012 C 
ATOM     11  C   UNL     1       0.612  -1.667  -0.190  0.00  0.00    +0.122 C 
ATOM     12  C   UNL     1       1.464   0.837   1.145  0.00  0.00    +0.007 C 
ATOM     13  C   UNL     1      -0.883   1.690   1.178  0.00  0.00    +0.009 C 
ATOM     14  C   UNL     1       2.098  -1.241  -0.141  0.00  0.00    +0.029 C 
ATOM     15  C   UNL     1      -2.749   0.476  -0.038  0.00  0.00    +0.076 C 
ATOM     16  C   UNL     1       2.422  -0.344   1.054  0.00  0.00    +0.007 C 
ATOM     17  C   UNL     1      -2.377   1.405   1.118  0.00  0.00    +0.023 C 
ATOM     18  C   UNL     1      -0.270  -0.351   2.530  0.00  0.00    +0.011 C 
ATOM     20  C   UNL     1      -2.301  -1.649  -1.319  0.00  0.00    +0.010 C 
ENDROOT
BRANCH  15   4
ATOM      3  O   UNL     1      -4.899   2.035  -1.128  0.00  0.00    -0.269 OA
ATOM      4  N   UNL     1      -4.163   0.178   0.049  0.00  0.00    -0.307 N 
ATOM     23  C   UNL     1      -5.128   0.997  -0.512  0.00  0.00    +0.263 C 
ATOM     35  H   UNL     1      -4.453  -0.631   0.592  0.00  0.00    +0.149 HD
BRANCH  23  24
ATOM      6  N   UNL     1      -6.705  -0.575   0.392  0.00  0.00    -0.250 NA
ATOM     24  C   UNL     1      -6.536   0.567  -0.312  0.00  0.00    +0.125 A 
ATOM     26  C   UNL     1      -7.576   1.317  -0.835  0.00  0.00    +0.033 A 
ATOM     28  C   UNL     1      -8.874   0.868  -0.621  0.00  0.00    +0.004 A 
ATOM     29  C   UNL     1      -7.981  -0.980   0.580  0.00  0.00    +0.111 A 
ATOM     32  C   UNL     1      -9.089  -0.302   0.099  0.00  0.00    +0.020 A 
ENDBRANCH  23  24
ENDBRANCH  15   4
BRANCH  11   1
ATOM      1  O   UNL     1       0.411  -2.304  -1.452  0.00  0.00    -0.391 OA
ATOM     36  H   UNL     1       0.584  -1.651  -2.151  0.00  0.00    +0.210 HD
ENDBRANCH  11   1
BRANCH  14  19
ATOM     19  C   UNL     1       3.038  -2.453  -0.141  0.00  0.00    +0.077 C 
ATOM     21  C   UNL     1       2.750  -3.341   1.064  0.00  0.00    +0.017 C 
BRANCH  19  22
ATOM      2  O   UNL     1       5.294  -2.290   0.724  0.00  0.00    -0.276 OA
ATOM      5  N   UNL     1       4.782  -1.188  -1.252  0.00  0.00    -0.311 N 
ATOM     22  C   UNL     1       4.489  -1.984  -0.154  0.00  0.00    +0.216 C 
ATOM     37  H   UNL     1       4.075  -1.025  -1.962  0.00  0.00    +0.149 HD
BRANCH   5  25
ATOM     25  C   UNL     1       6.092  -0.624  -1.481  0.00  0.00    +0.141 C 
BRANCH  25  27
ATOM      7  N   UNL     1       7.143   2.080   0.944  0.00  0.00    -0.263 NA
ATOM     27  C   UNL     1       6.240   0.728  -0.845  0.00  0.00    -0.012 A 
ATOM     30  C   UNL     1       5.647   1.853  -1.407  0.00  0.00    +0.008 A 
ATOM     31  C   UNL     1       6.971   0.893   0.320  0.00  0.00    +0.115 A 
ATOM     33  C   UNL     1       5.801   3.092  -0.794  0.00  0.00    +0.020 A 
ATOM     34  C   UNL     1       6.551   3.151   0.369  0.00  0.00    +0.111 A 
ENDBRANCH  25  27
ENDBRANCH   5  25
ENDBRANCH  19  22
ENDBRANCH  14  19
TORSDOF 7
