REMARK  Name = 11941543
REMARK  7 active torsions:
REMARK  status: ('A' for Active; 'I' for Inactive)
REMARK    1  A    between atoms: O_6  and  C_24
REMARK    2  A    between atoms: O_6  and  C_29
REMARK    3  A    between atoms: O_7  and  C_33
REMARK    4  A    between atoms: N_10  and  C_12
REMARK    5  A    between atoms: C_20  and  C_24
REMARK    6  A    between atoms: C_23  and  C_26
REMARK    7  A    between atoms: C_29  and  C_33
REMARK                            x       y       z     vdW  Elec       q    Type
REMARK                         _______ _______ _______ _____ _____    ______ ____
ROOT
ATOM      3  O   UNL     1      -1.572   3.867  -1.641  0.00  0.00    -0.273 OA
ATOM      4  O   UNL     1       1.342   1.990   2.327  0.00  0.00    -0.270 OA
ATOM      9  N   UNL     1      -0.562   2.296   1.073  0.00  0.00    -0.284 N 
ATOM     11  N   UNL     1       0.380   2.693  -1.685  0.00  0.00    -0.283 N 
ATOM     12  C   UNL     1      -2.816   2.317   0.356  0.00  0.00    +0.104 C 
ATOM     13  C   UNL     1      -1.378   2.027  -0.096  0.00  0.00    +0.183 C 
ATOM     14  C   UNL     1      -2.636   3.341   1.479  0.00  0.00    +0.043 C 
ATOM     15  C   UNL     1      -1.336   2.911   2.142  0.00  0.00    +0.111 C 
ATOM     16  C   UNL     1      -0.871   2.968  -1.173  0.00  0.00    +0.240 C 
ATOM     17  C   UNL     1       0.740   1.883   1.258  0.00  0.00    +0.249 C 
ATOM     18  C   UNL     1       1.461   1.301   0.097  0.00  0.00    +0.059 A 
ATOM     19  C   UNL     1       1.333   1.759  -1.225  0.00  0.00    +0.046 A 
ATOM     21  C   UNL     1       2.447   0.346   0.405  0.00  0.00    +0.023 A 
ATOM     22  C   UNL     1       2.242   1.297  -2.194  0.00  0.00    +0.024 A 
ATOM     23  C   UNL     1       3.309  -0.136  -0.579  0.00  0.00    -0.014 A 
ATOM     25  C   UNL     1       3.215   0.350  -1.877  0.00  0.00    +0.010 A 
ATOM     35  H   UNL     1       0.609   3.170  -2.554  0.00  0.00    +0.155 HD
ENDROOT
BRANCH  23  26
ATOM      1  F   UNL     1       5.877   0.586   0.305  0.00  0.00    -0.205 F 
ATOM      2  F   UNL     1       7.174  -3.944   0.705  0.00  0.00    -0.205 F 
ATOM     26  C   UNL     1       4.314  -1.121  -0.244  0.00  0.00    +0.018 A 
ATOM     27  C   UNL     1       5.576  -0.716   0.191  0.00  0.00    +0.134 A 
ATOM     28  C   UNL     1       4.019  -2.479  -0.359  0.00  0.00    +0.014 A 
ATOM     30  C   UNL     1       6.542  -1.669   0.512  0.00  0.00    +0.077 A 
ATOM     31  C   UNL     1       4.985  -3.433  -0.038  0.00  0.00    +0.039 A 
ATOM     32  C   UNL     1       6.247  -3.028   0.398  0.00  0.00    +0.126 A 
ENDBRANCH  23  26
BRANCH  12  10
ATOM      5  O   UNL     1      -4.480   0.486  -1.150  0.00  0.00    -0.273 OA
ATOM     10  N   UNL     1      -3.457   1.116   0.841  0.00  0.00    -0.308 N 
ATOM     20  C   UNL     1      -4.239   0.300   0.040  0.00  0.00    +0.239 C 
ATOM     34  H   UNL     1      -3.283   0.836   1.803  0.00  0.00    +0.149 HD
BRANCH  20  24
ATOM     24  C   UNL     1      -4.782  -0.885   0.810  0.00  0.00    +0.256 C 
BRANCH  24   6
ATOM      6  O   UNL     1      -5.563  -1.709  -0.029  0.00  0.00    -0.359 OA
BRANCH   6  29
ATOM     29  C   UNL     1      -6.088  -2.834   0.671  0.00  0.00    +0.280 C 
BRANCH  29  33
ATOM      8  O   UNL     1      -7.127  -3.434  -1.442  0.00  0.00    -0.248 OA
ATOM     33  C   UNL     1      -6.910  -3.677  -0.264  0.00  0.00    +0.331 C 
BRANCH  33   7
ATOM      7  O   UNL     1      -7.388  -4.768   0.386  0.00  0.00    -0.479 OA
ATOM     36  H   UNL     1      -7.929  -5.337  -0.202  0.00  0.00    +0.295 HD
ENDBRANCH  33   7
ENDBRANCH  29  33
ENDBRANCH   6  29
ENDBRANCH  24   6
ENDBRANCH  20  24
ENDBRANCH  12  10
TORSDOF 7
