REMARK  Name = 26742476
REMARK  12 active torsions:
REMARK  status: ('A' for Active; 'I' for Inactive)
REMARK    1  A    between atoms: N_3  and  C_14
REMARK    2  A    between atoms: N_6  and  C_30
REMARK    3  A    between atoms: N_6  and  C_31
REMARK    4  A    between atoms: N_6  and  C_32
REMARK    5  A    between atoms: C_8  and  C_15
REMARK    6  A    between atoms: C_9  and  C_14
REMARK    7  A    between atoms: C_17  and  C_19
REMARK    8  A    between atoms: C_18  and  C_21
REMARK    9  A    between atoms: C_19  and  C_22
REMARK   10  A    between atoms: C_19  and  C_23
REMARK   11  A    between atoms: C_19  and  C_24
REMARK   12  A    between atoms: C_20  and  C_25
REMARK                            x       y       z     vdW  Elec       q    Type
REMARK                         _______ _______ _______ _____ _____    ______ ____
ROOT
ATOM      2  N   UNL     1      -2.357  -1.610   1.972  0.00  0.00    -0.297 NA
ATOM      7  C   UNL     1      -1.942  -2.525  -0.431  0.00  0.00    +0.002 C 
ATOM      8  C   UNL     1      -0.597  -2.138   0.244  0.00  0.00    +0.055 C 
ATOM      9  C   UNL     1      -3.250  -0.920   1.004  0.00  0.00    +0.074 C 
ATOM     10  C   UNL     1      -2.877  -1.297  -0.446  0.00  0.00    +0.024 C 
ATOM     11  C   UNL     1      -2.603  -3.588   0.472  0.00  0.00    +0.019 C 
ATOM     12  C   UNL     1      -0.939  -1.419   1.580  0.00  0.00    +0.094 C 
ATOM     13  C   UNL     1      -2.662  -3.060   1.916  0.00  0.00    +0.085 C 
ENDROOT
BRANCH   8  15
ATOM      4  N   UNL     1       0.078  -1.065  -1.849  0.00  0.00    -0.237 NA
ATOM      5  N   UNL     1       2.220   0.008  -2.109  0.00  0.00    -0.232 NA
ATOM     15  C   UNL     1       0.425  -1.368  -0.581  0.00  0.00    +0.050 A 
ATOM     16  C   UNL     1       1.635  -1.022  -0.014  0.00  0.00    +0.052 A 
ATOM     18  C   UNL     1       2.502  -0.328  -0.833  0.00  0.00    +0.075 A 
ATOM     20  C   UNL     1       1.008  -0.386  -2.546  0.00  0.00    +0.127 A 
ATOM     25  C   UNL     1       0.661  -0.034  -3.953  0.00  0.00    +0.088 C 
BRANCH  18  21
ATOM     21  C   UNL     1       3.800   0.091  -0.361  0.00  0.00    +0.001 A 
ATOM     26  C   UNL     1       3.900   0.948   0.736  0.00  0.00    +0.012 A 
ATOM     27  C   UNL     1       4.954  -0.361  -1.000  0.00  0.00    +0.012 A 
ATOM     28  C   UNL     1       5.154   1.353   1.192  0.00  0.00    +0.024 A 
ATOM     29  C   UNL     1       6.208   0.044  -0.543  0.00  0.00    +0.024 A 
ATOM     30  C   UNL     1       6.308   0.900   0.553  0.00  0.00    +0.029 A 
BRANCH  30   6
ATOM      6  N   UNL     1       7.576   1.310   1.014  0.00  0.00    -0.336 N 
ATOM     31  C   UNL     1       8.782   0.840   0.361  0.00  0.00    +0.129 C 
ATOM     32  C   UNL     1       7.691   2.200   2.152  0.00  0.00    +0.129 C 
ENDBRANCH  30   6
ENDBRANCH  18  21
ENDBRANCH   8  15
BRANCH   9  14
ATOM     14  C   UNL     1      -3.274   0.596   1.211  0.00  0.00    +0.123 C 
BRANCH  14   3
ATOM      1  O   UNL     1      -6.021   1.082   1.794  0.00  0.00    -0.275 OA
ATOM      3  N   UNL     1      -4.228   1.215   0.343  0.00  0.00    -0.313 N 
ATOM     17  C   UNL     1      -5.560   1.418   0.703  0.00  0.00    +0.218 C 
ATOM     33  H   UNL     1      -3.906   1.515  -0.572  0.00  0.00    +0.149 HD
BRANCH  17  19
ATOM     19  C   UNL     1      -6.421   2.106  -0.378  0.00  0.00    +0.039 C 
ATOM     22  C   UNL     1      -5.867   3.506  -0.681  0.00  0.00    +0.020 C 
ATOM     23  C   UNL     1      -7.865   2.251   0.137  0.00  0.00    +0.020 C 
ATOM     24  C   UNL     1      -6.441   1.255  -1.657  0.00  0.00    +0.020 C 
ENDBRANCH  17  19
ENDBRANCH  14   3
ENDBRANCH   9  14
TORSDOF 6
