REMARK  Name = 11883036
REMARK  10 active torsions:
REMARK  status: ('A' for Active; 'I' for Inactive)
REMARK    1  A    between atoms: O_4  and  C_16
REMARK    2  A    between atoms: O_5  and  C_21
REMARK    3  A    between atoms: N_9  and  C_27
REMARK    4  A    between atoms: C_11  and  C_19
REMARK    5  A    between atoms: C_13  and  C_21
REMARK    6  A    between atoms: C_13  and  C_22
REMARK    7  A    between atoms: C_14  and  C_24
REMARK    8  A    between atoms: C_24  and  C_25
REMARK    9  A    between atoms: C_27  and  C_29
REMARK   10  A    between atoms: C_28  and  C_30
REMARK                            x       y       z     vdW  Elec       q    Type
REMARK                         _______ _______ _______ _____ _____    ______ ____
ROOT
ATOM      1  S   UNL     1       0.134   2.678  -0.876  0.00  0.00    -0.057 S 
ATOM      7  O   UNL     1       3.327  -0.117   1.038  0.00  0.00    -0.270 OA
ATOM      8  N   UNL     1       0.488   0.522   0.510  0.00  0.00    -0.229 NA
ATOM     10  N   UNL     1       2.468   1.719  -0.164  0.00  0.00    -0.261 N 
ATOM     11  C   UNL     1      -3.338   0.329   0.946  0.00  0.00    -0.019 C 
ATOM     12  C   UNL     1      -3.612   1.019  -0.463  0.00  0.00    +0.011 C 
ATOM     13  C   UNL     1      -5.114   1.340  -0.823  0.00  0.00    +0.021 C 
ATOM     14  C   UNL     1      -1.866  -0.291   0.913  0.00  0.00    +0.054 C 
ATOM     15  C   UNL     1      -4.350  -0.827   1.159  0.00  0.00    +0.010 C 
ATOM     16  C   UNL     1      -5.994   0.097  -0.507  0.00  0.00    +0.123 C 
ATOM     17  C   UNL     1      -2.640   2.209  -0.712  0.00  0.00    +0.049 C 
ATOM     18  C   UNL     1      -5.799  -0.432   0.910  0.00  0.00    +0.032 C 
ATOM     19  C   UNL     1      -3.455   1.317   2.132  0.00  0.00    +0.012 C 
ATOM     20  C   UNL     1      -0.875   0.697   0.353  0.00  0.00    +0.058 A 
ATOM     22  C   UNL     1      -5.224   1.607  -2.351  0.00  0.00    +0.016 C 
ATOM     23  C   UNL     1      -1.243   1.801  -0.388  0.00  0.00    +0.015 A 
ATOM     26  C   UNL     1       1.117   1.510  -0.089  0.00  0.00    +0.165 A 
ATOM     28  C   UNL     1       3.476   0.913   0.390  0.00  0.00    +0.255 C 
ATOM     44  H   UNL     1       2.734   2.558  -0.672  0.00  0.00    +0.157 HD
ENDROOT
BRANCH  28  30
ATOM      2  F   UNL     1       4.206   2.323  -1.942  0.00  0.00    -0.205 F 
ATOM      3  F   UNL     1       5.600   0.426   2.183  0.00  0.00    -0.205 F 
ATOM     30  C   UNL     1       4.868   1.363   0.127  0.00  0.00    +0.107 A 
ATOM     33  C   UNL     1       5.167   2.057  -1.046  0.00  0.00    +0.138 A 
ATOM     34  C   UNL     1       5.876   1.092   1.052  0.00  0.00    +0.138 A 
ATOM     38  C   UNL     1       6.473   2.479  -1.294  0.00  0.00    +0.039 A 
ATOM     39  C   UNL     1       7.182   1.514   0.805  0.00  0.00    +0.039 A 
ATOM     40  C   UNL     1       7.481   2.207  -0.368  0.00  0.00    +0.006 A 
ENDBRANCH  28  30
BRANCH  16   4
ATOM      4  O   UNL     1      -7.376   0.396  -0.699  0.00  0.00    -0.391 OA
ATOM     41  H   UNL     1      -7.880  -0.419  -0.536  0.00  0.00    +0.210 HD
ENDBRANCH  16   4
BRANCH  13  21
ATOM     21  C   UNL     1      -5.681   2.603  -0.139  0.00  0.00    +0.165 C 
BRANCH  21   5
ATOM      5  O   UNL     1      -7.016   2.762  -0.564  0.00  0.00    -0.394 OA
ATOM     42  H   UNL     1      -7.363   3.564  -0.137  0.00  0.00    +0.209 HD
ENDBRANCH  21   5
ENDBRANCH  13  21
BRANCH  14  24
ATOM     24  C   UNL     1      -1.387  -0.870   2.251  0.00  0.00    +0.106 C 
BRANCH  24  25
ATOM      6  O   UNL     1       0.789  -1.897   2.503  0.00  0.00    -0.276 OA
ATOM      9  N   UNL     1      -0.876  -3.013   1.326  0.00  0.00    -0.311 N 
ATOM     25  C   UNL     1      -0.355  -1.958   2.061  0.00  0.00    +0.214 C 
ATOM     43  H   UNL     1      -1.850  -2.995   1.039  0.00  0.00    +0.149 HD
BRANCH   9  27
ATOM     27  C   UNL     1      -0.112  -4.192   0.988  0.00  0.00    +0.139 C 
BRANCH  27  29
ATOM     29  C   UNL     1       0.608  -4.039  -0.321  0.00  0.00    -0.030 A 
ATOM     31  C   UNL     1      -0.015  -4.422  -1.509  0.00  0.00    +0.005 A 
ATOM     32  C   UNL     1       1.900  -3.514  -0.349  0.00  0.00    +0.005 A 
ATOM     35  C   UNL     1       0.653  -4.280  -2.725  0.00  0.00    +0.000 A 
ATOM     36  C   UNL     1       2.569  -3.372  -1.565  0.00  0.00    +0.000 A 
ATOM     37  C   UNL     1       1.946  -3.755  -2.753  0.00  0.00    +0.000 A 
ENDBRANCH  27  29
ENDBRANCH   9  27
ENDBRANCH  24  25
ENDBRANCH  14  24
TORSDOF 8
