REMARK  Name = 40777919
REMARK  9 active torsions:
REMARK  status: ('A' for Active; 'I' for Inactive)
REMARK    1  A    between atoms: O_2  and  C_12
REMARK    2  A    between atoms: O_3  and  C_13
REMARK    3  A    between atoms: N_6  and  C_8
REMARK    4  A    between atoms: N_7  and  C_17
REMARK    5  A    between atoms: C_11  and  C_15
REMARK    6  A    between atoms: C_14  and  C_17
REMARK    7  A    between atoms: C_15  and  C_16
REMARK    8  A    between atoms: C_18  and  C_19
REMARK    9  A    between atoms: C_24  and  C_25
REMARK                            x       y       z     vdW  Elec       q    Type
REMARK                         _______ _______ _______ _____ _____    ______ ____
ROOT
ATOM      1  O   UNL     1      -2.414  -0.260  -0.902  0.00  0.00    -0.366 OA
ATOM     11  C   UNL     1      -2.462  -1.176   0.216  0.00  0.00    +0.158 C 
ATOM     12  C   UNL     1      -3.400  -0.552   1.243  0.00  0.00    +0.175 C 
ATOM     13  C   UNL     1      -3.236   0.927   0.962  0.00  0.00    +0.176 C 
ATOM     14  C   UNL     1      -3.128   0.939  -0.553  0.00  0.00    +0.167 C 
ENDROOT
BRANCH  12   2
ATOM      2  O   UNL     1      -4.730  -0.970   0.939  0.00  0.00    -0.387 OA
ATOM     27  H   UNL     1      -4.779  -1.927   1.103  0.00  0.00    +0.210 HD
ENDBRANCH  12   2
BRANCH  13   3
ATOM      3  O   UNL     1      -4.319   1.707   1.422  0.00  0.00    -0.387 OA
ATOM     28  H   UNL     1      -4.406   1.552   2.378  0.00  0.00    +0.210 HD
ENDBRANCH  13   3
BRANCH  11  15
ATOM     15  C   UNL     1      -1.041  -1.351   0.736  0.00  0.00    +0.130 C 
BRANCH  15  16
ATOM      4  O   UNL     1      -0.642  -2.808  -1.156  0.00  0.00    -0.276 OA
ATOM      6  N   UNL     1       1.066  -2.451   0.375  0.00  0.00    -0.312 N 
ATOM     16  C   UNL     1      -0.214  -2.280  -0.133  0.00  0.00    +0.216 C 
ATOM     26  H   UNL     1       1.341  -1.965   1.225  0.00  0.00    +0.149 HD
BRANCH   6   8
ATOM      8  C   UNL     1       2.044  -3.284  -0.264  0.00  0.00    +0.073 C 
ATOM      9  C   UNL     1       3.179  -3.883   0.513  0.00  0.00    +0.024 C 
ATOM     10  C   UNL     1       2.086  -4.763  -0.017  0.00  0.00    +0.024 C 
ENDBRANCH   6   8
ENDBRANCH  15  16
ENDBRANCH  11  15
BRANCH  14  17
ATOM     17  C   UNL     1      -2.388   2.150  -1.095  0.00  0.00    +0.138 C 
BRANCH  17   7
ATOM      5  O   UNL     1      -0.052   0.971  -2.276  0.00  0.00    -0.270 OA
ATOM      7  N   UNL     1      -1.050   2.209  -0.586  0.00  0.00    -0.309 N 
ATOM     18  C   UNL     1       0.029   1.606  -1.227  0.00  0.00    +0.244 C 
ATOM     29  H   UNL     1      -0.921   2.675   0.305  0.00  0.00    +0.149 HD
BRANCH  18  19
ATOM     19  C   UNL     1       1.348   1.736  -0.558  0.00  0.00    +0.037 A 
ATOM     20  C   UNL     1       2.332   0.767  -0.758  0.00  0.00    +0.013 A 
ATOM     21  C   UNL     1       1.604   2.828   0.271  0.00  0.00    +0.013 A 
ATOM     22  C   UNL     1       3.570   0.890  -0.128  0.00  0.00    +0.004 A 
ATOM     23  C   UNL     1       2.843   2.951   0.901  0.00  0.00    +0.004 A 
ATOM     24  C   UNL     1       3.826   1.982   0.701  0.00  0.00    -0.050 A 
ATOM     25  C   UNL     1       5.150   2.113   1.374  0.00  0.00    +0.044 C 
ENDBRANCH  18  19
ENDBRANCH  17   7
ENDBRANCH  14  17
TORSDOF 8
