REMARK  Name = 75536926
REMARK  5 active torsions:
REMARK  status: ('A' for Active; 'I' for Inactive)
REMARK    1  A    between atoms: O_2  and  C_7
REMARK    2  A    between atoms: O_2  and  C_18
REMARK    3  A    between atoms: N_3  and  C_9
REMARK    4  A    between atoms: C_9  and  C_12
REMARK    5  A    between atoms: C_15  and  C_19
REMARK                            x       y       z     vdW  Elec       q    Type
REMARK                         _______ _______ _______ _____ _____    ______ ____
ROOT
ATOM      1  O   UNL     1       4.902   0.862   1.413  0.00  0.00    -0.375 OA
ATOM      3  N   UNL     1       2.697   1.762  -0.203  0.00  0.00    -0.292 NA
ATOM      6  C   UNL     1       2.850   0.410  -0.737  0.00  0.00    +0.131 C 
ATOM      7  C   UNL     1       3.194  -0.586   0.379  0.00  0.00    +0.215 C 
ATOM      8  C   UNL     1       3.948   2.522  -0.103  0.00  0.00    +0.113 C 
ATOM     10  C   UNL     1       4.596  -0.454   0.968  0.00  0.00    +0.205 C 
ATOM     11  C   UNL     1       5.187   1.743   0.333  0.00  0.00    +0.175 C 
ENDROOT
BRANCH   7   2
ATOM      2  O   UNL     1       3.046  -1.905  -0.148  0.00  0.00    -0.468 OA
BRANCH   2  18
ATOM      4  N   UNL     1       0.813  -1.713   0.470  0.00  0.00    -0.219 NA
ATOM      5  N   UNL     1       0.348  -4.296  -0.519  0.00  0.00    -0.256 NA
ATOM     18  C   UNL     1       1.795  -2.453  -0.081  0.00  0.00    +0.234 A 
ATOM     20  C   UNL     1       1.567  -3.722  -0.567  0.00  0.00    +0.177 A 
ATOM     25  C   UNL     1      -0.405  -2.287   0.519  0.00  0.00    +0.134 A 
ATOM     27  C   UNL     1      -0.633  -3.556   0.033  0.00  0.00    +0.130 A 
ENDBRANCH   2  18
ENDBRANCH   7   2
BRANCH   3   9
ATOM      9  C   UNL     1       1.705   2.528  -0.959  0.00  0.00    +0.119 C 
BRANCH   9  12
ATOM     12  C   UNL     1       0.303   2.049  -0.691  0.00  0.00    -0.033 A 
ATOM     13  C   UNL     1      -0.202   2.060   0.609  0.00  0.00    +0.005 A 
ATOM     14  C   UNL     1      -0.491   1.592  -1.744  0.00  0.00    +0.005 A 
ATOM     15  C   UNL     1      -2.294   1.159  -0.195  0.00  0.00    -0.018 A 
ATOM     16  C   UNL     1      -1.500   1.615   0.857  0.00  0.00    +0.009 A 
ATOM     17  C   UNL     1      -1.789   1.147  -1.496  0.00  0.00    +0.009 A 
BRANCH  15  19
ATOM     19  C   UNL     1      -3.641   0.698   0.062  0.00  0.00    -0.018 A 
ATOM     21  C   UNL     1      -4.373   1.239   1.119  0.00  0.00    +0.008 A 
ATOM     22  C   UNL     1      -4.208  -0.287  -0.747  0.00  0.00    +0.008 A 
ATOM     23  C   UNL     1      -5.672   0.794   1.367  0.00  0.00    +0.001 A 
ATOM     24  C   UNL     1      -5.506  -0.731  -0.499  0.00  0.00    +0.001 A 
ATOM     26  C   UNL     1      -6.239  -0.190   0.558  0.00  0.00    +0.000 A 
ENDBRANCH  15  19
ENDBRANCH   9  12
ENDBRANCH   3   9
TORSDOF 5
