REMARK  Name = 28961362
REMARK  9 active torsions:
REMARK  status: ('A' for Active; 'I' for Inactive)
REMARK    1  A    between atoms: S_1  and  N_9
REMARK    2  A    between atoms: S_1  and  C_23
REMARK    3  A    between atoms: O_3  and  C_12
REMARK    4  A    between atoms: O_4  and  C_19
REMARK    5  A    between atoms: N_7  and  C_10
REMARK    6  A    between atoms: N_8  and  C_20
REMARK    7  A    between atoms: N_9  and  C_16
REMARK    8  A    between atoms: C_11  and  C_16
REMARK    9  A    between atoms: C_13  and  C_19
REMARK                            x       y       z     vdW  Elec       q    Type
REMARK                         _______ _______ _______ _____ _____    ______ ____
ROOT
ATOM      2  O   UNL     1       2.497   2.624   0.822  0.00  0.00    -0.366 OA
ATOM     10  C   UNL     1       0.162   2.342   0.454  0.00  0.00    +0.118 C 
ATOM     11  C   UNL     1       1.407   1.716   1.096  0.00  0.00    +0.154 C 
ATOM     12  C   UNL     1       0.744   3.193  -0.664  0.00  0.00    +0.165 C 
ATOM     13  C   UNL     1       2.012   3.708   0.006  0.00  0.00    +0.174 C 
ENDROOT
BRANCH  10   7
ATOM      7  N   UNL     1      -0.884   1.419   0.050  0.00  0.00    -0.292 NA
ATOM      8  N   UNL     1      -3.515   0.306   0.030  0.00  0.00    -0.327 N 
ATOM     14  C   UNL     1      -1.379   0.662   1.207  0.00  0.00    +0.104 C 
ATOM     15  C   UNL     1      -1.992   2.143  -0.585  0.00  0.00    +0.104 C 
ATOM     17  C   UNL     1      -2.442  -0.354   0.784  0.00  0.00    +0.120 C 
ATOM     18  C   UNL     1      -3.077   1.176  -1.066  0.00  0.00    +0.120 C 
BRANCH   8  20
ATOM     20  C   UNL     1      -4.756  -0.335  -0.047  0.00  0.00    +0.030 A 
ATOM     21  C   UNL     1      -5.468  -0.618   1.119  0.00  0.00    +0.023 A 
ATOM     22  C   UNL     1      -5.281  -0.692  -1.289  0.00  0.00    +0.023 A 
ATOM     24  C   UNL     1      -6.705  -1.258   1.042  0.00  0.00    +0.002 A 
ATOM     25  C   UNL     1      -6.518  -1.332  -1.365  0.00  0.00    +0.002 A 
ATOM     26  C   UNL     1      -7.231  -1.614  -0.200  0.00  0.00    +0.000 A 
ENDBRANCH   8  20
ENDBRANCH  10   7
BRANCH  12   3
ATOM      3  O   UNL     1       1.071   2.405  -1.802  0.00  0.00    -0.388 OA
ATOM     32  H   UNL     1       1.334   3.013  -2.514  0.00  0.00    +0.210 HD
ENDBRANCH  12   3
BRANCH  11  16
ATOM     16  C   UNL     1       1.824   0.342   0.583  0.00  0.00    +0.139 C 
BRANCH  16   9
ATOM      9  N   UNL     1       2.691  -0.310   1.581  0.00  0.00    -0.187 NA
ATOM     33  H   UNL     1       3.541   0.207   1.841  0.00  0.00    +0.148 HD
BRANCH   9   1
ATOM      1  S   UNL     1       2.697  -2.006   1.729  0.00  0.00    +0.058 S 
ATOM      5  O   UNL     1       1.339  -2.474   1.930  0.00  0.00    -0.153 OA
ATOM      6  O   UNL     1       3.748  -2.397   2.650  0.00  0.00    -0.153 OA
BRANCH   1  23
ATOM     23  C   UNL     1       3.213  -2.507   0.114  0.00  0.00    +0.105 A 
ATOM     27  C   UNL     1       4.570  -2.670  -0.165  0.00  0.00    +0.028 A 
ATOM     28  C   UNL     1       2.264  -2.741  -0.880  0.00  0.00    +0.028 A 
ATOM     29  C   UNL     1       4.978  -3.066  -1.438  0.00  0.00    +0.002 A 
ATOM     30  C   UNL     1       2.671  -3.137  -2.154  0.00  0.00    +0.002 A 
ATOM     31  C   UNL     1       4.028  -3.300  -2.433  0.00  0.00    +0.000 A 
ENDBRANCH   1  23
ENDBRANCH   9   1
ENDBRANCH  16   9
ENDBRANCH  11  16
BRANCH  13  19
ATOM     19  C   UNL     1       3.114   4.156  -0.937  0.00  0.00    +0.190 C 
BRANCH  19   4
ATOM      4  O   UNL     1       4.215   4.616  -0.171  0.00  0.00    -0.392 OA
ATOM     34  H   UNL     1       4.902   4.900  -0.798  0.00  0.00    +0.210 HD
ENDBRANCH  19   4
ENDBRANCH  13  19
TORSDOF 9
