REMARK  Name = 38026990
REMARK  13 active torsions:
REMARK  status: ('A' for Active; 'I' for Inactive)
REMARK    1  A    between atoms: S_1  and  N_7
REMARK    2  A    between atoms: S_1  and  C_25
REMARK    3  A    between atoms: N_7  and  C_17
REMARK    4  A    between atoms: N_8  and  C_23
REMARK    5  A    between atoms: N_9  and  C_24
REMARK    6  A    between atoms: C_10  and  C_14
REMARK    7  A    between atoms: C_11  and  C_17
REMARK    8  A    between atoms: C_13  and  C_18
REMARK    9  A    between atoms: C_14  and  C_19
REMARK   10  A    between atoms: C_14  and  C_20
REMARK   11  A    between atoms: C_15  and  C_21
REMARK   12  A    between atoms: C_18  and  C_22
REMARK   13  A    between atoms: C_23  and  C_24
REMARK                            x       y       z     vdW  Elec       q    Type
REMARK                         _______ _______ _______ _____ _____    ______ ____
ROOT
ATOM     10  C   UNL     1      -1.894  -0.953  -1.219  0.00  0.00    +0.000 C 
ATOM     11  C   UNL     1      -3.435  -1.103  -1.153  0.00  0.00    +0.030 C 
ATOM     12  C   UNL     1      -1.218  -2.330  -1.140  0.00  0.00    +0.012 C 
ATOM     13  C   UNL     1      -1.580  -3.084   0.153  0.00  0.00    +0.023 C 
ATOM     15  C   UNL     1      -3.069  -3.045   0.429  0.00  0.00    -0.073 C 
ATOM     16  C   UNL     1      -3.884  -2.162  -0.174  0.00  0.00    -0.023 C 
ATOM     21  C   UNL     1      -3.608  -4.076   1.382  0.00  0.00    +0.039 C 
ENDROOT
BRANCH  10  14
ATOM     14  C   UNL     1      -1.447  -0.228  -2.492  0.00  0.00    -0.013 C 
ATOM     19  C   UNL     1      -1.861  -1.019  -3.729  0.00  0.00    +0.007 C 
ATOM     20  C   UNL     1       0.061  -0.002  -2.475  0.00  0.00    +0.007 C 
ENDBRANCH  10  14
BRANCH  11  17
ATOM     17  C   UNL     1      -4.106   0.231  -0.807  0.00  0.00    +0.113 C 
BRANCH  17   7
ATOM      7  N   UNL     1      -3.722   0.623   0.557  0.00  0.00    -0.189 NA
ATOM     35  H   UNL     1      -3.922  -0.050   1.307  0.00  0.00    +0.148 HD
BRANCH   7   1
ATOM      1  S   UNL     1      -3.620   2.271   0.979  0.00  0.00    +0.058 S 
ATOM      4  O   UNL     1      -3.791   2.409   2.413  0.00  0.00    -0.153 OA
ATOM      5  O   UNL     1      -4.441   3.046   0.068  0.00  0.00    -0.153 OA
BRANCH   1  25
ATOM      2  F   UNL     1       2.003   3.495  -0.307  0.00  0.00    -0.205 F 
ATOM     25  C   UNL     1      -1.934   2.638   0.594  0.00  0.00    +0.105 A 
ATOM     30  C   UNL     1      -1.593   3.089  -0.681  0.00  0.00    +0.031 A 
ATOM     31  C   UNL     1      -0.946   2.475   1.564  0.00  0.00    +0.031 A 
ATOM     32  C   UNL     1      -0.263   3.379  -0.985  0.00  0.00    +0.040 A 
ATOM     33  C   UNL     1       0.385   2.765   1.260  0.00  0.00    +0.040 A 
ATOM     34  C   UNL     1       0.726   3.217  -0.015  0.00  0.00    +0.124 A 
ENDBRANCH   1  25
ENDBRANCH   7   1
ENDBRANCH  17   7
ENDBRANCH  11  17
BRANCH  13  18
ATOM     18  C   UNL     1      -0.786  -2.544   1.348  0.00  0.00    +0.103 C 
BRANCH  18  22
ATOM      3  O   UNL     1       1.267  -3.375   0.373  0.00  0.00    -0.276 OA
ATOM      8  N   UNL     1       1.333  -1.519   1.771  0.00  0.00    -0.314 N 
ATOM     22  C   UNL     1       0.704  -2.552   1.091  0.00  0.00    +0.214 C 
ATOM     36  H   UNL     1       0.781  -0.886   2.342  0.00  0.00    +0.149 HD
BRANCH   8  23
ATOM     23  C   UNL     1       2.757  -1.286   1.711  0.00  0.00    +0.119 C 
BRANCH  23  24
ATOM     24  C   UNL     1       3.114  -0.348   0.568  0.00  0.00    +0.103 C 
BRANCH  24   9
ATOM      6  O   UNL     1       7.026   0.125  -0.876  0.00  0.00    -0.377 OA
ATOM      9  N   UNL     1       4.559  -0.134   0.519  0.00  0.00    -0.297 NA
ATOM     26  C   UNL     1       4.882   1.074  -0.253  0.00  0.00    +0.112 C 
ATOM     27  C   UNL     1       5.240  -1.300  -0.062  0.00  0.00    +0.112 C 
ATOM     28  C   UNL     1       6.395   1.269  -0.301  0.00  0.00    +0.175 C 
ATOM     29  C   UNL     1       6.744  -1.048  -0.113  0.00  0.00    +0.175 C 
ENDBRANCH  24   9
ENDBRANCH  23  24
ENDBRANCH   8  23
ENDBRANCH  18  22
ENDBRANCH  13  18
TORSDOF 10
