REMARK  Name = 75367112
REMARK  10 active torsions:
REMARK  status: ('A' for Active; 'I' for Inactive)
REMARK    1  A    between atoms: O_3  and  C_8
REMARK    2  A    between atoms: N_5  and  C_7
REMARK    3  A    between atoms: N_5  and  C_10
REMARK    4  A    between atoms: N_6  and  C_12
REMARK    5  A    between atoms: C_9  and  C_12
REMARK    6  A    between atoms: C_15  and  C_16
REMARK    7  A    between atoms: C_15  and  C_18
REMARK    8  A    between atoms: C_15  and  C_19
REMARK    9  A    between atoms: C_15  and  C_20
REMARK   10  A    between atoms: C_16  and  C_17
REMARK                            x       y       z     vdW  Elec       q    Type
REMARK                         _______ _______ _______ _____ _____    ______ ____
ROOT
ATOM      1  O   UNL     1       0.010   0.182  -0.071  0.00  0.00    -0.371 OA
ATOM      7  C   UNL     1      -2.225  -0.432   0.447  0.00  0.00    +0.111 C 
ATOM      8  C   UNL     1      -1.447  -1.676   0.059  0.00  0.00    +0.164 C 
ATOM      9  C   UNL     1      -0.016  -1.210   0.287  0.00  0.00    +0.165 C 
ATOM     11  C   UNL     1      -1.344   0.665  -0.127  0.00  0.00    +0.181 C 
ENDROOT
BRANCH   8   3
ATOM      3  O   UNL     1      -1.771  -2.795   0.861  0.00  0.00    -0.388 OA
ATOM     22  H   UNL     1      -1.619  -2.558   1.792  0.00  0.00    +0.210 HD
ENDBRANCH   8   3
BRANCH   7   5
ATOM      5  N   UNL     1      -3.580  -0.403  -0.080  0.00  0.00    -0.302 NA
ATOM     21  H   UNL     1      -4.004  -1.317   0.085  0.00  0.00    +0.123 HD
BRANCH   5  10
ATOM      2  O   UNL     1      -5.956   1.683  -0.415  0.00  0.00    -0.377 OA
ATOM     10  C   UNL     1      -4.328   0.694   0.547  0.00  0.00    +0.106 C 
ATOM     13  C   UNL     1      -5.824   0.455   0.345  0.00  0.00    +0.180 C 
ATOM     14  C   UNL     1      -4.512   1.821  -0.470  0.00  0.00    +0.180 C 
ENDBRANCH   5  10
ENDBRANCH   7   5
BRANCH   9  12
ATOM     12  C   UNL     1       1.003  -1.972  -0.542  0.00  0.00    +0.138 C 
BRANCH  12   6
ATOM      4  O   UNL     1       2.399   0.142  -1.947  0.00  0.00    -0.276 OA
ATOM      6  N   UNL     1       2.345  -1.495  -0.298  0.00  0.00    -0.313 N 
ATOM     17  C   UNL     1       2.932  -0.474  -1.026  0.00  0.00    +0.214 C 
ATOM     23  H   UNL     1       2.869  -1.935   0.453  0.00  0.00    +0.149 HD
BRANCH  17  16
ATOM     16  C   UNL     1       4.352  -0.166  -0.581  0.00  0.00    +0.102 C 
BRANCH  16  15
ATOM     15  C   UNL     1       4.468   0.946   0.490  0.00  0.00    -0.029 C 
ATOM     18  C   UNL     1       5.936   1.199   0.869  0.00  0.00    +0.011 C 
ATOM     19  C   UNL     1       3.670   0.593   1.756  0.00  0.00    +0.011 C 
ATOM     20  C   UNL     1       3.887   2.243  -0.105  0.00  0.00    +0.011 C 
ENDBRANCH  16  15
ENDBRANCH  17  16
ENDBRANCH  12   6
ENDBRANCH   9  12
TORSDOF 7
