REMARK  Name = 56775614
REMARK  10 active torsions:
REMARK  status: ('A' for Active; 'I' for Inactive)
REMARK    1  A    between atoms: N_4  and  C_8
REMARK    2  A    between atoms: N_4  and  C_9
REMARK    3  A    between atoms: N_7  and  C_22
REMARK    4  A    between atoms: N_7  and  C_23
REMARK    5  A    between atoms: N_7  and  C_24
REMARK    6  A    between atoms: C_8  and  C_12
REMARK    7  A    between atoms: C_12  and  C_17
REMARK    8  A    between atoms: C_18  and  C_21
REMARK    9  A    between atoms: C_20  and  C_22
REMARK   10  A    between atoms: C_23  and  C_25
REMARK                            x       y       z     vdW  Elec       q    Type
REMARK                         _______ _______ _______ _____ _____    ______ ____
ROOT
ATOM     12  C   UNL     1      -1.190   1.982   0.993  0.00  0.00    +0.085 C 
ENDROOT
BRANCH  12  17
ATOM      2  O   UNL     1       1.107   1.602  -1.770  0.00  0.00    -0.358 OA
ATOM      6  N   UNL     1      -0.148   1.474  -1.187  0.00  0.00    -0.083 NA
ATOM     17  C   UNL     1      -0.005   1.959   0.050  0.00  0.00    +0.086 A 
ATOM     19  C   UNL     1       1.304   2.403   0.301  0.00  0.00    +0.072 A 
ATOM     20  C   UNL     1       1.963   2.156  -0.874  0.00  0.00    +0.151 A 
BRANCH  20  22
ATOM     22  C   UNL     1       3.343   2.365  -1.329  0.00  0.00    +0.161 C 
BRANCH  22   7
ATOM      7  N   UNL     1       4.138   1.125  -1.361  0.00  0.00    -0.294 NA
ATOM     24  C   UNL     1       5.292   1.293  -2.237  0.00  0.00    +0.105 C 
BRANCH   7  23
ATOM     23  C   UNL     1       4.557   0.764  -0.011  0.00  0.00    +0.119 C 
BRANCH  23  25
ATOM     25  C   UNL     1       4.889  -0.700   0.100  0.00  0.00    -0.033 A 
ATOM     26  C   UNL     1       3.895  -1.616   0.445  0.00  0.00    +0.005 A 
ATOM     27  C   UNL     1       6.190  -1.141  -0.141  0.00  0.00    +0.005 A 
ATOM     28  C   UNL     1       4.203  -2.973   0.549  0.00  0.00    +0.000 A 
ATOM     29  C   UNL     1       6.498  -2.497  -0.038  0.00  0.00    +0.000 A 
ATOM     30  C   UNL     1       5.504  -3.413   0.307  0.00  0.00    +0.000 A 
ENDBRANCH  23  25
ENDBRANCH   7  23
ENDBRANCH  22   7
ENDBRANCH  20  22
ENDBRANCH  12  17
BRANCH  12   8
ATOM      1  O   UNL     1      -0.955   0.243   3.844  0.00  0.00    -0.376 OA
ATOM      8  C   UNL     1      -1.265   0.713   1.785  0.00  0.00    +0.072 C 
ATOM     10  C   UNL     1      -0.094   0.336   2.686  0.00  0.00    +0.184 C 
ATOM     11  C   UNL     1      -2.090   0.688   3.067  0.00  0.00    +0.184 C 
BRANCH   8   4
ATOM      4  N   UNL     1      -1.626  -0.450   0.969  0.00  0.00    -0.304 NA
ATOM     31  H   UNL     1      -1.860  -1.292   1.494  0.00  0.00    +0.123 HD
BRANCH   4   9
ATOM      3  O   UNL     1      -7.615  -0.820  -0.371  0.00  0.00    -0.276 OA
ATOM      5  N   UNL     1      -5.383  -0.567  -0.963  0.00  0.00    -0.302 N 
ATOM      9  C   UNL     1      -2.722  -0.089   0.074  0.00  0.00    +0.057 C 
ATOM     13  C   UNL     1      -3.976   0.254   0.888  0.00  0.00    +0.037 C 
ATOM     14  C   UNL     1      -3.011  -1.242  -0.896  0.00  0.00    +0.037 C 
ATOM     15  C   UNL     1      -5.161   0.541  -0.031  0.00  0.00    +0.109 C 
ATOM     16  C   UNL     1      -4.217  -0.925  -1.780  0.00  0.00    +0.109 C 
ATOM     18  C   UNL     1      -6.640  -1.164  -1.044  0.00  0.00    +0.212 C 
ATOM     21  C   UNL     1      -6.786  -2.300  -2.025  0.00  0.00    +0.109 C 
ENDBRANCH   4   9
ENDBRANCH   8   4
ENDBRANCH  12   8
TORSDOF 8
