REMARK  Name = 7155575
REMARK  3 active torsions:
REMARK  status: ('A' for Active; 'I' for Inactive)
REMARK    1  A    between atoms: N_7  and  C_20
REMARK    2  A    between atoms: N_9  and  C_28
REMARK    3  A    between atoms: C_19  and  C_22
REMARK                            x       y       z     vdW  Elec       q    Type
REMARK                         _______ _______ _______ _____ _____    ______ ____
ROOT
ATOM      2  O   UNL     1      -0.439   2.696   1.558  0.00  0.00    -0.266 OA
ATOM      3  O   UNL     1      -3.789  -1.140   2.465  0.00  0.00    -0.270 OA
ATOM      5  N   UNL     1      -4.341  -0.189   0.400  0.00  0.00    -0.297 N 
ATOM      6  N   UNL     1      -2.052   1.976   0.030  0.00  0.00    -0.310 N 
ATOM     10  C   UNL     1      -4.565   2.290   0.418  0.00  0.00    +0.027 C 
ATOM     11  C   UNL     1      -3.773   1.148  -1.614  0.00  0.00    +0.054 C 
ATOM     12  C   UNL     1      -4.657   2.285  -1.104  0.00  0.00    +0.018 C 
ATOM     13  C   UNL     1      -5.052   0.946   0.990  0.00  0.00    +0.113 C 
ATOM     14  C   UNL     1      -3.119   2.601   0.825  0.00  0.00    +0.130 C 
ATOM     15  C   UNL     1      -4.297  -0.197  -1.071  0.00  0.00    +0.117 C 
ATOM     16  C   UNL     1      -2.331   1.344  -1.187  0.00  0.00    +0.027 A 
ATOM     17  C   UNL     1      -1.329   0.882  -1.954  0.00  0.00    +0.024 A 
ATOM     18  C   UNL     1      -0.734   2.133   0.503  0.00  0.00    +0.273 A 
ATOM     19  C   UNL     1      -3.755  -1.142   1.236  0.00  0.00    +0.248 C 
ATOM     20  C   UNL     1       0.351   1.580  -0.368  0.00  0.00    +0.100 A 
ATOM     21  C   UNL     1       0.038   1.003  -1.533  0.00  0.00    +0.030 A 
ENDROOT
BRANCH  20   7
ATOM      4  O   UNL     1       2.486  -0.203  -0.963  0.00  0.00    -0.252 OA
ATOM      7  N   UNL     1       1.640   1.696   0.064  0.00  0.00    -0.265 N 
ATOM      9  N   UNL     1       3.861   1.186   0.337  0.00  0.00    -0.269 N 
ATOM     25  C   UNL     1       2.658   0.789  -0.258  0.00  0.00    +0.308 C 
ATOM     34  H   UNL     1       1.809   2.325   0.845  0.00  0.00    +0.157 HD
ATOM     35  H   UNL     1       3.834   2.038   0.891  0.00  0.00    +0.156 HD
BRANCH   9  28
ATOM      1 CL   UNL     1       9.120  -1.481   0.014  0.00  0.00    -0.084 Cl
ATOM     28  C   UNL     1       5.120   0.547   0.260  0.00  0.00    +0.035 A 
ATOM     29  C   UNL     1       6.203   1.100   0.924  0.00  0.00    +0.025 A 
ATOM     30  C   UNL     1       5.245  -0.618  -0.479  0.00  0.00    +0.025 A 
ATOM     31  C   UNL     1       7.445   0.470   0.848  0.00  0.00    +0.022 A 
ATOM     32  C   UNL     1       6.488  -1.248  -0.555  0.00  0.00    +0.022 A 
ATOM     33  C   UNL     1       7.588  -0.704   0.108  0.00  0.00    +0.041 A 
ENDBRANCH   9  28
ENDBRANCH  20   7
BRANCH  19  22
ATOM      8  N   UNL     1      -3.021  -4.468  -0.315  0.00  0.00    -0.263 NA
ATOM     22  C   UNL     1      -3.012  -2.240   0.610  0.00  0.00    +0.055 A 
ATOM     23  C   UNL     1      -1.655  -2.122   0.348  0.00  0.00    +0.016 A 
ATOM     24  C   UNL     1      -3.647  -3.419   0.265  0.00  0.00    +0.123 A 
ATOM     26  C   UNL     1      -0.977  -3.180  -0.247  0.00  0.00    +0.020 A 
ATOM     27  C   UNL     1      -1.699  -4.321  -0.556  0.00  0.00    +0.111 A 
ENDBRANCH  19  22
TORSDOF 3
