REMARK  Name = 26742488
REMARK  9 active torsions:
REMARK  status: ('A' for Active; 'I' for Inactive)
REMARK    1  A    between atoms: N_3  and  C_14
REMARK    2  A    between atoms: N_6  and  C_29
REMARK    3  A    between atoms: N_6  and  C_33
REMARK    4  A    between atoms: N_6  and  C_34
REMARK    5  A    between atoms: C_8  and  C_15
REMARK    6  A    between atoms: C_9  and  C_14
REMARK    7  A    between atoms: C_17  and  C_20
REMARK    8  A    between atoms: C_18  and  C_21
REMARK    9  A    between atoms: C_19  and  C_22
REMARK                            x       y       z     vdW  Elec       q    Type
REMARK                         _______ _______ _______ _____ _____    ______ ____
ROOT
ATOM      2  N   UNL     1      -1.614  -2.606   1.358  0.00  0.00    -0.297 NA
ATOM      7  C   UNL     1      -1.258  -2.551  -1.221  0.00  0.00    +0.002 C 
ATOM      8  C   UNL     1       0.089  -2.321  -0.482  0.00  0.00    +0.055 C 
ATOM      9  C   UNL     1      -2.603  -1.692   0.728  0.00  0.00    +0.074 C 
ATOM     10  C   UNL     1      -2.278  -1.486  -0.768  0.00  0.00    +0.024 C 
ATOM     11  C   UNL     1      -1.794  -3.921  -0.753  0.00  0.00    +0.019 C 
ATOM     12  C   UNL     1      -0.234  -2.165   1.032  0.00  0.00    +0.094 C 
ATOM     13  C   UNL     1      -1.815  -3.958   0.785  0.00  0.00    +0.085 C 
ENDROOT
BRANCH   8  15
ATOM      4  N   UNL     1       0.576  -0.511  -2.054  0.00  0.00    -0.237 NA
ATOM      5  N   UNL     1       2.619   0.763  -1.952  0.00  0.00    -0.232 NA
ATOM     15  C   UNL     1       1.010  -1.221  -0.991  0.00  0.00    +0.050 A 
ATOM     16  C   UNL     1       2.219  -1.001  -0.364  0.00  0.00    +0.052 A 
ATOM     17  C   UNL     1       2.990   0.014  -0.892  0.00  0.00    +0.075 A 
ATOM     18  C   UNL     1       1.418   0.451  -2.476  0.00  0.00    +0.127 A 
ATOM     21  C   UNL     1       0.975   1.256  -3.650  0.00  0.00    +0.088 C 
BRANCH  17  20
ATOM     20  C   UNL     1       4.277   0.344  -0.328  0.00  0.00    +0.001 A 
ATOM     23  C   UNL     1       4.371   0.751   1.002  0.00  0.00    +0.012 A 
ATOM     24  C   UNL     1       5.426   0.254  -1.113  0.00  0.00    +0.012 A 
ATOM     27  C   UNL     1       5.615   1.070   1.548  0.00  0.00    +0.024 A 
ATOM     28  C   UNL     1       6.670   0.572  -0.568  0.00  0.00    +0.024 A 
ATOM     29  C   UNL     1       6.764   0.980   0.762  0.00  0.00    +0.029 A 
BRANCH  29   6
ATOM      6  N   UNL     1       8.022   1.302   1.313  0.00  0.00    -0.336 N 
ATOM     33  C   UNL     1       8.131   1.727   2.695  0.00  0.00    +0.129 C 
ATOM     34  C   UNL     1       9.223   1.205   0.507  0.00  0.00    +0.129 C 
ENDBRANCH  29   6
ENDBRANCH  17  20
ENDBRANCH   8  15
BRANCH   9  14
ATOM     14  C   UNL     1      -2.724  -0.361   1.473  0.00  0.00    +0.123 C 
BRANCH  14   3
ATOM      1  O   UNL     1      -5.489  -0.344   2.247  0.00  0.00    -0.270 OA
ATOM      3  N   UNL     1      -3.764   0.445   0.911  0.00  0.00    -0.310 N 
ATOM     19  C   UNL     1      -5.086   0.390   1.349  0.00  0.00    +0.244 C 
ATOM     35  H   UNL     1      -3.510   1.030   0.122  0.00  0.00    +0.149 HD
BRANCH  19  22
ATOM     22  C   UNL     1      -6.051   1.273   0.645  0.00  0.00    +0.037 A 
ATOM     25  C   UNL     1      -7.400   0.924   0.583  0.00  0.00    +0.013 A 
ATOM     26  C   UNL     1      -5.607   2.452   0.046  0.00  0.00    +0.013 A 
ATOM     30  C   UNL     1      -8.306   1.754  -0.079  0.00  0.00    +0.001 A 
ATOM     31  C   UNL     1      -6.513   3.282  -0.616  0.00  0.00    +0.001 A 
ATOM     32  C   UNL     1      -7.862   2.932  -0.678  0.00  0.00    +0.000 A 
ENDBRANCH  19  22
ENDBRANCH  14   3
ENDBRANCH   9  14
TORSDOF 6
