REMARK  Name = 45783552
REMARK  9 active torsions:
REMARK  status: ('A' for Active; 'I' for Inactive)
REMARK    1  A    between atoms: O_3  and  C_24
REMARK    2  A    between atoms: O_3  and  C_25
REMARK    3  A    between atoms: O_4  and  C_26
REMARK    4  A    between atoms: O_4  and  C_27
REMARK    5  A    between atoms: N_5  and  C_13
REMARK    6  A    between atoms: C_9  and  C_14
REMARK    7  A    between atoms: C_13  and  C_15
REMARK    8  A    between atoms: C_17  and  C_19
REMARK    9  A    between atoms: C_25  and  C_26
REMARK                            x       y       z     vdW  Elec       q    Type
REMARK                         _______ _______ _______ _____ _____    ______ ____
ROOT
ATOM      1  O   UNL     1      -2.151   0.104  -1.975  0.00  0.00    -0.336 OA
ATOM      6  N   UNL     1      -1.278   0.986  -0.110  0.00  0.00    -0.190 NA
ATOM      7  N   UNL     1      -0.785  -0.206  -2.000  0.00  0.00    -0.056 NA
ATOM     14  C   UNL     1      -2.357   0.806  -0.830  0.00  0.00    +0.245 A 
ATOM     17  C   UNL     1      -0.340   0.347  -0.868  0.00  0.00    +0.204 A 
ENDROOT
BRANCH  17  19
ATOM      8  N   UNL     1       3.287  -0.469  -0.922  0.00  0.00    -0.221 NA
ATOM     19  C   UNL     1       1.035   0.282  -0.466  0.00  0.00    +0.041 A 
ATOM     21  C   UNL     1       1.464   0.871   0.719  0.00  0.00    +0.018 A 
ATOM     22  C   UNL     1       1.978  -0.370  -1.244  0.00  0.00    +0.126 A 
ATOM     23  C   UNL     1       2.803   0.790   1.084  0.00  0.00    +0.068 A 
ATOM     24  C   UNL     1       3.667   0.115   0.236  0.00  0.00    +0.215 A 
BRANCH  24   3
ATOM      3  O   UNL     1       4.992   0.022   0.574  0.00  0.00    -0.474 OA
BRANCH   3  25
ATOM     25  C   UNL     1       5.835  -0.682  -0.331  0.00  0.00    +0.258 C 
BRANCH  25  26
ATOM     26  C   UNL     1       7.256  -0.658   0.197  0.00  0.00    +0.200 C 
BRANCH  26   4
ATOM      4  O   UNL     1       7.694   0.692   0.290  0.00  0.00    -0.380 OA
ATOM     27  C   UNL     1       9.017   0.776   0.802  0.00  0.00    +0.194 C 
ENDBRANCH  26   4
ENDBRANCH  25  26
ENDBRANCH   3  25
ENDBRANCH  24   3
ENDBRANCH  17  19
BRANCH  14   9
ATOM      5  N   UNL     1      -4.300   0.771   0.724  0.00  0.00    -0.284 NA
ATOM      9  C   UNL     1      -3.776   1.264  -0.565  0.00  0.00    +0.146 C 
ATOM     10  C   UNL     1      -3.899   2.797  -0.477  0.00  0.00    +0.030 C 
ATOM     11  C   UNL     1      -4.558   3.066   0.868  0.00  0.00    +0.017 C 
ATOM     12  C   UNL     1      -5.269   1.766   1.183  0.00  0.00    +0.085 C 
BRANCH   5  13
ATOM     13  C   UNL     1      -4.883  -0.561   0.635  0.00  0.00    +0.159 C 
BRANCH  13  15
ATOM      2  O   UNL     1      -3.804  -2.462  -0.438  0.00  0.00    -0.467 OA
ATOM     15  C   UNL     1      -3.828  -1.636   0.641  0.00  0.00    +0.119 A 
ATOM     16  C   UNL     1      -2.841  -1.980   1.535  0.00  0.00    +0.046 A 
ATOM     18  C   UNL     1      -2.167  -3.089   0.969  0.00  0.00    +0.041 A 
ATOM     20  C   UNL     1      -2.791  -3.343  -0.230  0.00  0.00    +0.195 A 
ENDBRANCH  13  15
ENDBRANCH   5  13
ENDBRANCH  14   9
TORSDOF 8
