REMARK  Name = 26744874
REMARK  6 active torsions:
REMARK  status: ('A' for Active; 'I' for Inactive)
REMARK    1  A    between atoms: O_2  and  C_28
REMARK    2  A    between atoms: N_4  and  C_15
REMARK    3  A    between atoms: C_10  and  C_16
REMARK    4  A    between atoms: C_15  and  C_17
REMARK    5  A    between atoms: C_21  and  C_25
REMARK    6  A    between atoms: C_24  and  C_28
REMARK                            x       y       z     vdW  Elec       q    Type
REMARK                         _______ _______ _______ _____ _____    ______ ____
ROOT
ATOM      4  N   UNL     1      -0.929  -1.363   0.484  0.00  0.00    -0.281 NA
ATOM      5  N   UNL     1      -2.800  -4.341  -0.818  0.00  0.00    -0.347 N 
ATOM      6  N   UNL     1      -0.783  -5.089  -1.425  0.00  0.00    -0.240 NA
ATOM     10  C   UNL     1       0.339  -2.136   0.722  0.00  0.00    +0.152 C 
ATOM     11  C   UNL     1       0.588  -3.231  -0.376  0.00  0.00    +0.086 C 
ATOM     12  C   UNL     1      -2.135  -2.241   0.483  0.00  0.00    +0.140 C 
ATOM     13  C   UNL     1      -1.894  -3.453  -0.326  0.00  0.00    +0.053 A 
ATOM     14  C   UNL     1      -0.668  -3.935  -0.703  0.00  0.00    +0.065 A 
ATOM     18  C   UNL     1      -2.082  -5.310  -1.474  0.00  0.00    +0.197 A 
ATOM     31  H   UNL     1      -3.807  -4.302  -0.720  0.00  0.00    +0.167 HD
ENDROOT
BRANCH  10  16
ATOM      1  O   UNL     1       2.275  -1.304   1.978  0.00  0.00    -0.336 OA
ATOM      7  N   UNL     1       2.108  -0.471  -0.095  0.00  0.00    -0.190 NA
ATOM      8  N   UNL     1       3.364  -0.437   1.817  0.00  0.00    -0.056 NA
ATOM     16  C   UNL     1       1.588  -1.266   0.806  0.00  0.00    +0.245 A 
ATOM     21  C   UNL     1       3.196   0.015   0.571  0.00  0.00    +0.202 A 
BRANCH  21  25
ATOM      9  N   UNL     1       5.851   2.773  -1.226  0.00  0.00    -0.263 NA
ATOM     25  C   UNL     1       4.096   0.950  -0.038  0.00  0.00    +0.025 A 
ATOM     26  C   UNL     1       3.875   1.386  -1.340  0.00  0.00    +0.031 A 
ATOM     27  C   UNL     1       5.195   1.425   0.670  0.00  0.00    +0.031 A 
ATOM     29  C   UNL     1       4.773   2.290  -1.883  0.00  0.00    +0.111 A 
ATOM     30  C   UNL     1       6.034   2.327   0.037  0.00  0.00    +0.111 A 
ENDBRANCH  21  25
ENDBRANCH  10  16
BRANCH   4  15
ATOM     15  C   UNL     1      -1.134  -0.305   1.483  0.00  0.00    +0.120 C 
BRANCH  15  17
ATOM     17  C   UNL     1      -2.009   0.801   0.956  0.00  0.00    -0.033 A 
ATOM     19  C   UNL     1      -3.341   0.889   1.360  0.00  0.00    +0.006 A 
ATOM     20  C   UNL     1      -1.487   1.738   0.064  0.00  0.00    +0.006 A 
ATOM     22  C   UNL     1      -4.151   1.915   0.872  0.00  0.00    +0.015 A 
ATOM     23  C   UNL     1      -2.297   2.763  -0.424  0.00  0.00    +0.015 A 
ATOM     24  C   UNL     1      -3.629   2.851  -0.020  0.00  0.00    +0.059 A 
BRANCH  24  28
ATOM      3  O   UNL     1      -5.662   4.094  -0.239  0.00  0.00    -0.245 OA
ATOM     28  C   UNL     1      -4.473   3.921  -0.529  0.00  0.00    +0.337 C 
BRANCH  28   2
ATOM      2  O   UNL     1      -3.810   4.745  -1.385  0.00  0.00    -0.477 OA
ATOM     32  H   UNL     1      -4.388   5.463  -1.722  0.00  0.00    +0.295 HD
ENDBRANCH  28   2
ENDBRANCH  24  28
ENDBRANCH  15  17
ENDBRANCH   4  15
TORSDOF 6
