REMARK  Name = 26745257
REMARK  4 active torsions:
REMARK  status: ('A' for Active; 'I' for Inactive)
REMARK    1  A    between atoms: N_5  and  C_9
REMARK    2  A    between atoms: N_8  and  C_23
REMARK    3  A    between atoms: C_15  and  C_21
REMARK    4  A    between atoms: C_23  and  C_24
REMARK                            x       y       z     vdW  Elec       q    Type
REMARK                         _______ _______ _______ _____ _____    ______ ____
ROOT
ATOM      2  O   UNL     1       0.189   1.261  -2.507  0.00  0.00    -0.253 OA
ATOM      4  N   UNL     1       1.519   0.772  -0.654  0.00  0.00    -0.268 N 
ATOM      5  N   UNL     1      -0.277   2.311  -0.517  0.00  0.00    -0.296 N 
ATOM      6  N   UNL     1       3.848   0.588   2.290  0.00  0.00    -0.347 N 
ATOM      7  N   UNL     1       5.239  -0.432   0.871  0.00  0.00    -0.240 NA
ATOM     15  C   UNL     1       2.210  -0.325  -1.385  0.00  0.00    +0.170 C 
ATOM     16  C   UNL     1       3.735  -0.396  -1.163  0.00  0.00    +0.089 C 
ATOM     17  C   UNL     1       1.834   0.996   0.788  0.00  0.00    +0.165 C 
ATOM     18  C   UNL     1       0.458   1.439  -1.315  0.00  0.00    +0.303 C 
ATOM     19  C   UNL     1       3.192   0.513   1.097  0.00  0.00    +0.056 A 
ATOM     20  C   UNL     1       4.065  -0.118   0.247  0.00  0.00    +0.066 A 
ATOM     22  C   UNL     1       5.076   0.005   2.104  0.00  0.00    +0.197 A 
ATOM     30  H   UNL     1      -0.135   2.320   0.485  0.00  0.00    +0.151 HD
ATOM     31  H   UNL     1       3.499   0.992   3.149  0.00  0.00    +0.167 HD
ENDROOT
BRANCH   5   9
ATOM      9  C   UNL     1      -1.400   3.064  -1.032  0.00  0.00    +0.074 C 
ATOM     10  C   UNL     1      -2.699   2.260  -0.920  0.00  0.00    +0.022 C 
ATOM     11  C   UNL     1      -1.523   4.420  -0.329  0.00  0.00    +0.022 C 
ATOM     12  C   UNL     1      -3.186   2.132   0.523  0.00  0.00    +0.002 C 
ATOM     13  C   UNL     1      -2.011   4.289   1.113  0.00  0.00    +0.002 C 
ATOM     14  C   UNL     1      -3.312   3.495   1.198  0.00  0.00    +0.000 C 
ENDBRANCH   5   9
BRANCH  15  21
ATOM      3  O   UNL     1       1.939  -2.276  -0.032  0.00  0.00    -0.274 OA
ATOM      8  N   UNL     1       0.420  -1.878  -1.751  0.00  0.00    -0.310 N 
ATOM     21  C   UNL     1       1.523  -1.593  -0.963  0.00  0.00    +0.234 C 
ATOM     32  H   UNL     1       0.148  -1.230  -2.484  0.00  0.00    +0.149 HD
BRANCH   8  23
ATOM     23  C   UNL     1      -0.401  -3.053  -1.566  0.00  0.00    +0.139 C 
BRANCH  23  24
ATOM      1 CL   UNL     1      -4.932  -2.050   2.256  0.00  0.00    -0.084 Cl
ATOM     24  C   UNL     1      -1.533  -2.803  -0.612  0.00  0.00    -0.030 A 
ATOM     25  C   UNL     1      -1.358  -3.031   0.753  0.00  0.00    +0.006 A 
ATOM     26  C   UNL     1      -2.760  -2.342  -1.090  0.00  0.00    +0.006 A 
ATOM     27  C   UNL     1      -2.409  -2.799   1.639  0.00  0.00    +0.020 A 
ATOM     28  C   UNL     1      -3.811  -2.110  -0.204  0.00  0.00    +0.020 A 
ATOM     29  C   UNL     1      -3.636  -2.339   1.161  0.00  0.00    +0.041 A 
ENDBRANCH  23  24
ENDBRANCH   8  23
ENDBRANCH  15  21
TORSDOF 4
