REMARK  Name = 26743088
REMARK  10 active torsions:
REMARK  status: ('A' for Active; 'I' for Inactive)
REMARK    1  A    between atoms: S_1  and  C_21
REMARK    2  A    between atoms: S_1  and  C_27
REMARK    3  A    between atoms: N_5  and  C_17
REMARK    4  A    between atoms: N_5  and  C_19
REMARK    5  A    between atoms: C_7  and  C_12
REMARK    6  A    between atoms: C_8  and  C_13
REMARK    7  A    between atoms: C_12  and  C_15
REMARK    8  A    between atoms: C_13  and  C_14
REMARK    9  A    between atoms: C_17  and  C_20
REMARK   10  A    between atoms: C_18  and  C_21
REMARK                            x       y       z     vdW  Elec       q    Type
REMARK                         _______ _______ _______ _____ _____    ______ ____
ROOT
ATOM      4  N   UNL     1       1.581  -3.243  -0.065  0.00  0.00    -0.316 NA
ATOM      7  C   UNL     1      -0.823  -1.592   0.194  0.00  0.00    +0.004 C 
ATOM      8  C   UNL     1       0.595  -0.977   0.271  0.00  0.00    +0.012 C 
ATOM      9  C   UNL     1      -0.802  -3.076   0.590  0.00  0.00    +0.019 C 
ATOM     10  C   UNL     1       1.576  -1.854  -0.528  0.00  0.00    +0.085 C 
ATOM     11  C   UNL     1       0.256  -3.849  -0.196  0.00  0.00    +0.081 C 
ATOM     33  H   UNL     1       1.881  -3.286   0.907  0.00  0.00    +0.122 HD
ENDROOT
BRANCH   7  12
ATOM     12  C   UNL     1      -1.862  -0.826   1.012  0.00  0.00    +0.100 C 
BRANCH  12  15
ATOM      2  O   UNL     1      -3.496  -1.822  -0.431  0.00  0.00    -0.276 OA
ATOM      5  N   UNL     1      -4.292  -0.411   1.229  0.00  0.00    -0.300 N 
ATOM     15  C   UNL     1      -3.280  -1.075   0.527  0.00  0.00    +0.216 C 
ATOM     19  C   UNL     1      -4.013   0.468   2.358  0.00  0.00    +0.132 C 
BRANCH   5  17
ATOM     17  C   UNL     1      -5.705  -0.548   0.883  0.00  0.00    +0.142 C 
BRANCH  17  20
ATOM     20  C   UNL     1      -6.129   0.450  -0.154  0.00  0.00    -0.030 A 
ATOM     22  C   UNL     1      -6.616   1.698   0.236  0.00  0.00    +0.005 A 
ATOM     23  C   UNL     1      -6.037   0.131  -1.509  0.00  0.00    +0.005 A 
ATOM     24  C   UNL     1      -7.010   2.626  -0.728  0.00  0.00    +0.000 A 
ATOM     25  C   UNL     1      -6.431   1.059  -2.473  0.00  0.00    +0.000 A 
ATOM     26  C   UNL     1      -6.918   2.306  -2.082  0.00  0.00    +0.000 A 
ENDBRANCH  17  20
ENDBRANCH   5  17
ENDBRANCH  12  15
ENDBRANCH   7  12
BRANCH   8  13
ATOM     13  C   UNL     1       1.101  -0.762   1.704  0.00  0.00    +0.064 C 
BRANCH  13  14
ATOM      3  O   UNL     1       3.144   2.195   1.910  0.00  0.00    -0.359 OA
ATOM      6  N   UNL     1       1.915   1.547   1.915  0.00  0.00    -0.083 NA
ATOM     14  C   UNL     1       2.206   0.254   1.747  0.00  0.00    +0.084 A 
ATOM     16  C   UNL     1       3.588   0.028   1.631  0.00  0.00    +0.071 A 
ATOM     18  C   UNL     1       4.133   1.280   1.740  0.00  0.00    +0.148 A 
BRANCH  18  21
ATOM     21  C   UNL     1       5.506   1.798   1.711  0.00  0.00    +0.151 C 
BRANCH  21   1
ATOM      1  S   UNL     1       5.939   2.603   0.128  0.00  0.00    -0.117 S 
BRANCH   1  27
ATOM     27  C   UNL     1       5.587   1.290  -1.031  0.00  0.00    +0.008 A 
ATOM     28  C   UNL     1       6.264   0.074  -0.935  0.00  0.00    +0.015 A 
ATOM     29  C   UNL     1       4.636   1.481  -2.033  0.00  0.00    +0.015 A 
ATOM     30  C   UNL     1       5.989  -0.951  -1.840  0.00  0.00    +0.001 A 
ATOM     31  C   UNL     1       4.361   0.456  -2.939  0.00  0.00    +0.001 A 
ATOM     32  C   UNL     1       5.038  -0.760  -2.842  0.00  0.00    +0.000 A 
ENDBRANCH   1  27
ENDBRANCH  21   1
ENDBRANCH  18  21
ENDBRANCH  13  14
ENDBRANCH   8  13
TORSDOF 9
