REMARK  Name = 7113406
REMARK  10 active torsions:
REMARK  status: ('A' for Active; 'I' for Inactive)
REMARK    1  A    between atoms: N_6  and  C_18
REMARK    2  A    between atoms: N_10  and  C_35
REMARK    3  A    between atoms: N_10  and  C_37
REMARK    4  A    between atoms: N_10  and  C_38
REMARK    5  A    between atoms: C_11  and  C_14
REMARK    6  A    between atoms: C_14  and  C_18
REMARK    7  A    between atoms: C_18  and  C_24
REMARK    8  A    between atoms: C_19  and  C_21
REMARK    9  A    between atoms: C_25  and  C_27
REMARK   10  A    between atoms: C_26  and  C_28
REMARK                            x       y       z     vdW  Elec       q    Type
REMARK                         _______ _______ _______ _____ _____    ______ ____
ROOT
ATOM      4  O   UNL     1       2.805  -0.874  -2.332  0.00  0.00    -0.269 OA
ATOM      5  O   UNL     1      -2.971   2.626  -1.409  0.00  0.00    -0.270 OA
ATOM      7  N   UNL     1       0.637  -0.691  -1.525  0.00  0.00    -0.283 N 
ATOM      8  N   UNL     1      -1.911   0.563  -1.691  0.00  0.00    -0.294 N 
ATOM     19  C   UNL     1       0.541   0.718  -1.938  0.00  0.00    +0.179 C 
ATOM     20  C   UNL     1      -0.825   1.096  -2.508  0.00  0.00    +0.140 C 
ATOM     22  C   UNL     1      -0.523  -1.251  -0.805  0.00  0.00    +0.128 C 
ATOM     23  C   UNL     1      -1.840  -0.884  -1.478  0.00  0.00    +0.127 C 
ATOM     25  C   UNL     1       1.857  -1.375  -1.724  0.00  0.00    +0.254 C 
ATOM     26  C   UNL     1      -2.917   1.411  -1.226  0.00  0.00    +0.247 C 
ENDROOT
BRANCH  26  28
ATOM     28  C   UNL     1      -4.005   0.823  -0.434  0.00  0.00    +0.037 A 
ATOM     29  C   UNL     1      -5.154   0.351  -1.069  0.00  0.00    +0.015 A 
ATOM     30  C   UNL     1      -3.891   0.739   0.954  0.00  0.00    +0.015 A 
ATOM     32  C   UNL     1      -6.188  -0.206  -0.317  0.00  0.00    +0.024 A 
ATOM     33  C   UNL     1      -4.925   0.181   1.706  0.00  0.00    +0.024 A 
ATOM     35  C   UNL     1      -6.073  -0.291   1.071  0.00  0.00    +0.029 A 
BRANCH  35  10
ATOM     10  N   UNL     1      -7.120  -0.854   1.831  0.00  0.00    -0.336 N 
ATOM     37  C   UNL     1      -8.323  -1.335   1.182  0.00  0.00    +0.129 C 
ATOM     38  C   UNL     1      -7.011  -0.946   3.274  0.00  0.00    +0.129 C 
ENDBRANCH  35  10
ENDBRANCH  26  28
BRANCH  25  27
ATOM      1  S   UNL     1       2.279  -4.031  -2.239  0.00  0.00    -0.092 S 
ATOM     27  C   UNL     1       1.971  -2.723  -1.176  0.00  0.00    +0.074 A 
ATOM     31  C   UNL     1       1.863  -3.136   0.134  0.00  0.00    +0.021 A 
ATOM     34  C   UNL     1       2.037  -4.544   0.267  0.00  0.00    +0.008 A 
ATOM     36  C   UNL     1       2.270  -5.154  -0.946  0.00  0.00    +0.046 A 
ENDBRANCH  25  27
BRANCH  19  21
ATOM      2  O   UNL     1       0.008   1.939   0.045  0.00  0.00    -0.274 OA
ATOM      6  N   UNL     1       2.237   1.759  -0.603  0.00  0.00    -0.302 N 
ATOM     21  C   UNL     1       0.877   1.529  -0.721  0.00  0.00    +0.236 C 
ATOM     39  H   UNL     1       2.861   1.427  -1.333  0.00  0.00    +0.150 HD
BRANCH   6  18
ATOM     18  C   UNL     1       2.817   2.534   0.470  0.00  0.00    +0.159 C 
BRANCH  18  24
ATOM      3  O   UNL     1       2.945   4.413  -1.064  0.00  0.00    -0.274 OA
ATOM      9  N   UNL     1       2.584   4.841   1.163  0.00  0.00    -0.328 N 
ATOM     24  C   UNL     1       2.783   4.006   0.084  0.00  0.00    +0.231 C 
ATOM     40  H   UNL     1       2.550   5.848   1.043  0.00  0.00    +0.145 HD
ATOM     41  H   UNL     1       2.471   4.492   2.110  0.00  0.00    +0.145 HD
ENDBRANCH  18  24
BRANCH  18  14
ATOM     14  C   UNL     1       4.223   2.049   0.839  0.00  0.00    +0.035 C 
BRANCH  14  11
ATOM     11  C   UNL     1       4.301   0.567   1.200  0.00  0.00    -0.009 C 
ATOM     12  C   UNL     1       5.732   0.041   1.027  0.00  0.00    +0.003 C 
ATOM     13  C   UNL     1       3.802   0.332   2.632  0.00  0.00    +0.003 C 
ATOM     15  C   UNL     1       5.846  -1.427   1.433  0.00  0.00    +0.000 C 
ATOM     16  C   UNL     1       3.920  -1.136   3.036  0.00  0.00    +0.000 C 
ATOM     17  C   UNL     1       5.341  -1.658   2.854  0.00  0.00    +0.000 C 
ENDBRANCH  14  11
ENDBRANCH  18  14
ENDBRANCH   6  18
ENDBRANCH  19  21
TORSDOF 8
