REMARK  Name = 56775859
REMARK  6 active torsions:
REMARK  status: ('A' for Active; 'I' for Inactive)
REMARK    1  A    between atoms: O_3  and  C_27
REMARK    2  A    between atoms: N_5  and  C_11
REMARK    3  A    between atoms: C_8  and  C_13
REMARK    4  A    between atoms: C_11  and  C_14
REMARK    5  A    between atoms: C_15  and  C_19
REMARK    6  A    between atoms: C_22  and  C_27
REMARK                            x       y       z     vdW  Elec       q    Type
REMARK                         _______ _______ _______ _____ _____    ______ ____
ROOT
ATOM      2  O   UNL     1       0.808   4.648   0.056  0.00  0.00    -0.377 OA
ATOM      5  N   UNL     1       1.301   1.833   0.245  0.00  0.00    -0.285 NA
ATOM      8  C   UNL     1      -0.081   2.376   0.208  0.00  0.00    +0.149 C 
ATOM      9  C   UNL     1       2.229   2.840   0.790  0.00  0.00    +0.113 C 
ATOM     10  C   UNL     1      -0.101   3.723  -0.540  0.00  0.00    +0.186 C 
ATOM     12  C   UNL     1       2.139   4.140   0.003  0.00  0.00    +0.175 C 
ENDROOT
BRANCH   8  13
ATOM      6  N   UNL     1      -2.175   0.973   0.246  0.00  0.00    -0.341 N 
ATOM      7  N   UNL     1      -1.052   0.971  -1.670  0.00  0.00    -0.238 NA
ATOM     13  C   UNL     1      -1.088   1.436  -0.441  0.00  0.00    +0.127 A 
ATOM     15  C   UNL     1      -2.878   0.160  -0.599  0.00  0.00    +0.066 A 
ATOM     16  C   UNL     1      -2.165   0.174  -1.774  0.00  0.00    +0.139 A 
ATOM     29  H   UNL     1      -2.414   1.204   1.202  0.00  0.00    +0.167 HD
BRANCH  15  19
ATOM      1 CL   UNL     1      -7.897  -2.627   0.961  0.00  0.00    -0.084 Cl
ATOM     19  C   UNL     1      -4.092  -0.514  -0.221  0.00  0.00    -0.000 A 
ATOM     23  C   UNL     1      -5.064  -0.790  -1.183  0.00  0.00    +0.011 A 
ATOM     24  C   UNL     1      -4.296  -0.892   1.106  0.00  0.00    +0.011 A 
ATOM     25  C   UNL     1      -6.241  -1.443  -0.818  0.00  0.00    +0.020 A 
ATOM     26  C   UNL     1      -5.473  -1.546   1.471  0.00  0.00    +0.020 A 
ATOM     28  C   UNL     1      -6.445  -1.821   0.509  0.00  0.00    +0.041 A 
ENDBRANCH  15  19
ENDBRANCH   8  13
BRANCH   5  11
ATOM     11  C   UNL     1       1.393   0.609   1.049  0.00  0.00    +0.120 C 
BRANCH  11  14
ATOM     14  C   UNL     1       2.590  -0.222   0.670  0.00  0.00    -0.033 A 
ATOM     17  C   UNL     1       2.567  -0.985  -0.498  0.00  0.00    +0.006 A 
ATOM     18  C   UNL     1       3.721  -0.230   1.486  0.00  0.00    +0.006 A 
ATOM     20  C   UNL     1       3.675  -1.755  -0.849  0.00  0.00    +0.015 A 
ATOM     21  C   UNL     1       4.829  -1.000   1.134  0.00  0.00    +0.015 A 
ATOM     22  C   UNL     1       4.806  -1.762  -0.034  0.00  0.00    +0.059 A 
BRANCH  22  27
ATOM      4  O   UNL     1       6.051  -3.274  -1.408  0.00  0.00    -0.245 OA
ATOM     27  C   UNL     1       5.963  -2.564  -0.400  0.00  0.00    +0.337 C 
BRANCH  27   3
ATOM      3  O   UNL     1       6.977  -2.458   0.501  0.00  0.00    -0.477 OA
ATOM     30  H   UNL     1       7.752  -3.003   0.245  0.00  0.00    +0.295 HD
ENDBRANCH  27   3
ENDBRANCH  22  27
ENDBRANCH  11  14
ENDBRANCH   5  11
TORSDOF 6
