REMARK  Name = 26743726
REMARK  7 active torsions:
REMARK  status: ('A' for Active; 'I' for Inactive)
REMARK    1  A    between atoms: O_4  and  C_15
REMARK    2  A    between atoms: O_6  and  C_28
REMARK    3  A    between atoms: O_6  and  C_29
REMARK    4  A    between atoms: N_7  and  C_11
REMARK    5  A    between atoms: N_8  and  C_21
REMARK    6  A    between atoms: C_12  and  C_20
REMARK    7  A    between atoms: C_22  and  C_23
REMARK                            x       y       z     vdW  Elec       q    Type
REMARK                         _______ _______ _______ _____ _____    ______ ____
ROOT
ATOM      5  O   UNL     1      -1.161   1.573  -2.242  0.00  0.00    -0.336 OA
ATOM      9  N   UNL     1      -0.459   0.824  -0.251  0.00  0.00    -0.190 NA
ATOM     10  N   UNL     1       0.189   1.238  -2.406  0.00  0.00    -0.056 NA
ATOM     20  C   UNL     1      -1.462   1.299  -0.945  0.00  0.00    +0.245 A 
ATOM     22  C   UNL     1       0.532   0.804  -1.189  0.00  0.00    +0.202 A 
ENDROOT
BRANCH  22  23
ATOM     23  C   UNL     1       1.855   0.346  -0.878  0.00  0.00    +0.023 A 
ATOM     24  C   UNL     1       2.156  -0.094   0.411  0.00  0.00    +0.015 A 
ATOM     25  C   UNL     1       2.841   0.342  -1.864  0.00  0.00    +0.015 A 
ATOM     26  C   UNL     1       3.443  -0.537   0.714  0.00  0.00    +0.046 A 
ATOM     27  C   UNL     1       4.128  -0.101  -1.562  0.00  0.00    +0.046 A 
ATOM     28  C   UNL     1       4.430  -0.541  -0.273  0.00  0.00    +0.130 A 
BRANCH  28   6
ATOM      6  O   UNL     1       5.686  -0.974   0.022  0.00  0.00    -0.406 OA
BRANCH   6  29
ATOM      1  F   UNL     1       7.731  -0.345   0.740  0.00  0.00    -0.133 F 
ATOM      2  F   UNL     1       6.055   1.008   1.101  0.00  0.00    -0.133 F 
ATOM      3  F   UNL     1       6.234  -0.877   2.240  0.00  0.00    -0.133 F 
ATOM     29  C   UNL     1       6.413  -0.291   1.037  0.00  0.00    +0.575 C 
ENDBRANCH   6  29
ENDBRANCH  28   6
ENDBRANCH  22  23
BRANCH  20  12
ATOM      7  N   UNL     1      -3.316   0.716   0.610  0.00  0.00    -0.286 NA
ATOM     12  C   UNL     1      -2.885   1.578  -0.509  0.00  0.00    +0.149 C 
ATOM     13  C   UNL     1      -4.302   1.485   1.368  0.00  0.00    +0.116 C 
ATOM     14  C   UNL     1      -3.079   3.017   0.004  0.00  0.00    +0.061 C 
ATOM     15  C   UNL     1      -3.665   2.861   1.402  0.00  0.00    +0.130 C 
BRANCH   7  11
ATOM      8  N   UNL     1      -3.679  -3.496   0.175  0.00  0.00    -0.305 NA
ATOM     11  C   UNL     1      -3.844  -0.574   0.173  0.00  0.00    +0.060 C 
ATOM     16  C   UNL     1      -4.258  -1.415   1.383  0.00  0.00    +0.034 C 
ATOM     17  C   UNL     1      -2.809  -1.335  -0.662  0.00  0.00    +0.034 C 
ATOM     18  C   UNL     1      -4.721  -2.809   0.951  0.00  0.00    +0.085 C 
ATOM     19  C   UNL     1      -3.319  -2.732  -1.027  0.00  0.00    +0.085 C 
ATOM     21  C   UNL     1      -4.116  -4.844  -0.187  0.00  0.00    +0.104 C 
ENDBRANCH   7  11
BRANCH  15   4
ATOM      4  O   UNL     1      -4.617   3.874   1.663  0.00  0.00    -0.390 OA
ATOM     30  H   UNL     1      -4.160   4.729   1.594  0.00  0.00    +0.210 HD
ENDBRANCH  15   4
ENDBRANCH  20  12
TORSDOF 6
