REMARK  Name = 7143702
REMARK  2 active torsions:
REMARK  status: ('A' for Active; 'I' for Inactive)
REMARK    1  A    between atoms: C_14  and  C_17
REMARK    2  A    between atoms: C_15  and  C_18
REMARK                            x       y       z     vdW  Elec       q    Type
REMARK                         _______ _______ _______ _____ _____    ______ ____
ROOT
ATOM      1  O   UNL     1      -0.659  -2.151   1.441  0.00  0.00    -0.267 OA
ATOM      2  O   UNL     1       3.090   1.157   2.471  0.00  0.00    -0.270 OA
ATOM      3  N   UNL     1       3.800  -0.108   0.636  0.00  0.00    -0.297 N 
ATOM      4  N   UNL     1       1.251  -1.902   0.126  0.00  0.00    -0.311 N 
ATOM      5  C   UNL     1       3.586  -2.565   0.949  0.00  0.00    +0.027 C 
ATOM      6  C   UNL     1       3.307  -1.589  -1.295  0.00  0.00    +0.054 C 
ATOM      7  C   UNL     1       3.894  -2.775  -0.530  0.00  0.00    +0.018 C 
ATOM      8  C   UNL     1       4.216  -1.251   1.447  0.00  0.00    +0.113 C 
ATOM      9  C   UNL     1       2.064  -2.585   1.143  0.00  0.00    +0.130 C 
ATOM     10  C   UNL     1       3.974  -0.283  -0.816  0.00  0.00    +0.117 C 
ATOM     11  C   UNL     1       1.807  -1.496  -1.090  0.00  0.00    +0.027 A 
ATOM     12  C   UNL     1       1.023  -0.986  -2.053  0.00  0.00    +0.022 A 
ATOM     13  C   UNL     1      -0.125  -1.774   0.396  0.00  0.00    +0.259 A 
ATOM     14  C   UNL     1       3.237   1.008   1.259  0.00  0.00    +0.247 C 
ATOM     15  C   UNL     1      -0.970  -1.155  -0.685  0.00  0.00    +0.047 A 
ATOM     16  C   UNL     1      -0.385  -0.810  -1.842  0.00  0.00    +0.015 A 
ENDROOT
BRANCH  15  18
ATOM     18  C   UNL     1      -2.408  -0.913  -0.483  0.00  0.00    -0.012 A 
ATOM     21  C   UNL     1      -2.843   0.295   0.065  0.00  0.00    +0.017 A 
ATOM     22  C   UNL     1      -3.336  -1.889  -0.839  0.00  0.00    +0.009 A 
ATOM     23  C   UNL     1      -4.212   0.542   0.263  0.00  0.00    -0.017 A 
ATOM     24  C   UNL     1      -4.699  -1.661  -0.649  0.00  0.00    +0.009 A 
ATOM     25  C   UNL     1      -5.153  -0.451  -0.099  0.00  0.00    -0.018 A 
ATOM     29  C   UNL     1      -4.666   1.751   0.813  0.00  0.00    +0.008 A 
ATOM     30  C   UNL     1      -6.521  -0.204   0.100  0.00  0.00    +0.008 A 
ATOM     31  C   UNL     1      -6.029   1.979   1.003  0.00  0.00    +0.001 A 
ATOM     32  C   UNL     1      -6.955   1.003   0.647  0.00  0.00    +0.001 A 
ENDBRANCH  15  18
BRANCH  14  17
ATOM     17  C   UNL     1       2.749   2.100   0.409  0.00  0.00    +0.037 A 
ATOM     19  C   UNL     1       1.430   2.092  -0.039  0.00  0.00    +0.013 A 
ATOM     20  C   UNL     1       3.606   3.139   0.055  0.00  0.00    +0.013 A 
ATOM     26  C   UNL     1       0.966   3.130  -0.847  0.00  0.00    +0.001 A 
ATOM     27  C   UNL     1       3.142   4.176  -0.753  0.00  0.00    +0.001 A 
ATOM     28  C   UNL     1       1.822   4.172  -1.204  0.00  0.00    +0.000 A 
ENDBRANCH  14  17
TORSDOF 2
