REMARK  Name = 28960045
REMARK  7 active torsions:
REMARK  status: ('A' for Active; 'I' for Inactive)
REMARK    1  A    between atoms: O_2  and  C_21
REMARK    2  A    between atoms: N_5  and  C_14
REMARK    3  A    between atoms: C_8  and  C_12
REMARK    4  A    between atoms: C_9  and  C_15
REMARK    5  A    between atoms: C_12  and  C_14
REMARK    6  A    between atoms: C_15  and  C_21
REMARK    7  A    between atoms: C_18  and  C_22
REMARK                            x       y       z     vdW  Elec       q    Type
REMARK                         _______ _______ _______ _____ _____    ______ ____
ROOT
ATOM      1  O   UNL     1      -3.816   2.395  -2.109  0.00  0.00    -0.270 OA
ATOM      4  N   UNL     1      -3.750   0.885  -0.323  0.00  0.00    -0.297 N 
ATOM      8  C   UNL     1      -2.577  -0.911   0.931  0.00  0.00    +0.011 C 
ATOM      9  C   UNL     1      -3.554  -1.936   0.300  0.00  0.00    +0.006 C 
ATOM     10  C   UNL     1      -3.241   0.476   0.994  0.00  0.00    +0.112 C 
ATOM     11  C   UNL     1      -4.095  -1.443  -1.053  0.00  0.00    +0.023 C 
ATOM     13  C   UNL     1      -4.699  -0.046  -0.931  0.00  0.00    +0.108 C 
ATOM     18  C   UNL     1      -3.397   2.052  -1.005  0.00  0.00    +0.247 C 
ENDROOT
BRANCH  18  22
ATOM     22  C   UNL     1      -2.442   2.963  -0.364  0.00  0.00    +0.037 A 
ATOM     24  C   UNL     1      -1.073   2.810  -0.588  0.00  0.00    +0.013 A 
ATOM     25  C   UNL     1      -2.903   3.981   0.470  0.00  0.00    +0.013 A 
ATOM     27  C   UNL     1      -0.166   3.677   0.022  0.00  0.00    +0.001 A 
ATOM     28  C   UNL     1      -1.996   4.848   1.079  0.00  0.00    +0.001 A 
ATOM     30  C   UNL     1      -0.627   4.696   0.855  0.00  0.00    +0.000 A 
ENDBRANCH  18  22
BRANCH   8  12
ATOM     12  C   UNL     1      -1.222  -0.822   0.217  0.00  0.00    +0.020 C 
BRANCH  12  14
ATOM     14  C   UNL     1      -0.138  -0.340   1.170  0.00  0.00    +0.085 C 
BRANCH  14   5
ATOM      5  N   UNL     1       1.139  -0.246   0.463  0.00  0.00    -0.299 NA
ATOM      6  N   UNL     1       3.970  -0.465   0.153  0.00  0.00    -0.313 N 
ATOM      7  N   UNL     1       5.920   0.538  -0.740  0.00  0.00    -0.240 NA
ATOM     16  C   UNL     1       1.777  -1.565   0.375  0.00  0.00    +0.103 C 
ATOM     17  C   UNL     1       2.035   0.698   1.142  0.00  0.00    +0.103 C 
ATOM     19  C   UNL     1       3.088  -1.490  -0.412  0.00  0.00    +0.122 C 
ATOM     20  C   UNL     1       3.354   0.849   0.380  0.00  0.00    +0.122 C 
ATOM     23  C   UNL     1       5.344  -0.510  -0.109  0.00  0.00    +0.121 A 
ATOM     26  C   UNL     1       6.031  -1.641   0.301  0.00  0.00    +0.043 A 
ATOM     29  C   UNL     1       7.396  -1.701   0.047  0.00  0.00    +0.005 A 
ATOM     31  C   UNL     1       7.249   0.444  -0.969  0.00  0.00    +0.113 A 
ATOM     32  C   UNL     1       8.025  -0.642  -0.599  0.00  0.00    +0.020 A 
ENDBRANCH  14   5
ENDBRANCH  12  14
ENDBRANCH   8  12
BRANCH   9  15
ATOM     15  C   UNL     1      -2.951  -3.334   0.161  0.00  0.00    +0.124 C 
BRANCH  15  21
ATOM      3  O   UNL     1      -5.225  -4.211   0.105  0.00  0.00    -0.251 OA
ATOM     21  C   UNL     1      -4.017  -4.392   0.077  0.00  0.00    +0.305 C 
BRANCH  21   2
ATOM      2  O   UNL     1      -3.439  -5.615  -0.039  0.00  0.00    -0.481 OA
ATOM     33  H   UNL     1      -4.107  -6.331  -0.097  0.00  0.00    +0.295 HD
ENDBRANCH  21   2
ENDBRANCH  15  21
ENDBRANCH   9  15
TORSDOF 7
