REMARK  Name = 75536623
REMARK  9 active torsions:
REMARK  status: ('A' for Active; 'I' for Inactive)
REMARK    1  A    between atoms: O_2  and  C_9
REMARK    2  A    between atoms: N_5  and  C_8
REMARK    3  A    between atoms: N_5  and  C_13
REMARK    4  A    between atoms: N_6  and  C_12
REMARK    5  A    between atoms: N_7  and  C_21
REMARK    6  A    between atoms: C_10  and  C_12
REMARK    7  A    between atoms: C_13  and  C_14
REMARK    8  A    between atoms: C_15  and  C_18
REMARK    9  A    between atoms: C_27  and  C_28
REMARK                            x       y       z     vdW  Elec       q    Type
REMARK                         _______ _______ _______ _____ _____    ______ ____
ROOT
ATOM      1  O   UNL     1       4.508   0.698   0.728  0.00  0.00    -0.371 OA
ATOM      8  C   UNL     1       3.399  -1.394   0.708  0.00  0.00    +0.111 C 
ATOM      9  C   UNL     1       3.995  -1.168  -0.670  0.00  0.00    +0.164 C 
ATOM     10  C   UNL     1       4.495   0.276  -0.648  0.00  0.00    +0.165 C 
ATOM     11  C   UNL     1       4.210  -0.430   1.559  0.00  0.00    +0.181 C 
ENDROOT
BRANCH   9   2
ATOM      2  O   UNL     1       5.113  -2.047  -0.811  0.00  0.00    -0.388 OA
ATOM     30  H   UNL     1       5.507  -1.878  -1.684  0.00  0.00    +0.210 HD
ENDBRANCH   9   2
BRANCH   8   5
ATOM      5  N   UNL     1       1.980  -1.048   0.746  0.00  0.00    -0.305 NA
ATOM     29  H   UNL     1       1.723  -0.785   1.697  0.00  0.00    +0.123 HD
BRANCH   5  13
ATOM     13  C   UNL     1       1.154  -2.180   0.341  0.00  0.00    +0.116 C 
BRANCH  13  14
ATOM     14  C   UNL     1      -0.312  -1.837   0.357  0.00  0.00    -0.033 A 
ATOM     16  C   UNL     1      -0.998  -1.765   1.570  0.00  0.00    +0.007 A 
ATOM     17  C   UNL     1      -0.985  -1.594  -0.840  0.00  0.00    +0.007 A 
ATOM     19  C   UNL     1      -2.356  -1.448   1.585  0.00  0.00    +0.023 A 
ATOM     20  C   UNL     1      -2.343  -1.277  -0.825  0.00  0.00    +0.023 A 
ATOM     21  C   UNL     1      -3.029  -1.204   0.388  0.00  0.00    +0.033 A 
BRANCH  21   7
ATOM      4  O   UNL     1      -4.921  -0.601  -1.876  0.00  0.00    -0.276 OA
ATOM      7  N   UNL     1      -4.388  -0.887   0.403  0.00  0.00    -0.286 N 
ATOM     27  C   UNL     1      -5.224  -0.612  -0.687  0.00  0.00    +0.214 C 
ATOM     28  C   UNL     1      -6.635  -0.313  -0.247  0.00  0.00    +0.109 C 
ATOM     32  H   UNL     1      -4.815  -0.852   1.326  0.00  0.00    +0.155 HD
ENDBRANCH  21   7
ENDBRANCH  13  14
ENDBRANCH   5  13
ENDBRANCH   8   5
BRANCH  10  12
ATOM     12  C   UNL     1       3.614   1.236  -1.434  0.00  0.00    +0.138 C 
BRANCH  12   6
ATOM      3  O   UNL     1       0.872   0.807  -2.168  0.00  0.00    -0.270 OA
ATOM      6  N   UNL     1       2.455   1.617  -0.679  0.00  0.00    -0.309 N 
ATOM     15  C   UNL     1       1.157   1.369  -1.114  0.00  0.00    +0.244 C 
ATOM     31  H   UNL     1       2.619   2.159   0.163  0.00  0.00    +0.149 HD
BRANCH  15  18
ATOM     18  C   UNL     1       0.065   1.850  -0.229  0.00  0.00    +0.037 A 
ATOM     22  C   UNL     1      -1.181   2.168  -0.768  0.00  0.00    +0.013 A 
ATOM     23  C   UNL     1       0.286   1.982   1.142  0.00  0.00    +0.013 A 
ATOM     24  C   UNL     1      -2.207   2.619   0.063  0.00  0.00    +0.001 A 
ATOM     25  C   UNL     1      -0.739   2.432   1.973  0.00  0.00    +0.001 A 
ATOM     26  C   UNL     1      -1.986   2.751   1.434  0.00  0.00    +0.000 A 
ENDBRANCH  15  18
ENDBRANCH  12   6
ENDBRANCH  10  12
TORSDOF 8
