REMARK  Name = 75367089
REMARK  6 active torsions:
REMARK  status: ('A' for Active; 'I' for Inactive)
REMARK    1  A    between atoms: O_3  and  C_9
REMARK    2  A    between atoms: N_5  and  C_8
REMARK    3  A    between atoms: N_5  and  C_10
REMARK    4  A    between atoms: N_7  and  C_17
REMARK    5  A    between atoms: C_11  and  C_17
REMARK    6  A    between atoms: C_18  and  C_19
REMARK                            x       y       z     vdW  Elec       q    Type
REMARK                         _______ _______ _______ _____ _____    ______ ____
ROOT
ATOM      2  O   UNL     1      -0.408   0.439  -0.910  0.00  0.00    -0.371 OA
ATOM      8  C   UNL     1      -2.534  -0.333  -0.183  0.00  0.00    +0.111 C 
ATOM      9  C   UNL     1      -1.587  -1.515  -0.286  0.00  0.00    +0.164 C 
ATOM     11  C   UNL     1      -0.236  -0.814  -0.227  0.00  0.00    +0.165 C 
ATOM     12  C   UNL     1      -1.817   0.702  -1.034  0.00  0.00    +0.181 C 
ENDROOT
BRANCH   9   3
ATOM      3  O   UNL     1      -1.749  -2.438   0.773  0.00  0.00    -0.388 OA
ATOM     27  H   UNL     1      -1.634  -1.963   1.613  0.00  0.00    +0.210 HD
ENDBRANCH   9   3
BRANCH   8   5
ATOM      5  N   UNL     1      -3.879  -0.620  -0.653  0.00  0.00    -0.306 NA
ATOM     25  H   UNL     1      -4.185  -1.529  -0.307  0.00  0.00    +0.123 HD
BRANCH   5  10
ATOM      6  N   UNL     1      -7.452   1.163   0.815  0.00  0.00    -0.316 NA
ATOM     10  C   UNL     1      -4.813   0.415  -0.217  0.00  0.00    +0.056 C 
ATOM     13  C   UNL     1      -5.199   0.222   1.254  0.00  0.00    +0.034 C 
ATOM     14  C   UNL     1      -6.067   0.404  -1.097  0.00  0.00    +0.034 C 
ATOM     15  C   UNL     1      -6.266   1.234   1.673  0.00  0.00    +0.082 C 
ATOM     16  C   UNL     1      -7.100   1.408  -0.586  0.00  0.00    +0.082 C 
ATOM     26  H   UNL     1      -8.129   1.862   1.119  0.00  0.00    +0.122 HD
ENDBRANCH   5  10
ENDBRANCH   8   5
BRANCH  11  17
ATOM     17  C   UNL     1       0.880  -1.607  -0.883  0.00  0.00    +0.138 C 
BRANCH  17   7
ATOM      4  O   UNL     1       2.827  -1.799   1.219  0.00  0.00    -0.270 OA
ATOM      7  N   UNL     1       2.131  -0.908  -0.807  0.00  0.00    -0.309 N 
ATOM     18  C   UNL     1       3.017  -1.063   0.254  0.00  0.00    +0.244 C 
ATOM     28  H   UNL     1       2.317  -0.231  -1.538  0.00  0.00    +0.149 HD
BRANCH  18  19
ATOM      1  F   UNL     1       7.708   2.014   0.037  0.00  0.00    -0.205 F 
ATOM     19  C   UNL     1       4.258  -0.248   0.197  0.00  0.00    +0.037 A 
ATOM     20  C   UNL     1       4.910   0.114   1.376  0.00  0.00    +0.016 A 
ATOM     21  C   UNL     1       4.773   0.154  -1.036  0.00  0.00    +0.016 A 
ATOM     22  C   UNL     1       6.075   0.879   1.322  0.00  0.00    +0.039 A 
ATOM     23  C   UNL     1       5.938   0.918  -1.089  0.00  0.00    +0.039 A 
ATOM     24  C   UNL     1       6.589   1.281   0.090  0.00  0.00    +0.123 A 
ENDBRANCH  18  19
ENDBRANCH  17   7
ENDBRANCH  11  17
TORSDOF 6
