REMARK  Name = 40780140
REMARK  7 active torsions:
REMARK  status: ('A' for Active; 'I' for Inactive)
REMARK    1  A    between atoms: N_3  and  C_24
REMARK    2  A    between atoms: N_4  and  C_16
REMARK    3  A    between atoms: N_6  and  C_26
REMARK    4  A    between atoms: C_9  and  C_15
REMARK    5  A    between atoms: C_10  and  C_16
REMARK    6  A    between atoms: C_18  and  C_19
REMARK    7  A    between atoms: C_29  and  C_32
REMARK                            x       y       z     vdW  Elec       q    Type
REMARK                         _______ _______ _______ _____ _____    ______ ____
ROOT
ATOM      2  N   UNL     1       3.226   2.947  -0.715  0.00  0.00    -0.297 NA
ATOM      8  C   UNL     1       3.101   1.496   1.444  0.00  0.00    +0.002 C 
ATOM      9  C   UNL     1       3.745   0.689   0.283  0.00  0.00    +0.055 C 
ATOM     10  C   UNL     1       1.854   3.000  -0.146  0.00  0.00    +0.074 C 
ATOM     11  C   UNL     1       1.704   1.988   1.010  0.00  0.00    +0.024 C 
ATOM     12  C   UNL     1       3.601   1.542  -1.010  0.00  0.00    +0.094 C 
ATOM     13  C   UNL     1       3.977   2.750   1.655  0.00  0.00    +0.019 C 
ATOM     14  C   UNL     1       4.163   3.471   0.308  0.00  0.00    +0.085 C 
ENDROOT
BRANCH   9  15
ATOM      3  N   UNL     1       4.122  -1.719  -0.426  0.00  0.00    -0.271 N 
ATOM      5  N   UNL     1       3.539  -2.925  -0.529  0.00  0.00    -0.176 NA
ATOM     15  C   UNL     1       3.301  -0.752   0.077  0.00  0.00    +0.044 A 
ATOM     17  C   UNL     1       2.099  -1.369   0.320  0.00  0.00    +0.048 A 
ATOM     19  C   UNL     1       2.304  -2.706  -0.072  0.00  0.00    +0.066 A 
ATOM     24  C   UNL     1       5.497  -1.562  -0.839  0.00  0.00    +0.172 C 
BRANCH  19  18
ATOM     18  C   UNL     1       1.308  -3.843  -0.022  0.00  0.00    +0.040 C 
ATOM     20  C   UNL     1       0.817  -4.135   1.407  0.00  0.00    +0.010 C 
ATOM     21  C   UNL     1       0.034  -3.616  -0.862  0.00  0.00    +0.010 C 
ATOM     22  C   UNL     1      -0.640  -4.537   1.241  0.00  0.00    +0.001 C 
ATOM     23  C   UNL     1      -1.123  -3.622   0.130  0.00  0.00    +0.001 C 
ENDBRANCH  19  18
ENDBRANCH   9  15
BRANCH  10  16
ATOM     16  C   UNL     1       0.773   2.811  -1.213  0.00  0.00    +0.124 C 
BRANCH  16   4
ATOM      1  O   UNL     1      -1.333   0.870  -1.151  0.00  0.00    -0.253 OA
ATOM      4  N   UNL     1      -0.532   2.983  -0.654  0.00  0.00    -0.298 N 
ATOM      6  N   UNL     1      -2.689   2.434  -0.045  0.00  0.00    -0.269 N 
ATOM     25  C   UNL     1      -1.519   1.981  -0.660  0.00  0.00    +0.304 C 
ATOM     33  H   UNL     1      -0.774   3.892  -0.272  0.00  0.00    +0.150 HD
ATOM     34  H   UNL     1      -2.678   3.386   0.312  0.00  0.00    +0.156 HD
BRANCH   6  26
ATOM     26  C   UNL     1      -3.900   1.727   0.146  0.00  0.00    +0.036 A 
ATOM     27  C   UNL     1      -4.019   0.412  -0.306  0.00  0.00    +0.042 A 
ATOM     28  C   UNL     1      -4.974   2.344   0.785  0.00  0.00    +0.023 A 
ATOM     29  C   UNL     1      -5.212  -0.285  -0.117  0.00  0.00    +0.054 A 
ATOM     30  C   UNL     1      -6.168   1.647   0.974  0.00  0.00    +0.003 A 
ATOM     31  C   UNL     1      -6.287   0.333   0.523  0.00  0.00    +0.019 A 
BRANCH  29  32
ATOM      7  N   UNL     1      -5.434  -2.725  -0.955  0.00  0.00    -0.191 NA
ATOM     32  C   UNL     1      -5.335  -1.631  -0.580  0.00  0.00    +0.099 C 
ENDBRANCH  29  32
ENDBRANCH   6  26
ENDBRANCH  16   4
ENDBRANCH  10  16
TORSDOF 6
