REMARK  Name = 75536106
REMARK  9 active torsions:
REMARK  status: ('A' for Active; 'I' for Inactive)
REMARK    1  A    between atoms: O_1  and  C_8
REMARK    2  A    between atoms: O_2  and  C_10
REMARK    3  A    between atoms: O_3  and  C_21
REMARK    4  A    between atoms: O_3  and  C_27
REMARK    5  A    between atoms: N_4  and  C_6
REMARK    6  A    between atoms: N_4  and  C_12
REMARK    7  A    between atoms: N_5  and  C_24
REMARK    8  A    between atoms: C_7  and  C_11
REMARK    9  A    between atoms: C_12  and  C_15
REMARK                            x       y       z     vdW  Elec       q    Type
REMARK                         _______ _______ _______ _____ _____    ______ ____
ROOT
ATOM      6  C   UNL     1       0.848   1.605  -0.679  0.00  0.00    +0.092 C 
ATOM      7  C   UNL     1       1.536   1.030   0.598  0.00  0.00    +0.041 C 
ATOM      8  C   UNL     1       1.121   3.117  -0.636  0.00  0.00    +0.160 C 
ATOM      9  C   UNL     1       2.157   2.240   1.322  0.00  0.00    +0.043 C 
ATOM     10  C   UNL     1       1.313   3.415   0.848  0.00  0.00    +0.145 C 
ENDROOT
BRANCH   7  11
ATOM     11  C   UNL     1       2.533  -0.074   0.318  0.00  0.00    -0.042 A 
ATOM     13  C   UNL     1       3.628   0.170  -0.511  0.00  0.00    +0.007 A 
ATOM     14  C   UNL     1       2.356  -1.335   0.888  0.00  0.00    +0.007 A 
ATOM     17  C   UNL     1       4.547  -0.847  -0.769  0.00  0.00    +0.046 A 
ATOM     18  C   UNL     1       3.275  -2.352   0.629  0.00  0.00    +0.046 A 
ATOM     21  C   UNL     1       4.371  -2.108  -0.199  0.00  0.00    +0.120 A 
BRANCH  21   3
ATOM      3  O   UNL     1       5.267  -3.100  -0.452  0.00  0.00    -0.495 OA
ATOM     27  C   UNL     1       5.025  -4.365   0.163  0.00  0.00    +0.277 C 
ENDBRANCH  21   3
ENDBRANCH   7  11
BRANCH   8   1
ATOM      1  O   UNL     1       2.321   3.377  -1.363  0.00  0.00    -0.388 OA
ATOM     29  H   UNL     1       2.151   3.159  -2.295  0.00  0.00    +0.210 HD
ENDBRANCH   8   1
BRANCH  10   2
ATOM      2  O   UNL     1       1.968   4.646   1.076  0.00  0.00    -0.389 OA
ATOM     30  H   UNL     1       2.132   4.717   2.031  0.00  0.00    +0.210 HD
ENDBRANCH  10   2
BRANCH   6   4
ATOM      4  N   UNL     1      -0.594   1.358  -0.613  0.00  0.00    -0.306 NA
ATOM     28  H   UNL     1      -1.073   1.989  -1.256  0.00  0.00    +0.123 HD
BRANCH   4  12
ATOM     12  C   UNL     1      -0.904  -0.013  -0.992  0.00  0.00    +0.118 C 
BRANCH  12  15
ATOM      5  N   UNL     1      -4.489  -0.649  -1.521  0.00  0.00    -0.349 N 
ATOM     15  C   UNL     1      -2.381  -0.294  -0.923  0.00  0.00    -0.008 A 
ATOM     16  C   UNL     1      -3.147  -0.517   0.256  0.00  0.00    +0.004 A 
ATOM     19  C   UNL     1      -3.234  -0.382  -1.999  0.00  0.00    +0.091 A 
ATOM     20  C   UNL     1      -4.466  -0.737  -0.147  0.00  0.00    +0.049 A 
ATOM     22  C   UNL     1      -2.844  -0.552   1.631  0.00  0.00    +0.010 A 
ATOM     23  C   UNL     1      -5.500  -0.992   0.760  0.00  0.00    +0.026 A 
ATOM     24  C   UNL     1      -5.661  -0.813  -2.354  0.00  0.00    +0.149 C 
ATOM     25  C   UNL     1      -3.869  -0.806   2.550  0.00  0.00    +0.001 A 
ATOM     26  C   UNL     1      -5.176  -1.022   2.119  0.00  0.00    +0.002 A 
ENDBRANCH  12  15
ENDBRANCH   4  12
ENDBRANCH   6   4
TORSDOF 7
