REMARK  Name = 75536839
REMARK  6 active torsions:
REMARK  status: ('A' for Active; 'I' for Inactive)
REMARK    1  A    between atoms: O_2  and  C_10
REMARK    2  A    between atoms: N_5  and  C_9
REMARK    3  A    between atoms: N_5  and  C_14
REMARK    4  A    between atoms: N_6  and  C_13
REMARK    5  A    between atoms: C_11  and  C_13
REMARK    6  A    between atoms: C_14  and  C_18
REMARK                            x       y       z     vdW  Elec       q    Type
REMARK                         _______ _______ _______ _____ _____    ______ ____
ROOT
ATOM      1  O   UNL     1      -0.372   0.976  -0.167  0.00  0.00    -0.371 OA
ATOM      9  C   UNL     1       1.675  -0.218  -0.325  0.00  0.00    +0.111 C 
ATOM     10  C   UNL     1       0.736  -0.967   0.603  0.00  0.00    +0.164 C 
ATOM     11  C   UNL     1      -0.611  -0.399   0.177  0.00  0.00    +0.165 C 
ATOM     12  C   UNL     1       1.043   1.164  -0.342  0.00  0.00    +0.181 C 
ENDROOT
BRANCH  10   2
ATOM      2  O   UNL     1       0.797  -2.369   0.427  0.00  0.00    -0.388 OA
ATOM     27  H   UNL     1       0.608  -2.568  -0.505  0.00  0.00    +0.210 HD
ENDBRANCH  10   2
BRANCH   9   5
ATOM      5  N   UNL     1       3.056  -0.204   0.129  0.00  0.00    -0.305 NA
ATOM     25  H   UNL     1       3.318  -1.144   0.428  0.00  0.00    +0.123 HD
BRANCH   5  14
ATOM     14  C   UNL     1       3.955   0.219  -0.937  0.00  0.00    +0.116 C 
BRANCH  14  18
ATOM      8  N   UNL     1       8.052   0.324   0.369  0.00  0.00    -0.263 NA
ATOM     18  C   UNL     1       5.389   0.256  -0.479  0.00  0.00    -0.031 A 
ATOM     21  C   UNL     1       5.840   1.300   0.321  0.00  0.00    +0.024 A 
ATOM     22  C   UNL     1       6.268  -0.754  -0.856  0.00  0.00    +0.024 A 
ATOM     23  C   UNL     1       7.169   1.288   0.715  0.00  0.00    +0.111 A 
ATOM     24  C   UNL     1       7.577  -0.674  -0.409  0.00  0.00    +0.111 A 
ENDBRANCH  14  18
ENDBRANCH   5  14
ENDBRANCH   9   5
BRANCH  11  13
ATOM     13  C   UNL     1      -1.668  -0.480   1.265  0.00  0.00    +0.140 C 
BRANCH  13   6
ATOM      3  O   UNL     1      -7.668   1.056  -0.419  0.00  0.00    -0.377 OA
ATOM      4  O   UNL     1      -3.730  -1.912  -0.007  0.00  0.00    -0.253 OA
ATOM      6  N   UNL     1      -2.928   0.072   0.820  0.00  0.00    -0.297 N 
ATOM      7  N   UNL     1      -5.066  -0.024  -0.182  0.00  0.00    -0.281 N 
ATOM     15  C   UNL     1      -3.898  -0.705   0.198  0.00  0.00    +0.302 C 
ATOM     16  C   UNL     1      -6.139  -0.764  -0.851  0.00  0.00    +0.137 C 
ATOM     17  C   UNL     1      -5.284   1.429  -0.114  0.00  0.00    +0.137 C 
ATOM     19  C   UNL     1      -7.501  -0.358  -0.310  0.00  0.00    +0.179 C 
ATOM     20  C   UNL     1      -6.696   1.743   0.371  0.00  0.00    +0.179 C 
ATOM     26  H   UNL     1      -3.056   1.062   0.972  0.00  0.00    +0.150 HD
ENDBRANCH  13   6
ENDBRANCH  11  13
TORSDOF 6
