REMARK  Name = 56775817
REMARK  9 active torsions:
REMARK  status: ('A' for Active; 'I' for Inactive)
REMARK    1  A    between atoms: O_4  and  C_16
REMARK    2  A    between atoms: O_4  and  C_22
REMARK    3  A    between atoms: O_5  and  C_23
REMARK    4  A    between atoms: O_5  and  C_24
REMARK    5  A    between atoms: N_6  and  C_8
REMARK    6  A    between atoms: C_8  and  C_11
REMARK    7  A    between atoms: C_11  and  C_12
REMARK    8  A    between atoms: C_13  and  C_16
REMARK    9  A    between atoms: C_15  and  C_17
REMARK                            x       y       z     vdW  Elec       q    Type
REMARK                         _______ _______ _______ _____ _____    ______ ____
ROOT
ATOM      2  O   UNL     1       1.017   2.344  -0.139  0.00  0.00    -0.354 OA
ATOM      7  N   UNL     1      -0.320   2.642  -0.374  0.00  0.00    -0.083 NA
ATOM     12  C   UNL     1      -0.873   1.484  -0.743  0.00  0.00    +0.086 A 
ATOM     14  C   UNL     1       0.057   0.429  -0.758  0.00  0.00    +0.076 A 
ATOM     15  C   UNL     1       1.229   1.023  -0.371  0.00  0.00    +0.167 A 
ENDROOT
BRANCH  15  17
ATOM     17  C   UNL     1       2.571   0.563  -0.167  0.00  0.00    +0.020 A 
ATOM     18  C   UNL     1       3.561   1.458   0.241  0.00  0.00    +0.015 A 
ATOM     19  C   UNL     1       2.889  -0.779  -0.378  0.00  0.00    +0.015 A 
ATOM     20  C   UNL     1       4.867   1.010   0.440  0.00  0.00    +0.046 A 
ATOM     21  C   UNL     1       4.195  -1.226  -0.179  0.00  0.00    +0.046 A 
ATOM     23  C   UNL     1       5.184  -0.332   0.229  0.00  0.00    +0.120 A 
BRANCH  23   5
ATOM      5  O   UNL     1       6.459  -0.767   0.420  0.00  0.00    -0.495 OA
ATOM     24  C   UNL     1       6.714  -2.151   0.183  0.00  0.00    +0.277 C 
ENDBRANCH  23   5
ENDBRANCH  15  17
BRANCH  12  11
ATOM     11  C   UNL     1      -2.345   1.424  -1.083  0.00  0.00    +0.089 C 
BRANCH  11   8
ATOM      1  O   UNL     1      -4.479   2.521   1.067  0.00  0.00    -0.375 OA
ATOM      8  C   UNL     1      -3.160   1.118   0.145  0.00  0.00    +0.086 C 
ATOM      9  C   UNL     1      -3.093   2.157   1.259  0.00  0.00    +0.188 C 
ATOM     10  C   UNL     1      -4.637   1.488   0.068  0.00  0.00    +0.188 C 
BRANCH   8   6
ATOM      3  O   UNL     1      -4.042  -1.323  -1.138  0.00  0.00    -0.273 OA
ATOM      6  N   UNL     1      -2.902  -0.264   0.586  0.00  0.00    -0.303 N 
ATOM     13  C   UNL     1      -3.375  -1.369  -0.108  0.00  0.00    +0.239 C 
ATOM     25  H   UNL     1      -2.349  -0.428   1.424  0.00  0.00    +0.149 HD
BRANCH  13  16
ATOM     16  C   UNL     1      -2.971  -2.668   0.556  0.00  0.00    +0.255 C 
BRANCH  16   4
ATOM      4  O   UNL     1      -3.454  -3.772  -0.179  0.00  0.00    -0.374 OA
ATOM     22  C   UNL     1      -3.089  -5.011   0.423  0.00  0.00    +0.194 C 
ENDBRANCH  16   4
ENDBRANCH  13  16
ENDBRANCH   8   6
ENDBRANCH  11   8
ENDBRANCH  12  11
TORSDOF 7
