REMARK  Name = 28963137
REMARK  10 active torsions:
REMARK  status: ('A' for Active; 'I' for Inactive)
REMARK    1  A    between atoms: O_1  and  C_10
REMARK    2  A    between atoms: N_4  and  C_14
REMARK    3  A    between atoms: N_5  and  C_23
REMARK    4  A    between atoms: N_6  and  C_29
REMARK    5  A    between atoms: C_7  and  C_17
REMARK    6  A    between atoms: C_9  and  C_19
REMARK    7  A    between atoms: C_12  and  C_18
REMARK    8  A    between atoms: C_18  and  C_20
REMARK    9  A    between atoms: C_18  and  C_21
REMARK   10  A    between atoms: C_29  and  C_30
REMARK                            x       y       z     vdW  Elec       q    Type
REMARK                         _______ _______ _______ _____ _____    ______ ____
ROOT
ATOM      7  C   UNL     1       0.723   0.730   1.506  0.00  0.00    -0.027 C 
ATOM      8  C   UNL     1       0.877   0.482  -0.032  0.00  0.00    +0.028 C 
ATOM      9  C   UNL     1       2.351   0.763  -0.499  0.00  0.00    +0.012 C 
ATOM     10  C   UNL     1      -0.231   1.222  -0.836  0.00  0.00    +0.122 C 
ATOM     11  C   UNL     1      -0.705   0.336   1.951  0.00  0.00    +0.007 C 
ATOM     12  C   UNL     1      -1.653   0.905  -0.318  0.00  0.00    +0.029 C 
ATOM     13  C   UNL     1       1.719  -0.177   2.264  0.00  0.00    +0.009 C 
ATOM     14  C   UNL     1       3.349  -0.100   0.323  0.00  0.00    +0.078 C 
ATOM     15  C   UNL     1      -1.792   1.088   1.193  0.00  0.00    +0.007 C 
ATOM     16  C   UNL     1       3.164   0.031   1.835  0.00  0.00    +0.023 C 
ATOM     17  C   UNL     1       0.978   2.207   1.898  0.00  0.00    +0.011 C 
ATOM     19  C   UNL     1       2.580   0.511  -1.999  0.00  0.00    +0.010 C 
ENDROOT
BRANCH  14   4
ATOM      3  O   UNL     1       5.602  -1.904   0.343  0.00  0.00    -0.253 OA
ATOM      4  N   UNL     1       4.724   0.218   0.000  0.00  0.00    -0.296 N 
ATOM      6  N   UNL     1       6.968  -0.149  -0.318  0.00  0.00    -0.300 N 
ATOM     22  C   UNL     1       5.749  -0.721   0.037  0.00  0.00    +0.300 C 
ATOM     31  H   UNL     1       4.965   1.187  -0.186  0.00  0.00    +0.151 HD
ATOM     34  H   UNL     1       6.992   0.835  -0.568  0.00  0.00    +0.150 HD
BRANCH   6  29
ATOM     29  C   UNL     1       8.201  -0.899  -0.363  0.00  0.00    +0.102 C 
ATOM     30  C   UNL     1       8.315  -1.703  -1.641  0.00  0.00    +0.024 C 
ENDBRANCH   6  29
ENDBRANCH  14   4
BRANCH  10   1
ATOM      1  O   UNL     1      -0.190   0.803  -2.201  0.00  0.00    -0.391 OA
ATOM     32  H   UNL     1      -0.338  -0.158  -2.227  0.00  0.00    +0.210 HD
ENDBRANCH  10   1
BRANCH  12  18
ATOM     18  C   UNL     1      -2.720   1.742  -1.035  0.00  0.00    +0.077 C 
ATOM     20  C   UNL     1      -2.449   3.228  -0.826  0.00  0.00    +0.017 C 
BRANCH  18  21
ATOM      2  O   UNL     1      -4.878   2.160  -0.020  0.00  0.00    -0.276 OA
ATOM      5  N   UNL     1      -4.386   0.008  -0.732  0.00  0.00    -0.312 N 
ATOM     21  C   UNL     1      -4.108   1.353  -0.536  0.00  0.00    +0.216 C 
ATOM     33  H   UNL     1      -3.697  -0.583  -1.186  0.00  0.00    +0.149 HD
BRANCH   5  23
ATOM     23  C   UNL     1      -5.639  -0.597  -0.339  0.00  0.00    +0.073 C 
ATOM     24  C   UNL     1      -6.022  -1.737  -1.289  0.00  0.00    +0.022 C 
ATOM     25  C   UNL     1      -5.586  -1.080   1.114  0.00  0.00    +0.022 C 
ATOM     26  C   UNL     1      -5.136  -2.970  -1.111  0.00  0.00    +0.002 C 
ATOM     27  C   UNL     1      -4.701  -2.314   1.289  0.00  0.00    +0.002 C 
ATOM     28  C   UNL     1      -5.108  -3.438   0.341  0.00  0.00    +0.000 C 
ENDBRANCH   5  23
ENDBRANCH  18  21
ENDBRANCH  12  18
TORSDOF 6
