REMARK  Name = 56775474
REMARK  8 active torsions:
REMARK  status: ('A' for Active; 'I' for Inactive)
REMARK    1  A    between atoms: O_4  and  C_21
REMARK    2  A    between atoms: O_4  and  C_27
REMARK    3  A    between atoms: N_5  and  C_7
REMARK    4  A    between atoms: N_5  and  C_11
REMARK    5  A    between atoms: C_7  and  C_10
REMARK    6  A    between atoms: C_10  and  C_12
REMARK    7  A    between atoms: C_11  and  C_13
REMARK    8  A    between atoms: C_15  and  C_18
REMARK                            x       y       z     vdW  Elec       q    Type
REMARK                         _______ _______ _______ _____ _____    ______ ____
ROOT
ATOM      2  O   UNL     1      -1.766  -4.265   1.258  0.00  0.00    -0.376 OA
ATOM      7  C   UNL     1      -0.998  -2.702   0.024  0.00  0.00    +0.072 C 
ATOM      8  C   UNL     1      -2.144  -3.706  -0.021  0.00  0.00    +0.184 C 
ATOM      9  C   UNL     1      -0.606  -3.404   1.319  0.00  0.00    +0.184 C 
ENDROOT
BRANCH   7   5
ATOM      5  N   UNL     1      -1.539  -1.389   0.348  0.00  0.00    -0.302 NA
ATOM     28  H   UNL     1      -0.871  -0.733   0.752  0.00  0.00    +0.123 HD
BRANCH   5  11
ATOM     11  C   UNL     1      -2.151  -0.799  -0.841  0.00  0.00    +0.117 C 
BRANCH  11  13
ATOM     13  C   UNL     1      -3.208   0.211  -0.484  0.00  0.00    -0.033 A 
ATOM     16  C   UNL     1      -4.461  -0.215  -0.044  0.00  0.00    +0.008 A 
ATOM     17  C   UNL     1      -2.934   1.575  -0.594  0.00  0.00    +0.008 A 
ATOM     19  C   UNL     1      -5.440   0.722   0.287  0.00  0.00    +0.046 A 
ATOM     20  C   UNL     1      -3.913   2.512  -0.263  0.00  0.00    +0.046 A 
ATOM     21  C   UNL     1      -5.166   2.085   0.177  0.00  0.00    +0.120 A 
BRANCH  21   4
ATOM      4  O   UNL     1      -6.121   2.999   0.500  0.00  0.00    -0.495 OA
ATOM     27  C   UNL     1      -5.774   4.377   0.365  0.00  0.00    +0.277 C 
ENDBRANCH  21   4
ENDBRANCH  11  13
ENDBRANCH   5  11
ENDBRANCH   7   5
BRANCH   7  10
ATOM     10  C   UNL     1       0.005  -2.666  -1.137  0.00  0.00    +0.085 C 
BRANCH  10  12
ATOM      3  O   UNL     1       3.269  -1.831   0.048  0.00  0.00    -0.354 OA
ATOM      6  N   UNL     1       2.254  -2.742  -0.216  0.00  0.00    -0.083 NA
ATOM     12  C   UNL     1       1.261  -2.014  -0.734  0.00  0.00    +0.086 A 
ATOM     14  C   UNL     1       1.589  -0.649  -0.819  0.00  0.00    +0.076 A 
ATOM     15  C   UNL     1       2.861  -0.588  -0.315  0.00  0.00    +0.167 A 
BRANCH  15  18
ATOM      1  F   UNL     1       6.550   3.505   0.509  0.00  0.00    -0.205 F 
ATOM     18  C   UNL     1       3.815   0.472  -0.101  0.00  0.00    +0.020 A 
ATOM     22  C   UNL     1       3.490   1.784  -0.444  0.00  0.00    +0.014 A 
ATOM     23  C   UNL     1       5.065   0.185   0.450  0.00  0.00    +0.014 A 
ATOM     24  C   UNL     1       4.413   2.809  -0.238  0.00  0.00    +0.039 A 
ATOM     25  C   UNL     1       5.988   1.210   0.655  0.00  0.00    +0.039 A 
ATOM     26  C   UNL     1       5.663   2.522   0.311  0.00  0.00    +0.123 A 
ENDBRANCH  15  18
ENDBRANCH  10  12
ENDBRANCH   7  10
TORSDOF 7
