REMARK  Name = 75536608
REMARK  8 active torsions:
REMARK  status: ('A' for Active; 'I' for Inactive)
REMARK    1  A    between atoms: O_3  and  C_10
REMARK    2  A    between atoms: N_5  and  C_9
REMARK    3  A    between atoms: N_5  and  C_14
REMARK    4  A    between atoms: N_6  and  C_13
REMARK    5  A    between atoms: N_7  and  C_18
REMARK    6  A    between atoms: C_11  and  C_13
REMARK    7  A    between atoms: C_14  and  C_15
REMARK    8  A    between atoms: C_16  and  C_20
REMARK                            x       y       z     vdW  Elec       q    Type
REMARK                         _______ _______ _______ _____ _____    ______ ____
ROOT
ATOM      2  O   UNL     1       0.540   0.905   0.059  0.00  0.00    -0.371 OA
ATOM      9  C   UNL     1      -1.466  -0.335   0.340  0.00  0.00    +0.111 C 
ATOM     10  C   UNL     1      -0.532  -1.105  -0.574  0.00  0.00    +0.164 C 
ATOM     11  C   UNL     1       0.810  -0.479  -0.218  0.00  0.00    +0.165 C 
ATOM     12  C   UNL     1      -0.875   1.063   0.265  0.00  0.00    +0.181 C 
ENDROOT
BRANCH  10   3
ATOM      3  O   UNL     1      -0.547  -2.497  -0.322  0.00  0.00    -0.388 OA
ATOM     25  H   UNL     1      -0.326  -2.641   0.613  0.00  0.00    +0.210 HD
ENDBRANCH  10   3
BRANCH   9   5
ATOM      5  N   UNL     1      -2.859  -0.383  -0.073  0.00  0.00    -0.302 NA
ATOM     24  H   UNL     1      -3.102  -1.344  -0.316  0.00  0.00    +0.123 HD
BRANCH   5  14
ATOM     14  C   UNL     1      -3.740   0.072   0.995  0.00  0.00    +0.156 C 
BRANCH  14  15
ATOM      7  N   UNL     1      -5.726   0.992  -0.246  0.00  0.00    -0.336 N 
ATOM      8  N   UNL     1      -6.077  -0.854   0.937  0.00  0.00    -0.239 NA
ATOM     15  C   UNL     1      -5.187   0.044   0.578  0.00  0.00    +0.123 A 
ATOM     17  C   UNL     1      -7.043   0.679  -0.425  0.00  0.00    +0.106 A 
ATOM     18  C   UNL     1      -5.043   2.123  -0.830  0.00  0.00    +0.150 C 
ATOM     19  C   UNL     1      -7.237  -0.464   0.315  0.00  0.00    +0.130 A 
ENDBRANCH  14  15
ENDBRANCH   5  14
ENDBRANCH   9   5
BRANCH  11  13
ATOM     13  C   UNL     1       1.837  -0.589  -1.331  0.00  0.00    +0.138 C 
BRANCH  13   6
ATOM      4  O   UNL     1       4.043  -1.875  -0.017  0.00  0.00    -0.270 OA
ATOM      6  N   UNL     1       3.082   0.018  -0.953  0.00  0.00    -0.308 N 
ATOM     16  C   UNL     1       4.100  -0.685  -0.317  0.00  0.00    +0.251 C 
ATOM     26  H   UNL     1       3.193   1.005  -1.157  0.00  0.00    +0.149 HD
BRANCH  16  20
ATOM      1  S   UNL     1       6.616  -0.699   0.817  0.00  0.00    -0.092 S 
ATOM     20  C   UNL     1       5.316   0.093   0.032  0.00  0.00    +0.074 A 
ATOM     21  C   UNL     1       5.581   1.427  -0.189  0.00  0.00    +0.021 A 
ATOM     22  C   UNL     1       6.868   1.804   0.293  0.00  0.00    +0.008 A 
ATOM     23  C   UNL     1       7.537   0.744   0.864  0.00  0.00    +0.046 A 
ENDBRANCH  16  20
ENDBRANCH  13   6
ENDBRANCH  11  13
TORSDOF 7
