REMARK  Name = 75536084
REMARK  6 active torsions:
REMARK  status: ('A' for Active; 'I' for Inactive)
REMARK    1  A    between atoms: O_5  and  C_13
REMARK    2  A    between atoms: O_6  and  C_15
REMARK    3  A    between atoms: N_8  and  C_12
REMARK    4  A    between atoms: C_11  and  C_16
REMARK    5  A    between atoms: C_19  and  C_22
REMARK    6  A    between atoms: C_21  and  C_23
REMARK                            x       y       z     vdW  Elec       q    Type
REMARK                         _______ _______ _______ _____ _____    ______ ____
ROOT
ATOM     11  C   UNL     1       1.398   1.786   0.984  0.00  0.00    +0.046 C 
ATOM     12  C   UNL     1       0.435   2.170  -0.161  0.00  0.00    +0.112 C 
ATOM     13  C   UNL     1       0.320   3.688  -0.037  0.00  0.00    +0.164 C 
ATOM     14  C   UNL     1       2.216   3.067   1.295  0.00  0.00    +0.044 C 
ATOM     15  C   UNL     1       1.745   4.117   0.290  0.00  0.00    +0.145 C 
ENDROOT
BRANCH  11  16
ATOM      9  N   UNL     1       2.908  -1.685   1.230  0.00  0.00    -0.251 NA
ATOM     16  C   UNL     1       2.242   0.570   0.667  0.00  0.00    -0.024 A 
ATOM     17  C   UNL     1       3.101   0.559  -0.427  0.00  0.00    +0.007 A 
ATOM     18  C   UNL     1       2.183  -0.567   1.457  0.00  0.00    +0.115 A 
ATOM     20  C   UNL     1       3.864  -0.573  -0.693  0.00  0.00    +0.032 A 
ATOM     21  C   UNL     1       3.732  -1.659   0.158  0.00  0.00    +0.144 A 
BRANCH  21  23
ATOM      2  F   UNL     1       5.335  -2.776  -1.197  0.00  0.00    -0.164 F 
ATOM      3  F   UNL     1       5.369  -3.223   0.931  0.00  0.00    -0.164 F 
ATOM      4  F   UNL     1       3.773  -4.004  -0.313  0.00  0.00    -0.164 F 
ATOM     23  C   UNL     1       4.535  -2.891  -0.098  0.00  0.00    +0.434 C 
ENDBRANCH  21  23
ENDBRANCH  11  16
BRANCH  12   8
ATOM      7  O   UNL     1      -0.360  -0.314  -1.363  0.00  0.00    -0.268 OA
ATOM      8  N   UNL     1      -0.846   1.521  -0.030  0.00  0.00    -0.304 N 
ATOM     19  C   UNL     1      -1.139   0.315  -0.652  0.00  0.00    +0.270 C 
ATOM     30  H   UNL     1      -1.546   1.948   0.569  0.00  0.00    +0.149 HD
BRANCH  19  22
ATOM      1  S   UNL     1      -2.999  -1.687  -1.151  0.00  0.00    -0.063 S 
ATOM     10  N   UNL     1      -3.411   0.413   0.288  0.00  0.00    -0.234 NA
ATOM     22  C   UNL     1      -2.513  -0.210  -0.439  0.00  0.00    +0.164 A 
ATOM     24  C   UNL     1      -4.558  -1.508  -0.437  0.00  0.00    +0.040 A 
ATOM     25  C   UNL     1      -4.589  -0.320   0.299  0.00  0.00    +0.079 A 
ATOM     26  C   UNL     1      -5.673  -2.357  -0.522  0.00  0.00    +0.017 A 
ATOM     27  C   UNL     1      -5.780   0.029   0.973  0.00  0.00    +0.029 A 
ATOM     28  C   UNL     1      -6.838  -1.989   0.155  0.00  0.00    +0.001 A 
ATOM     29  C   UNL     1      -6.893  -0.812   0.893  0.00  0.00    +0.002 A 
ENDBRANCH  19  22
ENDBRANCH  12   8
BRANCH  13   5
ATOM      5  O   UNL     1      -0.133   4.292  -1.234  0.00  0.00    -0.387 OA
ATOM     31  H   UNL     1      -0.089   5.255  -1.110  0.00  0.00    +0.210 HD
ENDBRANCH  13   5
BRANCH  15   6
ATOM      6  O   UNL     1       2.577   4.048  -0.864  0.00  0.00    -0.389 OA
ATOM     32  H   UNL     1       3.477   4.293  -0.591  0.00  0.00    +0.210 HD
ENDBRANCH  15   6
TORSDOF 6
