REMARK  Name = 75536782
REMARK  7 active torsions:
REMARK  status: ('A' for Active; 'I' for Inactive)
REMARK    1  A    between atoms: O_3  and  C_9
REMARK    2  A    between atoms: N_5  and  C_8
REMARK    3  A    between atoms: N_5  and  C_13
REMARK    4  A    between atoms: N_6  and  C_12
REMARK    5  A    between atoms: N_7  and  C_21
REMARK    6  A    between atoms: C_10  and  C_12
REMARK    7  A    between atoms: C_13  and  C_14
REMARK                            x       y       z     vdW  Elec       q    Type
REMARK                         _______ _______ _______ _____ _____    ______ ____
ROOT
ATOM      2  O   UNL     1       0.035  -1.163  -0.071  0.00  0.00    -0.371 OA
ATOM      8  C   UNL     1      -1.887   0.226  -0.203  0.00  0.00    +0.111 C 
ATOM      9  C   UNL     1      -0.967   0.757   0.880  0.00  0.00    +0.164 C 
ATOM     10  C   UNL     1       0.359   0.128   0.473  0.00  0.00    +0.165 C 
ATOM     11  C   UNL     1      -1.373  -1.195  -0.365  0.00  0.00    +0.181 C 
ENDROOT
BRANCH   9   3
ATOM      3  O   UNL     1      -0.897   2.170   0.892  0.00  0.00    -0.388 OA
ATOM     28  H   UNL     1      -0.619   2.471   0.011  0.00  0.00    +0.210 HD
ENDBRANCH   9   3
BRANCH   8   5
ATOM      5  N   UNL     1      -3.297   0.281   0.150  0.00  0.00    -0.305 NA
ATOM     27  H   UNL     1      -3.503   1.194   0.556  0.00  0.00    +0.123 HD
BRANCH   5  13
ATOM     13  C   UNL     1      -4.141   0.084  -1.022  0.00  0.00    +0.119 C 
BRANCH  13  14
ATOM      1  F   UNL     1      -5.484  -2.068   0.237  0.00  0.00    -0.205 F 
ATOM     14  C   UNL     1      -5.604   0.121  -0.672  0.00  0.00    +0.002 A 
ATOM     16  C   UNL     1      -6.204  -0.975  -0.052  0.00  0.00    +0.128 A 
ATOM     17  C   UNL     1      -6.361   1.255  -0.969  0.00  0.00    +0.008 A 
ATOM     18  C   UNL     1      -7.560  -0.938   0.272  0.00  0.00    +0.038 A 
ATOM     19  C   UNL     1      -7.718   1.292  -0.645  0.00  0.00    +0.000 A 
ATOM     20  C   UNL     1      -8.317   0.196  -0.025  0.00  0.00    +0.003 A 
ENDBRANCH  13  14
ENDBRANCH   5  13
ENDBRANCH   8   5
BRANCH  10  12
ATOM     12  C   UNL     1       1.328  -0.031   1.630  0.00  0.00    +0.140 C 
BRANCH  12   6
ATOM      4  O   UNL     1       3.660   1.335   0.681  0.00  0.00    -0.253 OA
ATOM      6  N   UNL     1       2.559  -0.631   1.201  0.00  0.00    -0.297 N 
ATOM      7  N   UNL     1       4.716  -0.742   0.398  0.00  0.00    -0.269 N 
ATOM     15  C   UNL     1       3.663   0.108   0.747  0.00  0.00    +0.304 C 
ATOM     29  H   UNL     1       2.629  -1.644   1.215  0.00  0.00    +0.150 HD
ATOM     30  H   UNL     1       4.553  -1.739   0.513  0.00  0.00    +0.156 HD
BRANCH   7  21
ATOM     21  C   UNL     1       5.991  -0.386  -0.099  0.00  0.00    +0.035 A 
ATOM     22  C   UNL     1       6.925  -1.378  -0.397  0.00  0.00    +0.023 A 
ATOM     23  C   UNL     1       6.314   0.957  -0.292  0.00  0.00    +0.023 A 
ATOM     24  C   UNL     1       8.183  -1.027  -0.887  0.00  0.00    +0.002 A 
ATOM     25  C   UNL     1       7.572   1.308  -0.782  0.00  0.00    +0.002 A 
ATOM     26  C   UNL     1       8.506   0.316  -1.080  0.00  0.00    +0.000 A 
ENDBRANCH   7  21
ENDBRANCH  12   6
ENDBRANCH  10  12
TORSDOF 7
