REMARK  Name = 51137049
REMARK  4 active torsions:
REMARK  status: ('A' for Active; 'I' for Inactive)
REMARK    1  A    between atoms: N_2  and  C_9
REMARK    2  A    between atoms: C_5  and  C_10
REMARK    3  A    between atoms: C_9  and  C_11
REMARK    4  A    between atoms: C_20  and  C_24
REMARK                            x       y       z     vdW  Elec       q    Type
REMARK                         _______ _______ _______ _____ _____    ______ ____
ROOT
ATOM      2  N   UNL     1      -0.721  -0.546  -0.205  0.00  0.00    -0.297 NA
ATOM      5  C   UNL     1       1.467  -0.896   0.563  0.00  0.00    +0.090 C 
ATOM      6  C   UNL     1       0.689  -0.058   1.592  0.00  0.00    +0.029 C 
ATOM      7  C   UNL     1       0.623  -0.823  -0.716  0.00  0.00    +0.097 C 
ATOM      8  C   UNL     1      -0.527   0.463   0.837  0.00  0.00    +0.085 C 
ENDROOT
BRANCH   5  10
ATOM      1  O   UNL     1       3.849  -1.407   0.622  0.00  0.00    -0.439 OA
ATOM      3  N   UNL     1       3.353   0.694  -0.066  0.00  0.00    -0.213 NA
ATOM     10  C   UNL     1       2.900  -0.468   0.349  0.00  0.00    +0.201 A 
ATOM     12  C   UNL     1       4.716   0.519  -0.072  0.00  0.00    +0.110 A 
ATOM     13  C   UNL     1       5.023  -0.766   0.348  0.00  0.00    +0.155 A 
ATOM     17  C   UNL     1       5.761   1.388  -0.417  0.00  0.00    +0.035 A 
ATOM     18  C   UNL     1       6.311  -1.276   0.459  0.00  0.00    +0.049 A 
ATOM     20  C   UNL     1       7.075   0.909  -0.318  0.00  0.00    -0.048 A 
ATOM     21  C   UNL     1       7.342  -0.397   0.112  0.00  0.00    +0.007 A 
ATOM     24  C   UNL     1       8.211   1.810  -0.677  0.00  0.00    +0.044 C 
ENDBRANCH   5  10
BRANCH   2   9
ATOM      9  C   UNL     1      -1.631  -0.097  -1.248  0.00  0.00    +0.121 C 
BRANCH   9  11
ATOM      4  N   UNL     1      -4.987  -1.634  -0.504  0.00  0.00    -0.255 NA
ATOM     11  C   UNL     1      -3.058  -0.226  -0.854  0.00  0.00    -0.015 A 
ATOM     14  C   UNL     1      -3.802   0.883  -0.475  0.00  0.00    +0.016 A 
ATOM     15  C   UNL     1      -3.693  -1.451  -0.852  0.00  0.00    +0.116 A 
ATOM     16  C   UNL     1      -5.147   0.737  -0.107  0.00  0.00    +0.001 A 
ATOM     19  C   UNL     1      -5.707  -0.557  -0.137  0.00  0.00    +0.071 A 
ATOM     22  C   UNL     1      -5.927   1.839   0.281  0.00  0.00    +0.010 A 
ATOM     23  C   UNL     1      -7.043  -0.701   0.228  0.00  0.00    +0.028 A 
ATOM     25  C   UNL     1      -7.260   1.667   0.641  0.00  0.00    +0.001 A 
ATOM     26  C   UNL     1      -7.818   0.395   0.614  0.00  0.00    +0.002 A 
ENDBRANCH   9  11
ENDBRANCH   2   9
TORSDOF 3
