REMARK  Name = 7164881
REMARK  11 active torsions:
REMARK  status: ('A' for Active; 'I' for Inactive)
REMARK    1  A    between atoms: O_5  and  C_22
REMARK    2  A    between atoms: O_5  and  C_35
REMARK    3  A    between atoms: O_7  and  C_34
REMARK    4  A    between atoms: O_7  and  C_39
REMARK    5  A    between atoms: N_10  and  C_19
REMARK    6  A    between atoms: N_11  and  C_25
REMARK    7  A    between atoms: C_12  and  C_16
REMARK    8  A    between atoms: C_17  and  C_21
REMARK    9  A    between atoms: C_19  and  C_20
REMARK   10  A    between atoms: C_19  and  C_22
REMARK   11  A    between atoms: C_20  and  C_23
REMARK                            x       y       z     vdW  Elec       q    Type
REMARK                         _______ _______ _______ _____ _____    ______ ____
ROOT
ATOM      3  O   UNL     1      -4.397   0.395  -0.953  0.00  0.00    -0.269 OA
ATOM      4  O   UNL     1       2.360  -1.158  -1.199  0.00  0.00    -0.252 OA
ATOM      8  N   UNL     1      -2.672  -1.139  -0.756  0.00  0.00    -0.283 N 
ATOM      9  N   UNL     1       0.184  -1.736  -0.666  0.00  0.00    -0.282 N 
ATOM     11  N   UNL     1       1.991  -2.815   0.394  0.00  0.00    -0.269 N 
ATOM     12  C   UNL     1      -1.670  -0.141  -1.133  0.00  0.00    +0.179 C 
ATOM     13  C   UNL     1      -0.363  -0.765  -1.619  0.00  0.00    +0.141 C 
ATOM     14  C   UNL     1      -2.188  -2.506  -0.517  0.00  0.00    +0.128 C 
ATOM     15  C   UNL     1      -0.788  -2.538   0.087  0.00  0.00    +0.128 C 
ATOM     17  C   UNL     1      -4.034  -0.764  -0.747  0.00  0.00    +0.254 C 
ATOM     18  C   UNL     1       1.588  -1.859  -0.540  0.00  0.00    +0.307 C 
ATOM     41  H   UNL     1       1.280  -3.310   0.921  0.00  0.00    +0.156 HD
ENDROOT
BRANCH  11  25
ATOM     25  C   UNL     1       3.315  -3.175   0.750  0.00  0.00    +0.035 A 
ATOM     30  C   UNL     1       3.535  -4.161   1.713  0.00  0.00    +0.023 A 
ATOM     31  C   UNL     1       4.397  -2.544   0.138  0.00  0.00    +0.023 A 
ATOM     36  C   UNL     1       4.838  -4.515   2.062  0.00  0.00    +0.002 A 
ATOM     37  C   UNL     1       5.700  -2.899   0.488  0.00  0.00    +0.002 A 
ATOM     38  C   UNL     1       5.921  -3.884   1.450  0.00  0.00    +0.000 A 
ENDBRANCH  11  25
BRANCH  17  21
ATOM      1  S   UNL     1      -6.049  -1.638   0.887  0.00  0.00    -0.092 S 
ATOM     21  C   UNL     1      -5.017  -1.806  -0.469  0.00  0.00    +0.074 A 
ATOM     24  C   UNL     1      -5.262  -2.971  -1.163  0.00  0.00    +0.021 A 
ATOM     28  C   UNL     1      -6.311  -3.734  -0.574  0.00  0.00    +0.008 A 
ATOM     29  C   UNL     1      -6.827  -3.125   0.548  0.00  0.00    +0.046 A 
ENDBRANCH  17  21
BRANCH  12  16
ATOM      2  O   UNL     1      -1.489   0.291   1.210  0.00  0.00    -0.274 OA
ATOM     10  N   UNL     1      -1.140   2.039  -0.287  0.00  0.00    -0.301 N 
ATOM     16  C   UNL     1      -1.421   0.730   0.065  0.00  0.00    +0.236 C 
ATOM     40  H   UNL     1      -1.195   2.308  -1.265  0.00  0.00    +0.150 HD
BRANCH  10  19
ATOM     19  C   UNL     1      -0.885   3.081   0.681  0.00  0.00    +0.186 C 
BRANCH  19  22
ATOM      6  O   UNL     1      -3.273   3.444   0.740  0.00  0.00    -0.249 OA
ATOM     22  C   UNL     1      -2.168   3.725   1.191  0.00  0.00    +0.328 C 
BRANCH  22   5
ATOM      5  O   UNL     1      -1.929   4.639   2.173  0.00  0.00    -0.467 OA
ATOM     35  C   UNL     1      -3.083   5.305   2.695  0.00  0.00    +0.280 C 
ENDBRANCH  22   5
ENDBRANCH  19  22
BRANCH  19  20
ATOM     20  C   UNL     1       0.103   4.122   0.134  0.00  0.00    +0.069 C 
BRANCH  20  23
ATOM     23  C   UNL     1       1.426   3.555  -0.330  0.00  0.00    -0.045 A 
ATOM     26  C   UNL     1       1.582   3.141  -1.653  0.00  0.00    +0.007 A 
ATOM     27  C   UNL     1       2.490   3.445   0.566  0.00  0.00    +0.007 A 
ATOM     32  C   UNL     1       2.802   2.618  -2.081  0.00  0.00    +0.046 A 
ATOM     33  C   UNL     1       3.710   2.922   0.138  0.00  0.00    +0.046 A 
ATOM     34  C   UNL     1       3.866   2.509  -1.185  0.00  0.00    +0.120 A 
BRANCH  34   7
ATOM      7  O   UNL     1       5.056   1.997  -1.603  0.00  0.00    -0.495 OA
ATOM     39  C   UNL     1       6.102   1.913  -0.635  0.00  0.00    +0.277 C 
ENDBRANCH  34   7
ENDBRANCH  20  23
ENDBRANCH  19  20
ENDBRANCH  10  19
ENDBRANCH  12  16
TORSDOF 9
