REMARK  Name = 40780421
REMARK  8 active torsions:
REMARK  status: ('A' for Active; 'I' for Inactive)
REMARK    1  A    between atoms: N_4  and  C_11
REMARK    2  A    between atoms: N_5  and  C_19
REMARK    3  A    between atoms: N_7  and  C_25
REMARK    4  A    between atoms: N_8  and  C_21
REMARK    5  A    between atoms: C_9  and  C_12
REMARK    6  A    between atoms: C_15  and  C_17
REMARK    7  A    between atoms: C_16  and  C_18
REMARK    8  A    between atoms: C_25  and  C_27
REMARK                            x       y       z     vdW  Elec       q    Type
REMARK                         _______ _______ _______ _____ _____    ______ ____
ROOT
ATOM      5  N   UNL     1      -2.237   0.049   0.455  0.00  0.00    -0.234 N 
ATOM      6  N   UNL     1      -2.212   1.170   1.196  0.00  0.00    -0.171 NA
ATOM     12  C   UNL     1      -0.180   0.753   0.241  0.00  0.00    +0.003 A 
ATOM     15  C   UNL     1      -1.044  -0.245  -0.139  0.00  0.00    +0.046 A 
ATOM     16  C   UNL     1      -0.953   1.595   1.062  0.00  0.00    +0.064 A 
ATOM     17  C   UNL     1      -0.836  -1.428  -0.998  0.00  0.00    +0.066 C 
ATOM     18  C   UNL     1      -0.528   2.828   1.748  0.00  0.00    +0.068 C 
ENDROOT
BRANCH   5  19
ATOM     19  C   UNL     1      -3.417  -0.688   0.353  0.00  0.00    +0.096 A 
ATOM     21  C   UNL     1      -4.581  -0.125  -0.170  0.00  0.00    +0.151 A 
ATOM     22  C   UNL     1      -3.418  -2.013   0.790  0.00  0.00    +0.030 A 
ATOM     23  C   UNL     1      -5.746  -0.887  -0.256  0.00  0.00    +0.035 A 
ATOM     24  C   UNL     1      -4.584  -2.775   0.703  0.00  0.00    +0.002 A 
ATOM     26  C   UNL     1      -5.748  -2.212   0.180  0.00  0.00    +0.002 A 
BRANCH  21   8
ATOM      2  O   UNL     1      -4.918   2.128   0.190  0.00  0.00    -0.126 OA
ATOM      3  O   UNL     1      -4.335   1.466  -1.820  0.00  0.00    -0.126 OA
ATOM      8  N   UNL     1      -4.613   1.225  -0.623  0.00  0.00    +0.059 N 
ENDBRANCH  21   8
ENDBRANCH   5  19
BRANCH  12   9
ATOM      9  C   UNL     1       1.275   0.907  -0.138  0.00  0.00    +0.047 C 
ATOM     10  C   UNL     1       2.144  -0.299   0.273  0.00  0.00    +0.039 C 
ATOM     11  C   UNL     1       3.208  -0.442  -0.823  0.00  0.00    +0.098 C 
ATOM     13  C   UNL     1       1.533   1.002  -1.614  0.00  0.00    -0.021 C 
ATOM     14  C   UNL     1       2.588   0.269  -1.981  0.00  0.00    -0.009 C 
BRANCH  11   4
ATOM      1  O   UNL     1       5.508  -1.650   0.435  0.00  0.00    -0.253 OA
ATOM      4  N   UNL     1       4.448   0.203  -0.481  0.00  0.00    -0.293 N 
ATOM      7  N   UNL     1       6.590   0.401   0.347  0.00  0.00    -0.300 N 
ATOM     20  C   UNL     1       5.516  -0.458   0.129  0.00  0.00    +0.300 C 
ATOM     28  H   UNL     1       4.542   1.201  -0.647  0.00  0.00    +0.151 HD
ATOM     29  H   UNL     1       6.510   1.368   0.050  0.00  0.00    +0.150 HD
BRANCH   7  25
ATOM     25  C   UNL     1       7.822  -0.029   0.964  0.00  0.00    +0.102 C 
ATOM     27  C   UNL     1       8.718  -0.745  -0.025  0.00  0.00    +0.024 C 
ENDBRANCH   7  25
ENDBRANCH  11   4
ENDBRANCH  12   9
TORSDOF 5
