REMARK  Name = 40778241
REMARK  8 active torsions:
REMARK  status: ('A' for Active; 'I' for Inactive)
REMARK    1  A    between atoms: O_3  and  C_12
REMARK    2  A    between atoms: O_4  and  C_13
REMARK    3  A    between atoms: N_9  and  C_22
REMARK    4  A    between atoms: N_10  and  C_16
REMARK    5  A    between atoms: C_11  and  C_15
REMARK    6  A    between atoms: C_14  and  C_16
REMARK    7  A    between atoms: C_15  and  C_17
REMARK    8  A    between atoms: C_23  and  C_26
REMARK                            x       y       z     vdW  Elec       q    Type
REMARK                         _______ _______ _______ _____ _____    ______ ____
ROOT
ATOM      2  O   UNL     1      -3.910   0.710   0.907  0.00  0.00    -0.366 OA
ATOM     11  C   UNL     1      -3.501   1.751  -0.009  0.00  0.00    +0.159 C 
ATOM     12  C   UNL     1      -4.494   1.719  -1.166  0.00  0.00    +0.175 C 
ATOM     13  C   UNL     1      -4.919   0.265  -1.177  0.00  0.00    +0.176 C 
ATOM     14  C   UNL     1      -4.977  -0.047   0.309  0.00  0.00    +0.167 C 
ENDROOT
BRANCH  12   3
ATOM      3  O   UNL     1      -5.599   2.555  -0.824  0.00  0.00    -0.387 OA
ATOM     33  H   UNL     1      -5.276   3.471  -0.805  0.00  0.00    +0.210 HD
ENDBRANCH  12   3
BRANCH  13   4
ATOM      4  O   UNL     1      -6.160   0.050  -1.813  0.00  0.00    -0.387 OA
ATOM     34  H   UNL     1      -6.085   0.388  -2.722  0.00  0.00    +0.210 HD
ENDBRANCH  13   4
BRANCH  11  15
ATOM     15  C   UNL     1      -2.072   1.455  -0.442  0.00  0.00    +0.130 C 
BRANCH  15  17
ATOM      5  O   UNL     1      -1.543   2.367   1.685  0.00  0.00    -0.276 OA
ATOM      8  N   UNL     1       0.240   1.609   0.403  0.00  0.00    -0.298 N 
ATOM      9  N   UNL     1       3.041   0.950   0.085  0.00  0.00    -0.327 N 
ATOM     17  C   UNL     1      -1.111   1.854   0.651  0.00  0.00    +0.218 C 
ATOM     18  C   UNL     1       0.752   1.000  -0.826  0.00  0.00    +0.126 C 
ATOM     19  C   UNL     1       1.233   1.961   1.415  0.00  0.00    +0.126 C 
ATOM     20  C   UNL     1       2.226   1.317  -1.076  0.00  0.00    +0.124 C 
ATOM     21  C   UNL     1       2.419   0.999   1.411  0.00  0.00    +0.124 C 
BRANCH   9  22
ATOM      1  F   UNL     1       8.353  -0.447  -0.487  0.00  0.00    -0.205 F 
ATOM     22  C   UNL     1       4.381   0.597  -0.059  0.00  0.00    +0.030 A 
ATOM     24  C   UNL     1       5.138   1.146  -1.094  0.00  0.00    +0.026 A 
ATOM     25  C   UNL     1       4.965  -0.304   0.831  0.00  0.00    +0.026 A 
ATOM     27  C   UNL     1       6.480   0.794  -1.238  0.00  0.00    +0.040 A 
ATOM     28  C   UNL     1       6.307  -0.656   0.686  0.00  0.00    +0.040 A 
ATOM     29  C   UNL     1       7.064  -0.108  -0.348  0.00  0.00    +0.124 A 
ENDBRANCH   9  22
ENDBRANCH  15  17
ENDBRANCH  11  15
BRANCH  14  16
ATOM     16  C   UNL     1      -4.797  -1.521   0.622  0.00  0.00    +0.138 C 
BRANCH  16  10
ATOM      6  O   UNL     1      -2.324  -1.547   2.081  0.00  0.00    -0.267 OA
ATOM     10  N   UNL     1      -3.531  -2.000   0.152  0.00  0.00    -0.306 N 
ATOM     23  C   UNL     1      -2.377  -1.974   0.931  0.00  0.00    +0.279 C 
ATOM     35  H   UNL     1      -3.479  -2.373  -0.792  0.00  0.00    +0.149 HD
BRANCH  23  26
ATOM      7  O   UNL     1      -1.224  -2.927  -0.994  0.00  0.00    -0.458 OA
ATOM     26  C   UNL     1      -1.139  -2.483   0.287  0.00  0.00    +0.189 A 
ATOM     30  C   UNL     1       0.150  -2.600   0.755  0.00  0.00    +0.054 A 
ATOM     31  C   UNL     1       0.905  -3.151  -0.308  0.00  0.00    +0.042 A 
ATOM     32  C   UNL     1       0.024  -3.332  -1.349  0.00  0.00    +0.196 A 
ENDBRANCH  23  26
ENDBRANCH  16  10
ENDBRANCH  14  16
TORSDOF 8
