REMARK  Name = 45784151
REMARK  11 active torsions:
REMARK  status: ('A' for Active; 'I' for Inactive)
REMARK    1  A    between atoms: N_3  and  C_15
REMARK    2  A    between atoms: N_5  and  C_23
REMARK    3  A    between atoms: C_8  and  C_12
REMARK    4  A    between atoms: C_9  and  C_15
REMARK    5  A    between atoms: C_11  and  C_16
REMARK    6  A    between atoms: C_12  and  C_17
REMARK    7  A    between atoms: C_12  and  C_18
REMARK    8  A    between atoms: C_13  and  C_19
REMARK    9  A    between atoms: C_16  and  C_20
REMARK   10  A    between atoms: C_22  and  C_24
REMARK   11  A    between atoms: C_23  and  C_25
REMARK                            x       y       z     vdW  Elec       q    Type
REMARK                         _______ _______ _______ _____ _____    ______ ____
ROOT
ATOM      8  C   UNL     1       1.672  -0.576   1.259  0.00  0.00    +0.000 C 
ATOM      9  C   UNL     1       3.206  -0.763   1.161  0.00  0.00    +0.032 C 
ATOM     10  C   UNL     1       0.950  -1.899   0.963  0.00  0.00    +0.012 C 
ATOM     11  C   UNL     1       1.286  -2.446  -0.438  0.00  0.00    +0.024 C 
ATOM     13  C   UNL     1       2.776  -2.412  -0.712  0.00  0.00    -0.073 C 
ATOM     14  C   UNL     1       3.620  -1.664   0.021  0.00  0.00    -0.022 C 
ATOM     19  C   UNL     1       3.280  -3.292  -1.821  0.00  0.00    +0.039 C 
ENDROOT
BRANCH   8  12
ATOM     12  C   UNL     1       1.249  -0.051   2.635  0.00  0.00    -0.013 C 
ATOM     17  C   UNL     1      -0.088   0.676   2.539  0.00  0.00    +0.007 C 
ATOM     18  C   UNL     1       1.172  -1.196   3.640  0.00  0.00    +0.007 C 
ENDBRANCH   8  12
BRANCH   9  15
ATOM     15  C   UNL     1       3.921   0.586   1.031  0.00  0.00    +0.113 C 
BRANCH  15   3
ATOM      2  O   UNL     1       2.648   3.151   0.679  0.00  0.00    -0.253 OA
ATOM      3  N   UNL     1       3.588   1.220  -0.206  0.00  0.00    -0.299 N 
ATOM      5  N   UNL     1       2.758   2.852  -1.619  0.00  0.00    -0.300 N 
ATOM     21  C   UNL     1       2.967   2.472  -0.296  0.00  0.00    +0.300 C 
ATOM     30  H   UNL     1       3.873   0.772  -1.072  0.00  0.00    +0.150 HD
ATOM     31  H   UNL     1       3.043   2.218  -2.359  0.00  0.00    +0.150 HD
BRANCH   5  23
ATOM     23  C   UNL     1       2.134   4.102  -1.985  0.00  0.00    +0.102 C 
ATOM     25  C   UNL     1       0.626   4.024  -1.869  0.00  0.00    +0.024 C 
ENDBRANCH   5  23
ENDBRANCH  15   3
ENDBRANCH   9  15
BRANCH  11  16
ATOM     16  C   UNL     1       0.510  -1.695  -1.525  0.00  0.00    +0.105 C 
BRANCH  16  20
ATOM      1  O   UNL     1      -1.556  -0.630  -0.781  0.00  0.00    -0.420 OA
ATOM      4  N   UNL     1      -1.812  -2.740  -1.480  0.00  0.00    -0.112 NA
ATOM      6  N   UNL     1      -3.051  -2.264  -1.091  0.00  0.00    -0.107 NA
ATOM     20  C   UNL     1      -0.971  -1.752  -1.282  0.00  0.00    +0.218 A 
ATOM     22  C   UNL     1      -2.853  -1.030  -0.691  0.00  0.00    +0.248 A 
BRANCH  22  24
ATOM      7  N   UNL     1      -5.575   1.839   0.809  0.00  0.00    -0.263 NA
ATOM     24  C   UNL     1      -3.776  -0.057  -0.183  0.00  0.00    +0.041 A 
ATOM     26  C   UNL     1      -5.124  -0.373  -0.055  0.00  0.00    +0.033 A 
ATOM     27  C   UNL     1      -3.326   1.207   0.184  0.00  0.00    +0.033 A 
ATOM     28  C   UNL     1      -5.975   0.601   0.442  0.00  0.00    +0.111 A 
ATOM     29  C   UNL     1      -4.258   2.111   0.670  0.00  0.00    +0.111 A 
ENDBRANCH  22  24
ENDBRANCH  16  20
ENDBRANCH  11  16
TORSDOF 7
