REMARK  Name = 56774420
REMARK  4 active torsions:
REMARK  status: ('A' for Active; 'I' for Inactive)
REMARK    1  A    between atoms: N_1  and  C_7
REMARK    2  A    between atoms: N_2  and  C_15
REMARK    3  A    between atoms: C_4  and  C_7
REMARK    4  A    between atoms: C_8  and  C_12
REMARK                            x       y       z     vdW  Elec       q    Type
REMARK                         _______ _______ _______ _____ _____    ______ ____
ROOT
ATOM      2  N   UNL     1       1.742  -1.117   0.310  0.00  0.00    -0.330 N 
ATOM      3  N   UNL     1       1.441   1.084   0.252  0.00  0.00    -0.232 NA
ATOM     12  C   UNL     1       0.870  -0.077   0.479  0.00  0.00    +0.115 A 
ATOM     13  C   UNL     1       2.956  -0.591  -0.051  0.00  0.00    +0.069 A 
ATOM     14  C   UNL     1       2.742   0.784  -0.080  0.00  0.00    +0.089 A 
ATOM     15  C   UNL     1       1.442  -2.521   0.480  0.00  0.00    +0.150 C 
ATOM     16  C   UNL     1       4.185  -1.183  -0.345  0.00  0.00    +0.028 A 
ATOM     17  C   UNL     1       3.807   1.635  -0.421  0.00  0.00    +0.030 A 
ATOM     18  C   UNL     1       5.234  -0.321  -0.682  0.00  0.00    +0.002 A 
ATOM     19  C   UNL     1       5.050   1.063  -0.720  0.00  0.00    +0.002 A 
ENDROOT
BRANCH  12   8
ATOM      1  N   UNL     1      -2.779   0.063   0.176  0.00  0.00    -0.301 NA
ATOM      8  C   UNL     1      -0.571  -0.293   0.881  0.00  0.00    +0.070 C 
ATOM      9  C   UNL     1      -1.508  -0.467  -0.322  0.00  0.00    +0.095 C 
ATOM     10  C   UNL     1      -2.420   1.282   0.903  0.00  0.00    +0.085 C 
ATOM     11  C   UNL     1      -1.192   0.855   1.696  0.00  0.00    +0.028 C 
BRANCH   1   7
ATOM      7  C   UNL     1      -3.732   0.316  -0.894  0.00  0.00    +0.088 C 
BRANCH   7   4
ATOM      4  C   UNL     1      -5.129   0.398  -0.369  0.00  0.00    +0.003 C 
ATOM      5  C   UNL     1      -5.869  -0.868  -0.053  0.00  0.00    +0.005 C 
ATOM      6  C   UNL     1      -6.267  -0.043  -1.242  0.00  0.00    +0.005 C 
ENDBRANCH   7   4
ENDBRANCH   1   7
ENDBRANCH  12   8
TORSDOF 3
