REMARK  Name = 40780416
REMARK  8 active torsions:
REMARK  status: ('A' for Active; 'I' for Inactive)
REMARK    1  A    between atoms: N_4  and  C_10
REMARK    2  A    between atoms: N_4  and  C_16
REMARK    3  A    between atoms: N_5  and  C_19
REMARK    4  A    between atoms: N_7  and  C_21
REMARK    5  A    between atoms: C_8  and  C_11
REMARK    6  A    between atoms: C_14  and  C_17
REMARK    7  A    between atoms: C_15  and  C_18
REMARK    8  A    between atoms: C_16  and  C_20
REMARK                            x       y       z     vdW  Elec       q    Type
REMARK                         _______ _______ _______ _____ _____    ______ ____
ROOT
ATOM      5  N   UNL     1       3.251   0.054  -0.491  0.00  0.00    -0.234 N 
ATOM      6  N   UNL     1       3.133   1.166  -1.236  0.00  0.00    -0.171 NA
ATOM     11  C   UNL     1       1.111   0.484  -0.421  0.00  0.00    +0.003 A 
ATOM     14  C   UNL     1       2.069  -0.396   0.020  0.00  0.00    +0.046 A 
ATOM     15  C   UNL     1       1.823   1.425  -1.189  0.00  0.00    +0.064 A 
ATOM     17  C   UNL     1       1.958  -1.601   0.866  0.00  0.00    +0.066 C 
ATOM     18  C   UNL     1       1.290   2.597  -1.905  0.00  0.00    +0.068 C 
ENDROOT
BRANCH   5  19
ATOM     19  C   UNL     1       4.507  -0.526  -0.308  0.00  0.00    +0.096 A 
ATOM     21  C   UNL     1       5.549   0.179   0.295  0.00  0.00    +0.151 A 
ATOM     22  C   UNL     1       4.710  -1.837  -0.740  0.00  0.00    +0.030 A 
ATOM     25  C   UNL     1       6.794  -0.427   0.466  0.00  0.00    +0.035 A 
ATOM     26  C   UNL     1       5.954  -2.443  -0.569  0.00  0.00    +0.002 A 
ATOM     27  C   UNL     1       6.996  -1.738   0.034  0.00  0.00    +0.002 A 
BRANCH  21   7
ATOM      2  O   UNL     1       5.617   2.459  -0.044  0.00  0.00    -0.126 OA
ATOM      3  O   UNL     1       4.985   1.713   1.921  0.00  0.00    -0.126 OA
ATOM      7  N   UNL     1       5.375   1.518   0.747  0.00  0.00    +0.059 N 
ENDBRANCH  21   7
ENDBRANCH   5  19
BRANCH  11   8
ATOM      8  C   UNL     1      -0.374   0.448  -0.142  0.00  0.00    +0.047 C 
ATOM      9  C   UNL     1      -1.054  -0.843  -0.637  0.00  0.00    +0.035 C 
ATOM     10  C   UNL     1      -2.176  -1.149   0.370  0.00  0.00    +0.078 C 
ATOM     12  C   UNL     1      -0.740   0.462   1.313  0.00  0.00    -0.021 C 
ATOM     13  C   UNL     1      -1.725  -0.401   1.585  0.00  0.00    -0.012 C 
BRANCH  10   4
ATOM      4  N   UNL     1      -3.474  -0.675  -0.097  0.00  0.00    -0.306 NA
ATOM     31  H   UNL     1      -3.603  -0.950  -1.071  0.00  0.00    +0.123 HD
BRANCH   4  16
ATOM     16  C   UNL     1      -4.555  -1.241   0.701  0.00  0.00    +0.117 C 
BRANCH  16  20
ATOM      1 CL   UNL     1      -8.102   2.575   0.553  0.00  0.00    -0.084 Cl
ATOM     20  C   UNL     1      -5.904  -0.753   0.243  0.00  0.00    -0.032 A 
ATOM     23  C   UNL     1      -6.328   0.535   0.571  0.00  0.00    +0.025 A 
ATOM     24  C   UNL     1      -6.729  -1.588  -0.510  0.00  0.00    +0.005 A 
ATOM     28  C   UNL     1      -7.577   0.987   0.146  0.00  0.00    +0.041 A 
ATOM     29  C   UNL     1      -7.979  -1.136  -0.934  0.00  0.00    +0.002 A 
ATOM     30  C   UNL     1      -8.403   0.152  -0.607  0.00  0.00    +0.020 A 
ENDBRANCH  16  20
ENDBRANCH   4  16
ENDBRANCH  10   4
ENDBRANCH  11   8
TORSDOF 6
