REMARK  Name = 75536640
REMARK  7 active torsions:
REMARK  status: ('A' for Active; 'I' for Inactive)
REMARK    1  A    between atoms: O_4  and  C_9
REMARK    2  A    between atoms: N_6  and  C_8
REMARK    3  A    between atoms: N_6  and  C_13
REMARK    4  A    between atoms: N_7  and  C_12
REMARK    5  A    between atoms: C_10  and  C_12
REMARK    6  A    between atoms: C_13  and  C_14
REMARK    7  A    between atoms: C_15  and  C_18
REMARK                            x       y       z     vdW  Elec       q    Type
REMARK                         _______ _______ _______ _____ _____    ______ ____
ROOT
ATOM      3  O   UNL     1       0.456  -0.819   0.106  0.00  0.00    -0.371 OA
ATOM      8  C   UNL     1      -1.617   0.251  -0.339  0.00  0.00    +0.111 C 
ATOM      9  C   UNL     1      -0.749   1.181   0.487  0.00  0.00    +0.164 C 
ATOM     10  C   UNL     1       0.635   0.603   0.222  0.00  0.00    +0.165 C 
ATOM     11  C   UNL     1      -0.943  -1.089  -0.093  0.00  0.00    +0.181 C 
ENDROOT
BRANCH   9   4
ATOM      4  O   UNL     1      -0.845   2.530   0.073  0.00  0.00    -0.388 OA
ATOM     28  H   UNL     1      -0.617   2.577  -0.871  0.00  0.00    +0.210 HD
ENDBRANCH   9   4
BRANCH   8   6
ATOM      6  N   UNL     1      -3.018   0.259   0.052  0.00  0.00    -0.305 NA
ATOM     27  H   UNL     1      -3.323   1.225   0.176  0.00  0.00    +0.123 HD
BRANCH   6  13
ATOM     13  C   UNL     1      -3.851  -0.373  -0.964  0.00  0.00    +0.116 C 
BRANCH  13  14
ATOM      1  F   UNL     1      -9.287  -0.430   0.519  0.00  0.00    -0.205 F 
ATOM     14  C   UNL     1      -5.303  -0.388  -0.568  0.00  0.00    -0.033 A 
ATOM     16  C   UNL     1      -5.818  -1.466   0.152  0.00  0.00    +0.008 A 
ATOM     17  C   UNL     1      -6.134   0.675  -0.921  0.00  0.00    +0.008 A 
ATOM     19  C   UNL     1      -7.164  -1.480   0.519  0.00  0.00    +0.038 A 
ATOM     20  C   UNL     1      -7.480   0.661  -0.554  0.00  0.00    +0.038 A 
ATOM     21  C   UNL     1      -7.995  -0.417   0.166  0.00  0.00    +0.123 A 
ENDBRANCH  13  14
ENDBRANCH   6  13
ENDBRANCH   8   6
BRANCH  10  12
ATOM     12  C   UNL     1       1.634   0.907   1.323  0.00  0.00    +0.138 C 
BRANCH  12   7
ATOM      5  O   UNL     1       3.779   2.168  -0.110  0.00  0.00    -0.270 OA
ATOM      7  N   UNL     1       2.920   0.340   1.033  0.00  0.00    -0.309 N 
ATOM     15  C   UNL     1       3.904   1.027   0.328  0.00  0.00    +0.244 C 
ATOM     29  H   UNL     1       3.063  -0.626   1.306  0.00  0.00    +0.149 HD
BRANCH  15  18
ATOM      2  F   UNL     1       8.697  -1.750  -0.585  0.00  0.00    -0.205 F 
ATOM     18  C   UNL     1       5.172   0.292   0.086  0.00  0.00    +0.037 A 
ATOM     22  C   UNL     1       5.961   0.608  -1.020  0.00  0.00    +0.016 A 
ATOM     23  C   UNL     1       5.574  -0.714   0.965  0.00  0.00    +0.016 A 
ATOM     24  C   UNL     1       7.152  -0.082  -1.247  0.00  0.00    +0.039 A 
ATOM     25  C   UNL     1       6.764  -1.404   0.738  0.00  0.00    +0.039 A 
ATOM     26  C   UNL     1       7.553  -1.088  -0.368  0.00  0.00    +0.123 A 
ENDBRANCH  15  18
ENDBRANCH  12   7
ENDBRANCH  10  12
TORSDOF 7
