REMARK  Name = 7134370
REMARK  13 active torsions:
REMARK  status: ('A' for Active; 'I' for Inactive)
REMARK    1  A    between atoms: S_1  and  N_12
REMARK    2  A    between atoms: S_1  and  C_24
REMARK    3  A    between atoms: O_7  and  C_23
REMARK    4  A    between atoms: O_7  and  C_30
REMARK    5  A    between atoms: O_9  and  C_37
REMARK    6  A    between atoms: N_12  and  C_15
REMARK    7  A    between atoms: N_13  and  C_22
REMARK    8  A    between atoms: C_17  and  C_20
REMARK    9  A    between atoms: C_21  and  C_23
REMARK   10  A    between atoms: C_22  and  C_25
REMARK   11  A    between atoms: C_22  and  C_26
REMARK   12  A    between atoms: C_25  and  C_27
REMARK   13  A    between atoms: C_30  and  C_37
REMARK                            x       y       z     vdW  Elec       q    Type
REMARK                         _______ _______ _______ _____ _____    ______ ____
ROOT
ATOM      4  O   UNL     1      -3.841   2.550   1.092  0.00  0.00    -0.273 OA
ATOM     11  N   UNL     1      -1.827   1.751   0.239  0.00  0.00    -0.288 N 
ATOM     15  C   UNL     1       0.966   2.261  -0.415  0.00  0.00    +0.080 C 
ATOM     16  C   UNL     1       0.131   1.296  -1.258  0.00  0.00    +0.052 C 
ATOM     17  C   UNL     1      -1.073   0.727  -0.504  0.00  0.00    +0.163 C 
ATOM     18  C   UNL     1       0.079   3.338   0.202  0.00  0.00    +0.039 C 
ATOM     19  C   UNL     1      -1.038   2.708   1.024  0.00  0.00    +0.110 C 
ATOM     21  C   UNL     1      -3.221   1.772   0.361  0.00  0.00    +0.242 C 
ENDROOT
BRANCH  17  20
ATOM      3  O   UNL     1      -0.430  -0.052   1.660  0.00  0.00    -0.274 OA
ATOM     13  N   UNL     1      -0.597  -1.583  -0.086  0.00  0.00    -0.302 N 
ATOM     20  C   UNL     1      -0.673  -0.326   0.487  0.00  0.00    +0.234 C 
ATOM     39  H   UNL     1      -0.872  -1.701  -1.057  0.00  0.00    +0.150 HD
BRANCH  13  22
ATOM     22  C   UNL     1      -0.210  -2.765   0.651  0.00  0.00    +0.163 C 
BRANCH  22  26
ATOM      8  O   UNL     1      -2.582  -3.283   0.769  0.00  0.00    -0.274 OA
ATOM     14  N   UNL     1      -1.228  -3.933   2.506  0.00  0.00    -0.328 N 
ATOM     26  C   UNL     1      -1.471  -3.325   1.293  0.00  0.00    +0.231 C 
ATOM     40  H   UNL     1      -1.981  -4.361   3.035  0.00  0.00    +0.145 HD
ATOM     41  H   UNL     1      -0.300  -3.982   2.916  0.00  0.00    +0.145 HD
ENDBRANCH  22  26
BRANCH  22  25
ATOM     25  C   UNL     1       0.445  -3.820  -0.248  0.00  0.00    +0.067 C 
BRANCH  25  27
ATOM     27  C   UNL     1       1.892  -3.514  -0.548  0.00  0.00    -0.045 A 
ATOM     32  C   UNL     1       2.225  -2.747  -1.665  0.00  0.00    +0.004 A 
ATOM     33  C   UNL     1       2.896  -3.998   0.290  0.00  0.00    +0.004 A 
ATOM     34  C   UNL     1       3.563  -2.464  -1.942  0.00  0.00    +0.000 A 
ATOM     35  C   UNL     1       4.233  -3.715   0.013  0.00  0.00    +0.000 A 
ATOM     36  C   UNL     1       4.566  -2.948  -1.103  0.00  0.00    +0.000 A 
ENDBRANCH  25  27
ENDBRANCH  22  25
ENDBRANCH  13  22
ENDBRANCH  17  20
BRANCH  15  12
ATOM     12  N   UNL     1       1.992   2.900  -1.275  0.00  0.00    -0.186 NA
ATOM     38  H   UNL     1       2.022   3.926  -1.207  0.00  0.00    +0.148 HD
BRANCH  12   1
ATOM      1  S   UNL     1       3.506   2.118  -1.423  0.00  0.00    +0.065 S 
ATOM      5  O   UNL     1       4.412   2.961  -2.179  0.00  0.00    -0.153 OA
ATOM      6  O   UNL     1       3.284   0.733  -1.789  0.00  0.00    -0.153 OA
BRANCH   1  24
ATOM      2  S   UNL     1       4.716   3.509   0.883  0.00  0.00    -0.077 S 
ATOM     24  C   UNL     1       4.212   2.013   0.221  0.00  0.00    +0.142 A 
ATOM     28  C   UNL     1       4.440   0.963   1.083  0.00  0.00    +0.036 A 
ATOM     29  C   UNL     1       5.036   1.393   2.304  0.00  0.00    +0.010 A 
ATOM     31  C   UNL     1       5.241   2.755   2.328  0.00  0.00    +0.047 A 
ENDBRANCH   1  24
ENDBRANCH  12   1
ENDBRANCH  15  12
BRANCH  21  23
ATOM     23  C   UNL     1      -3.992   0.778  -0.473  0.00  0.00    +0.256 C 
BRANCH  23   7
ATOM      7  O   UNL     1      -5.352   0.961  -0.160  0.00  0.00    -0.359 OA
BRANCH   7  30
ATOM     30  C   UNL     1      -6.194   0.071  -0.891  0.00  0.00    +0.280 C 
BRANCH  30  37
ATOM     10  O   UNL     1      -8.032   1.120   0.303  0.00  0.00    -0.248 OA
ATOM     37  C   UNL     1      -7.631   0.309  -0.518  0.00  0.00    +0.331 C 
BRANCH  37   9
ATOM      9  O   UNL     1      -8.442  -0.512  -1.232  0.00  0.00    -0.479 OA
ATOM     42  H   UNL     1      -9.388  -0.377  -1.008  0.00  0.00    +0.295 HD
ENDBRANCH  37   9
ENDBRANCH  30  37
ENDBRANCH   7  30
ENDBRANCH  23   7
ENDBRANCH  21  23
TORSDOF 13
