REMARK  Name = 45784263
REMARK  4 active torsions:
REMARK  status: ('A' for Active; 'I' for Inactive)
REMARK    1  A    between atoms: N_6  and  C_14
REMARK    2  A    between atoms: C_9  and  C_13
REMARK    3  A    between atoms: C_14  and  C_15
REMARK    4  A    between atoms: C_22  and  C_26
REMARK                            x       y       z     vdW  Elec       q    Type
REMARK                         _______ _______ _______ _____ _____    ______ ____
ROOT
ATOM      6  N   UNL     1      -2.351  -0.394  -0.152  0.00  0.00    -0.297 NA
ATOM      9  C   UNL     1      -0.147  -0.745   0.569  0.00  0.00    +0.070 C 
ATOM     10  C   UNL     1      -0.912   0.068   1.628  0.00  0.00    +0.028 C 
ATOM     11  C   UNL     1      -1.015  -0.652  -0.693  0.00  0.00    +0.096 C 
ATOM     12  C   UNL     1      -2.145   0.596   0.906  0.00  0.00    +0.085 C 
ENDROOT
BRANCH   9  13
ATOM      7  N   UNL     1       2.329  -1.156   0.541  0.00  0.00    -0.342 N 
ATOM      8  N   UNL     1       1.680   0.882  -0.064  0.00  0.00    -0.232 NA
ATOM     13  C   UNL     1       1.279  -0.303   0.338  0.00  0.00    +0.113 A 
ATOM     16  C   UNL     1       3.483  -0.475   0.250  0.00  0.00    +0.067 A 
ATOM     17  C   UNL     1       3.051   0.794  -0.125  0.00  0.00    +0.089 A 
ATOM     18  C   UNL     1       4.827  -0.849   0.282  0.00  0.00    +0.040 A 
ATOM     19  C   UNL     1       4.003   1.760  -0.492  0.00  0.00    +0.030 A 
ATOM     22  C   UNL     1       5.760   0.125  -0.087  0.00  0.00    +0.057 A 
ATOM     23  C   UNL     1       5.358   1.407  -0.468  0.00  0.00    +0.014 A 
ATOM     28  H   UNL     1       2.269  -2.117   0.850  0.00  0.00    +0.167 HD
BRANCH  22  26
ATOM      2  F   UNL     1       8.000   0.833  -0.457  0.00  0.00    -0.166 F 
ATOM      3  F   UNL     1       7.676  -0.590   1.155  0.00  0.00    -0.166 F 
ATOM      4  F   UNL     1       7.542  -1.244  -0.908  0.00  0.00    -0.166 F 
ATOM     26  C   UNL     1       7.215  -0.215  -0.074  0.00  0.00    +0.417 C 
ENDBRANCH  22  26
ENDBRANCH   9  13
BRANCH   6  14
ATOM     14  C   UNL     1      -3.282   0.069  -1.170  0.00  0.00    +0.119 C 
BRANCH  14  15
ATOM      1  F   UNL     1      -7.462   1.959   0.498  0.00  0.00    -0.202 F 
ATOM      5  F   UNL     1      -8.642  -0.507   0.472  0.00  0.00    -0.202 F 
ATOM     15  C   UNL     1      -4.714  -0.085  -0.731  0.00  0.00    -0.030 A 
ATOM     20  C   UNL     1      -5.439   1.030  -0.311  0.00  0.00    +0.046 A 
ATOM     21  C   UNL     1      -5.317  -1.343  -0.745  0.00  0.00    +0.008 A 
ATOM     24  C   UNL     1      -6.766   0.888   0.095  0.00  0.00    +0.159 A 
ATOM     25  C   UNL     1      -6.644  -1.486  -0.339  0.00  0.00    +0.041 A 
ATOM     27  C   UNL     1      -7.368  -0.370   0.081  0.00  0.00    +0.158 A 
ENDBRANCH  14  15
ENDBRANCH   6  14
TORSDOF 4
