REMARK  Name = 11912942
REMARK  11 active torsions:
REMARK  status: ('A' for Active; 'I' for Inactive)
REMARK    1  A    between atoms: O_4  and  C_24
REMARK    2  A    between atoms: N_6  and  C_13
REMARK    3  A    between atoms: N_7  and  C_16
REMARK    4  A    between atoms: C_10  and  C_17
REMARK    5  A    between atoms: C_10  and  C_21
REMARK    6  A    between atoms: C_17  and  C_23
REMARK    7  A    between atoms: C_21  and  C_24
REMARK    8  A    between atoms: C_26  and  C_27
REMARK    9  A    between atoms: C_27  and  C_30
REMARK   10  A    between atoms: C_27  and  C_31
REMARK   11  A    between atoms: C_27  and  C_32
REMARK                            x       y       z     vdW  Elec       q    Type
REMARK                         _______ _______ _______ _____ _____    ______ ____
ROOT
ATOM      1  O   UNL     1       0.913  -2.089  -1.744  0.00  0.00    -0.370 OA
ATOM      2  O   UNL     1       0.110  -3.360   0.991  0.00  0.00    -0.370 OA
ATOM     11  C   UNL     1      -0.300  -2.167   0.301  0.00  0.00    +0.171 C 
ATOM     12  C   UNL     1       0.925  -1.602  -0.391  0.00  0.00    +0.171 C 
ATOM     13  C   UNL     1      -1.238  -2.512  -0.834  0.00  0.00    +0.130 C 
ATOM     16  C   UNL     1       2.086  -2.198   0.370  0.00  0.00    +0.130 C 
ATOM     20  C   UNL     1      -0.276  -2.865  -1.954  0.00  0.00    +0.185 C 
ATOM     22  C   UNL     1       1.527  -3.527   0.843  0.00  0.00    +0.185 C 
ENDROOT
BRANCH  16   7
ATOM      7  N   UNL     1       2.417  -1.362   1.503  0.00  0.00    -0.306 N 
ATOM      8  N   UNL     1       3.771   0.014   0.212  0.00  0.00    -0.219 NA
ATOM      9  N   UNL     1       3.462   0.417   2.568  0.00  0.00    -0.223 NA
ATOM     25  C   UNL     1       3.253  -0.262   1.424  0.00  0.00    +0.216 A 
ATOM     26  C   UNL     1       4.581   1.093   0.172  0.00  0.00    +0.052 A 
ATOM     28  C   UNL     1       4.282   1.483   2.455  0.00  0.00    +0.116 A 
ATOM     29  C   UNL     1       4.875   1.872   1.272  0.00  0.00    +0.043 A 
ATOM     34  H   UNL     1       1.982  -1.544   2.400  0.00  0.00    +0.149 HD
BRANCH  26  27
ATOM     27  C   UNL     1       5.176   1.435  -1.152  0.00  0.00    +0.005 C 
ATOM     30  C   UNL     1       6.735   1.397  -1.098  0.00  0.00    +0.017 C 
ATOM     31  C   UNL     1       4.756   2.867  -1.608  0.00  0.00    +0.017 C 
ATOM     32  C   UNL     1       4.777   0.489  -2.333  0.00  0.00    +0.017 C 
ENDBRANCH  26  27
ENDBRANCH  16   7
BRANCH  13   6
ATOM      3  O   UNL     1      -3.911  -1.929   0.110  0.00  0.00    -0.276 OA
ATOM      6  N   UNL     1      -2.063  -1.383  -1.190  0.00  0.00    -0.308 N 
ATOM     23  C   UNL     1      -3.341  -1.185  -0.684  0.00  0.00    +0.214 C 
ATOM     33  H   UNL     1      -1.666  -0.692  -1.820  0.00  0.00    +0.149 HD
BRANCH  23  17
ATOM     17  C   UNL     1      -3.970   0.083  -1.231  0.00  0.00    +0.103 C 
BRANCH  17  10
ATOM     10  C   UNL     1      -3.701   1.302  -0.345  0.00  0.00    -0.011 C 
ATOM     14  C   UNL     1      -4.196   2.598  -1.002  0.00  0.00    +0.008 C 
ATOM     15  C   UNL     1      -2.198   1.579  -0.205  0.00  0.00    +0.008 C 
ATOM     18  C   UNL     1      -3.383   3.711  -0.345  0.00  0.00    +0.001 C 
ATOM     19  C   UNL     1      -2.099   3.056   0.166  0.00  0.00    +0.001 C 
BRANCH  10  21
ATOM     21  C   UNL     1      -4.359   1.085   1.027  0.00  0.00    +0.127 C 
BRANCH  21  24
ATOM      5  O   UNL     1      -6.668   1.553   0.398  0.00  0.00    -0.251 OA
ATOM     24  C   UNL     1      -5.829   0.814   0.891  0.00  0.00    +0.305 C 
BRANCH  24   4
ATOM      4  O   UNL     1      -6.112  -0.408   1.409  0.00  0.00    -0.481 OA
ATOM     35  H   UNL     1      -7.066  -0.624   1.337  0.00  0.00    +0.295 HD
ENDBRANCH  24   4
ENDBRANCH  21  24
ENDBRANCH  10  21
ENDBRANCH  17  10
ENDBRANCH  23  17
ENDBRANCH  13   6
TORSDOF 8
