REMARK  Name = 7142743
REMARK  6 active torsions:
REMARK  status: ('A' for Active; 'I' for Inactive)
REMARK    1  A    between atoms: O_4  and  C_22
REMARK    2  A    between atoms: O_4  and  C_25
REMARK    3  A    between atoms: N_8  and  C_19
REMARK    4  A    between atoms: C_18  and  C_21
REMARK    5  A    between atoms: C_21  and  C_22
REMARK    6  A    between atoms: C_23  and  C_24
REMARK                            x       y       z     vdW  Elec       q    Type
REMARK                         _______ _______ _______ _____ _____    ______ ____
ROOT
ATOM      2  O   UNL     1       0.704   1.257   2.035  0.00  0.00    -0.266 OA
ATOM      3  O   UNL     1      -3.491  -1.984   1.279  0.00  0.00    -0.276 OA
ATOM      6  N   UNL     1      -3.674  -0.077  -0.036  0.00  0.00    -0.300 N 
ATOM      7  N   UNL     1      -1.000   1.600   0.474  0.00  0.00    -0.310 N 
ATOM      9  C   UNL     1      -3.417   2.106   1.150  0.00  0.00    +0.027 C 
ATOM     10  C   UNL     1      -2.826   1.934  -1.231  0.00  0.00    +0.054 C 
ATOM     11  C   UNL     1      -3.493   2.830  -0.189  0.00  0.00    +0.018 C 
ATOM     12  C   UNL     1      -4.146   0.753   1.074  0.00  0.00    +0.113 C 
ATOM     13  C   UNL     1      -1.944   1.946   1.545  0.00  0.00    +0.130 C 
ATOM     14  C   UNL     1      -3.596   0.603  -1.337  0.00  0.00    +0.117 C 
ATOM     15  C   UNL     1      -1.377   1.663  -0.871  0.00  0.00    +0.027 A 
ATOM     16  C   UNL     1      -0.467   1.455  -1.838  0.00  0.00    +0.024 A 
ATOM     17  C   UNL     1       0.322   1.306   0.866  0.00  0.00    +0.273 A 
ATOM     18  C   UNL     1      -3.420  -1.432   0.178  0.00  0.00    +0.218 C 
ATOM     19  C   UNL     1       1.299   1.057  -0.241  0.00  0.00    +0.099 A 
ATOM     20  C   UNL     1       0.897   1.145  -1.513  0.00  0.00    +0.030 A 
ENDROOT
BRANCH  19   8
ATOM      5  O   UNL     1       3.119  -0.516  -1.776  0.00  0.00    -0.269 OA
ATOM      8  N   UNL     1       2.586   0.756   0.097  0.00  0.00    -0.277 N 
ATOM     23  C   UNL     1       3.424  -0.017  -0.696  0.00  0.00    +0.255 C 
ATOM     29  H   UNL     1       2.871   0.955   1.052  0.00  0.00    +0.155 HD
BRANCH  23  24
ATOM      1  S   UNL     1       5.181   0.504   1.301  0.00  0.00    -0.092 S 
ATOM     24  C   UNL     1       4.800  -0.218  -0.172  0.00  0.00    +0.074 A 
ATOM     26  C   UNL     1       5.786  -0.920  -0.750  0.00  0.00    +0.021 A 
ATOM     27  C   UNL     1       6.957  -0.877   0.061  0.00  0.00    +0.008 A 
ATOM     28  C   UNL     1       6.766  -0.136   1.207  0.00  0.00    +0.046 A 
ENDBRANCH  23  24
ENDBRANCH  19   8
BRANCH  18  21
ATOM     21  C   UNL     1      -3.029  -2.245  -1.030  0.00  0.00    +0.124 C 
BRANCH  21  22
ATOM     22  C   UNL     1      -2.792  -3.682  -0.618  0.00  0.00    +0.168 C 
BRANCH  22   4
ATOM      4  O   UNL     1      -1.720  -3.738   0.315  0.00  0.00    -0.382 OA
ATOM     25  C   UNL     1      -1.450  -5.074   0.718  0.00  0.00    +0.194 C 
ENDBRANCH  22   4
ENDBRANCH  21  22
ENDBRANCH  18  21
TORSDOF 5
