REMARK  Name = 11912185
REMARK  6 active torsions:
REMARK  status: ('A' for Active; 'I' for Inactive)
REMARK    1  A    between atoms: O_4  and  C_19
REMARK    2  A    between atoms: O_4  and  C_26
REMARK    3  A    between atoms: N_7  and  C_13
REMARK    4  A    between atoms: N_8  and  C_14
REMARK    5  A    between atoms: C_18  and  C_19
REMARK    6  A    between atoms: C_20  and  C_23
REMARK                            x       y       z     vdW  Elec       q    Type
REMARK                         _______ _______ _______ _____ _____    ______ ____
ROOT
ATOM      7  N   UNL     1       0.542  -2.606  -0.028  0.00  0.00    -0.306 N 
ATOM      9  N   UNL     1      -1.417  -1.334  -0.250  0.00  0.00    -0.214 NA
ATOM     10  N   UNL     1      -0.854  -3.031  -1.865  0.00  0.00    -0.223 NA
ATOM     17  C   UNL     1      -0.611  -2.315  -0.736  0.00  0.00    +0.216 A 
ATOM     20  C   UNL     1      -2.532  -1.076  -0.965  0.00  0.00    +0.076 A 
ATOM     21  C   UNL     1      -1.986  -2.721  -2.531  0.00  0.00    +0.116 A 
ATOM     22  C   UNL     1      -2.872  -1.744  -2.124  0.00  0.00    +0.048 A 
ATOM     31  H   UNL     1       1.161  -3.302  -0.427  0.00  0.00    +0.149 HD
ENDROOT
BRANCH  20  23
ATOM      5  O   UNL     1      -6.869   1.077  -0.228  0.00  0.00    -0.453 OA
ATOM      6  O   UNL     1      -5.879   2.882   1.024  0.00  0.00    -0.453 OA
ATOM     23  C   UNL     1      -3.374  -0.031  -0.433  0.00  0.00    +0.004 A 
ATOM     24  C   UNL     1      -4.755  -0.071  -0.647  0.00  0.00    +0.059 A 
ATOM     25  C   UNL     1      -2.798   1.026   0.299  0.00  0.00    +0.014 A 
ATOM     27  C   UNL     1      -5.518   0.951  -0.120  0.00  0.00    +0.167 A 
ATOM     28  C   UNL     1      -4.953   1.981   0.596  0.00  0.00    +0.166 A 
ATOM     29  C   UNL     1      -3.594   2.048   0.823  0.00  0.00    +0.050 A 
ATOM     30  C   UNL     1      -7.090   2.302   0.499  0.00  0.00    +0.466 C 
ENDBRANCH  20  23
BRANCH   7  13
ATOM      1  O   UNL     1       3.253  -2.339   1.441  0.00  0.00    -0.370 OA
ATOM      2  O   UNL     1       1.613   0.266   1.956  0.00  0.00    -0.370 OA
ATOM     11  C   UNL     1       1.677  -0.656   0.854  0.00  0.00    +0.171 C 
ATOM     12  C   UNL     1       3.120  -1.101   0.723  0.00  0.00    +0.171 C 
ATOM     13  C   UNL     1       0.927  -1.924   1.188  0.00  0.00    +0.130 C 
ATOM     14  C   UNL     1       3.906  -0.008   1.410  0.00  0.00    +0.130 C 
ATOM     15  C   UNL     1       1.966  -2.736   1.939  0.00  0.00    +0.185 C 
ATOM     16  C   UNL     1       2.936   0.471   2.475  0.00  0.00    +0.185 C 
BRANCH  14   8
ATOM      3  O   UNL     1       6.360   0.303  -0.101  0.00  0.00    -0.273 OA
ATOM      8  N   UNL     1       4.238   1.053   0.490  0.00  0.00    -0.306 N 
ATOM     18  C   UNL     1       5.446   1.118  -0.192  0.00  0.00    +0.239 C 
ATOM     32  H   UNL     1       3.530   1.757   0.298  0.00  0.00    +0.149 HD
BRANCH  18  19
ATOM     19  C   UNL     1       5.520   2.336  -1.087  0.00  0.00    +0.255 C 
BRANCH  19   4
ATOM      4  O   UNL     1       6.751   2.372  -1.779  0.00  0.00    -0.374 OA
ATOM     26  C   UNL     1       6.849   3.509  -2.631  0.00  0.00    +0.194 C 
ENDBRANCH  19   4
ENDBRANCH  18  19
ENDBRANCH  14   8
ENDBRANCH   7  13
TORSDOF 5
