REMARK  Name = 7155437
REMARK  5 active torsions:
REMARK  status: ('A' for Active; 'I' for Inactive)
REMARK    1  A    between atoms: S_1  and  N_6
REMARK    2  A    between atoms: S_1  and  C_20
REMARK    3  A    between atoms: N_8  and  C_30
REMARK    4  A    between atoms: C_16  and  C_21
REMARK    5  A    between atoms: C_32  and  C_33
REMARK                            x       y       z     vdW  Elec       q    Type
REMARK                         _______ _______ _______ _____ _____    ______ ____
ROOT
ATOM      4  O   UNL     1      -4.821   3.087  -0.047  0.00  0.00    -0.268 OA
ATOM      6  N   UNL     1      -0.136   1.493  -0.241  0.00  0.00    -0.176 NA
ATOM      7  N   UNL     1      -3.179   1.534   0.568  0.00  0.00    -0.311 N 
ATOM      9  C   UNL     1      -1.118   2.225   1.928  0.00  0.00    +0.025 C 
ATOM     10  C   UNL     1      -1.382  -0.106   1.204  0.00  0.00    +0.053 C 
ATOM     11  C   UNL     1      -1.140   0.787   2.418  0.00  0.00    +0.017 C 
ATOM     12  C   UNL     1       0.007   2.437   0.903  0.00  0.00    +0.114 C 
ATOM     13  C   UNL     1      -0.225   0.070   0.201  0.00  0.00    +0.119 C 
ATOM     14  C   UNL     1      -2.495   2.568   1.357  0.00  0.00    +0.130 C 
ATOM     15  C   UNL     1      -2.727   0.199   0.539  0.00  0.00    +0.034 A 
ATOM     16  C   UNL     1      -3.471  -0.753  -0.082  0.00  0.00    +0.002 A 
ATOM     17  C   UNL     1      -4.373   1.940  -0.054  0.00  0.00    +0.252 A 
ATOM     18  C   UNL     1      -4.706  -0.371  -0.739  0.00  0.00    +0.015 A 
ATOM     19  C   UNL     1      -5.145   0.888  -0.753  0.00  0.00    +0.071 A 
ENDROOT
BRANCH  16  21
ATOM     21  C   UNL     1      -3.048  -2.170  -0.122  0.00  0.00    -0.016 A 
ATOM     24  C   UNL     1      -2.241  -2.622  -1.162  0.00  0.00    +0.008 A 
ATOM     25  C   UNL     1      -3.459  -3.042   0.882  0.00  0.00    +0.008 A 
ATOM     28  C   UNL     1      -1.843  -3.958  -1.200  0.00  0.00    +0.001 A 
ATOM     29  C   UNL     1      -3.060  -4.378   0.844  0.00  0.00    +0.001 A 
ATOM     31  C   UNL     1      -2.252  -4.836  -0.196  0.00  0.00    +0.000 A 
ENDBRANCH  16  21
BRANCH   6   1
ATOM      1  S   UNL     1       0.886   1.791  -1.580  0.00  0.00    +0.061 S 
ATOM      2  O   UNL     1       0.999   3.220  -1.782  0.00  0.00    -0.153 OA
ATOM      3  O   UNL     1       0.506   0.913  -2.667  0.00  0.00    -0.153 OA
BRANCH   1  20
ATOM     20  C   UNL     1       2.424   1.215  -0.931  0.00  0.00    +0.106 A 
ATOM     22  C   UNL     1       2.779  -0.112  -1.106  0.00  0.00    +0.030 A 
ATOM     23  C   UNL     1       3.249   2.101  -0.258  0.00  0.00    +0.030 A 
ATOM     26  C   UNL     1       3.994  -0.566  -0.594  0.00  0.00    +0.025 A 
ATOM     27  C   UNL     1       4.464   1.646   0.254  0.00  0.00    +0.025 A 
ATOM     30  C   UNL     1       4.837   0.313   0.086  0.00  0.00    +0.033 A 
BRANCH  30   8
ATOM      5  O   UNL     1       6.096  -2.421  -0.004  0.00  0.00    -0.276 OA
ATOM      8  N   UNL     1       6.053  -0.142   0.598  0.00  0.00    -0.286 N 
ATOM     32  C   UNL     1       6.592  -1.433   0.528  0.00  0.00    +0.214 C 
ATOM     33  C   UNL     1       7.936  -1.516   1.208  0.00  0.00    +0.109 C 
ATOM     34  H   UNL     1       6.610   0.560   1.081  0.00  0.00    +0.155 HD
ENDBRANCH  30   8
ENDBRANCH   1  20
ENDBRANCH   6   1
TORSDOF 4
