REMARK  Name = 45784367
REMARK  13 active torsions:
REMARK  status: ('A' for Active; 'I' for Inactive)
REMARK    1  A    between atoms: O_1  and  C_10
REMARK    2  A    between atoms: O_4  and  C_36
REMARK    3  A    between atoms: O_4  and  C_37
REMARK    4  A    between atoms: N_5  and  C_14
REMARK    5  A    between atoms: N_6  and  C_24
REMARK    6  A    between atoms: C_7  and  C_17
REMARK    7  A    between atoms: C_9  and  C_19
REMARK    8  A    between atoms: C_13  and  C_18
REMARK    9  A    between atoms: C_18  and  C_20
REMARK   10  A    between atoms: C_18  and  C_21
REMARK   11  A    between atoms: C_22  and  C_23
REMARK   12  A    between atoms: C_23  and  C_25
REMARK   13  A    between atoms: C_24  and  C_26
REMARK                            x       y       z     vdW  Elec       q    Type
REMARK                         _______ _______ _______ _____ _____    ______ ____
ROOT
ATOM      7  C   UNL     1      -0.072  -0.421   1.519  0.00  0.00    -0.027 C 
ATOM      8  C   UNL     1       0.534   0.566   0.467  0.00  0.00    +0.028 C 
ATOM      9  C   UNL     1       2.074   0.766   0.710  0.00  0.00    +0.012 C 
ATOM     10  C   UNL     1      -0.302   1.874   0.373  0.00  0.00    +0.122 C 
ATOM     11  C   UNL     1      -1.559  -0.683   1.183  0.00  0.00    +0.007 C 
ATOM     12  C   UNL     1       0.675  -1.772   1.432  0.00  0.00    +0.009 C 
ATOM     13  C   UNL     1      -1.807   1.602   0.140  0.00  0.00    +0.029 C 
ATOM     14  C   UNL     1       2.804  -0.607   0.695  0.00  0.00    +0.076 C 
ATOM     15  C   UNL     1      -2.390   0.593   1.129  0.00  0.00    +0.007 C 
ATOM     16  C   UNL     1       2.177  -1.638   1.634  0.00  0.00    +0.023 C 
ATOM     17  C   UNL     1       0.023   0.122   2.967  0.00  0.00    +0.011 C 
ATOM     19  C   UNL     1       2.741   1.705  -0.309  0.00  0.00    +0.010 C 
ENDROOT
BRANCH  14   5
ATOM      3  O   UNL     1       4.974  -2.222  -0.286  0.00  0.00    -0.275 OA
ATOM      5  N   UNL     1       4.205  -0.472   1.032  0.00  0.00    -0.312 N 
ATOM     22  C   UNL     1       5.180  -1.303   0.504  0.00  0.00    +0.218 C 
ATOM     38  H   UNL     1       4.458   0.221   1.729  0.00  0.00    +0.149 HD
BRANCH  22  23
ATOM     23  C   UNL     1       6.558  -0.937   1.020  0.00  0.00    +0.130 C 
BRANCH  23  25
ATOM     25  C   UNL     1       7.519  -0.545  -0.072  0.00  0.00    -0.039 A 
ATOM     27  C   UNL     1       8.311  -1.515  -0.686  0.00  0.00    +0.004 A 
ATOM     28  C   UNL     1       7.617   0.789  -0.469  0.00  0.00    +0.004 A 
ATOM     31  C   UNL     1       9.201  -1.151  -1.696  0.00  0.00    +0.000 A 
ATOM     32  C   UNL     1       8.507   1.153  -1.479  0.00  0.00    +0.000 A 
ATOM     33  C   UNL     1       9.299   0.182  -2.093  0.00  0.00    +0.000 A 
ENDBRANCH  23  25
ENDBRANCH  22  23
ENDBRANCH  14   5
BRANCH  10   1
ATOM      1  O   UNL     1       0.148   2.651  -0.739  0.00  0.00    -0.391 OA
ATOM     39  H   UNL     1       0.036   2.118  -1.544  0.00  0.00    +0.210 HD
ENDBRANCH  10   1
BRANCH  13  18
ATOM     18  C   UNL     1      -2.632   2.895   0.181  0.00  0.00    +0.077 C 
ATOM     20  C   UNL     1      -2.469   3.579   1.534  0.00  0.00    +0.017 C 
BRANCH  18  21
ATOM      2  O   UNL     1      -5.003   2.854   0.674  0.00  0.00    -0.276 OA
ATOM      6  N   UNL     1      -4.275   1.978  -1.347  0.00  0.00    -0.311 N 
ATOM     21  C   UNL     1      -4.097   2.586  -0.113  0.00  0.00    +0.216 C 
ATOM     40  H   UNL     1      -3.480   1.839  -1.962  0.00  0.00    +0.149 HD
BRANCH   6  24
ATOM     24  C   UNL     1      -5.573   1.589  -1.846  0.00  0.00    +0.139 C 
BRANCH  24  26
ATOM     26  C   UNL     1      -5.932   0.187  -1.446  0.00  0.00    -0.030 A 
ATOM     29  C   UNL     1      -5.336  -0.896  -2.092  0.00  0.00    +0.009 A 
ATOM     30  C   UNL     1      -6.859  -0.031  -0.427  0.00  0.00    +0.009 A 
ATOM     34  C   UNL     1      -5.668  -2.199  -1.718  0.00  0.00    +0.046 A 
ATOM     35  C   UNL     1      -7.191  -1.334  -0.054  0.00  0.00    +0.046 A 
ATOM     36  C   UNL     1      -6.595  -2.417  -0.699  0.00  0.00    +0.120 A 
BRANCH  36   4
ATOM      4  O   UNL     1      -6.917  -3.688  -0.334  0.00  0.00    -0.495 OA
ATOM     37  C   UNL     1      -7.873  -3.839   0.715  0.00  0.00    +0.277 C 
ENDBRANCH  36   4
ENDBRANCH  24  26
ENDBRANCH   6  24
ENDBRANCH  18  21
ENDBRANCH  13  18
TORSDOF 9
