REMARK  Name = 11879850
REMARK  8 active torsions:
REMARK  status: ('A' for Active; 'I' for Inactive)
REMARK    1  A    between atoms: S_1  and  N_11
REMARK    2  A    between atoms: S_1  and  C_30
REMARK    3  A    between atoms: O_6  and  C_34
REMARK    4  A    between atoms: N_11  and  C_23
REMARK    5  A    between atoms: N_12  and  C_37
REMARK    6  A    between atoms: C_22  and  C_25
REMARK    7  A    between atoms: C_28  and  C_34
REMARK    8  A    between atoms: C_38  and  C_39
REMARK                            x       y       z     vdW  Elec       q    Type
REMARK                         _______ _______ _______ _____ _____    ______ ____
ROOT
ATOM      2  O   UNL     1       0.981   3.768  -0.942  0.00  0.00    -0.266 OA
ATOM      3  O   UNL     1       3.418  -0.539  -2.474  0.00  0.00    -0.270 OA
ATOM      9  N   UNL     1       4.126  -0.061  -0.296  0.00  0.00    -0.297 N 
ATOM     10  N   UNL     1       2.373   2.480   0.433  0.00  0.00    -0.310 N 
ATOM     13  C   UNL     1       4.899   2.277   0.064  0.00  0.00    +0.027 C 
ATOM     14  C   UNL     1       3.829   1.044   1.907  0.00  0.00    +0.054 C 
ATOM     15  C   UNL     1       4.955   2.019   1.566  0.00  0.00    +0.018 C 
ATOM     16  C   UNL     1       5.085   0.961  -0.714  0.00  0.00    +0.113 C 
ATOM     17  C   UNL     1       3.569   2.963  -0.271  0.00  0.00    +0.130 C 
ATOM     18  C   UNL     1       4.050  -0.284   1.157  0.00  0.00    +0.117 C 
ATOM     19  C   UNL     1       2.475   1.621   1.536  0.00  0.00    +0.027 A 
ATOM     20  C   UNL     1       1.379   1.280   2.238  0.00  0.00    +0.024 A 
ATOM     21  C   UNL     1       1.133   3.000   0.007  0.00  0.00    +0.274 A 
ATOM     22  C   UNL     1       3.360  -0.721  -1.260  0.00  0.00    +0.247 C 
ATOM     23  C   UNL     1      -0.041   2.568   0.805  0.00  0.00    +0.112 A 
ATOM     24  C   UNL     1       0.079   1.766   1.863  0.00  0.00    +0.031 A 
ENDROOT
BRANCH  22  25
ATOM     25  C   UNL     1       2.377  -1.707  -0.799  0.00  0.00    +0.038 A 
ATOM     26  C   UNL     1       2.749  -3.042  -0.656  0.00  0.00    +0.028 A 
ATOM     27  C   UNL     1       1.076  -1.305  -0.509  0.00  0.00    +0.013 A 
ATOM     28  C   UNL     1       1.814  -3.980  -0.220  0.00  0.00    +0.060 A 
ATOM     29  C   UNL     1       0.141  -2.243  -0.073  0.00  0.00    +0.002 A 
ATOM     31  C   UNL     1       0.510  -3.581   0.072  0.00  0.00    +0.015 A 
BRANCH  28  34
ATOM      7  O   UNL     1       3.321  -5.836  -0.296  0.00  0.00    -0.245 OA
ATOM     34  C   UNL     1       2.199  -5.374  -0.067  0.00  0.00    +0.337 C 
BRANCH  34   6
ATOM      6  O   UNL     1       1.170  -6.153   0.368  0.00  0.00    -0.477 OA
ATOM     41  H   UNL     1       1.440  -7.091   0.469  0.00  0.00    +0.295 HD
ENDBRANCH  34   6
ENDBRANCH  28  34
ENDBRANCH  22  25
BRANCH  23  11
ATOM     11  N   UNL     1      -1.331   3.012   0.464  0.00  0.00    -0.211 N 
ATOM     40  H   UNL     1      -2.012   2.885   1.227  0.00  0.00    +0.174 HD
BRANCH  11   1
ATOM      1  S   UNL     1      -1.908   2.596  -1.072  0.00  0.00    +0.072 S 
ATOM      4  O   UNL     1      -2.361   3.788  -1.763  0.00  0.00    -0.150 OA
ATOM      5  O   UNL     1      -0.975   1.690  -1.714  0.00  0.00    -0.150 OA
BRANCH   1  30
ATOM     30  C   UNL     1      -3.344   1.658  -0.641  0.00  0.00    +0.109 A 
ATOM     32  C   UNL     1      -3.227   0.292  -0.454  0.00  0.00    +0.030 A 
ATOM     33  C   UNL     1      -4.557   2.308  -0.500  0.00  0.00    +0.030 A 
ATOM     35  C   UNL     1      -4.359  -0.448  -0.114  0.00  0.00    +0.025 A 
ATOM     36  C   UNL     1      -5.690   1.568  -0.160  0.00  0.00    +0.025 A 
ATOM     37  C   UNL     1      -5.591   0.190   0.033  0.00  0.00    +0.033 A 
BRANCH  37  12
ATOM      8  O   UNL     1      -5.916  -2.757   0.555  0.00  0.00    -0.276 OA
ATOM     12  N   UNL     1      -6.724  -0.550   0.373  0.00  0.00    -0.286 N 
ATOM     38  C   UNL     1      -6.819  -1.929   0.604  0.00  0.00    +0.214 C 
ATOM     39  C   UNL     1      -8.228  -2.342   0.948  0.00  0.00    +0.109 C 
ATOM     42  H   UNL     1      -7.584  -0.012   0.461  0.00  0.00    +0.155 HD
ENDBRANCH  37  12
ENDBRANCH   1  30
ENDBRANCH  11   1
ENDBRANCH  23  11
TORSDOF 7
