REMARK  Name = 45783256
REMARK  7 active torsions:
REMARK  status: ('A' for Active; 'I' for Inactive)
REMARK    1  A    between atoms: N_3  and  C_13
REMARK    2  A    between atoms: N_3  and  C_16
REMARK    3  A    between atoms: C_7  and  C_14
REMARK    4  A    between atoms: C_8  and  C_13
REMARK    5  A    between atoms: C_16  and  C_19
REMARK    6  A    between atoms: C_17  and  C_20
REMARK    7  A    between atoms: C_18  and  C_21
REMARK                            x       y       z     vdW  Elec       q    Type
REMARK                         _______ _______ _______ _____ _____    ______ ____
ROOT
ATOM      2  N   UNL     1       0.458   3.061   1.129  0.00  0.00    -0.298 NA
ATOM      6  C   UNL     1      -0.208   2.639  -1.353  0.00  0.00    +0.002 C 
ATOM      7  C   UNL     1      -1.358   2.208  -0.400  0.00  0.00    +0.055 C 
ATOM      8  C   UNL     1       1.540   2.317   0.432  0.00  0.00    +0.071 C 
ATOM      9  C   UNL     1       1.080   1.877  -0.974  0.00  0.00    +0.024 C 
ATOM     10  C   UNL     1       0.055   4.136  -1.085  0.00  0.00    +0.019 C 
ATOM     11  C   UNL     1      -0.813   2.299   1.054  0.00  0.00    +0.094 C 
ATOM     12  C   UNL     1       0.267   4.351   0.424  0.00  0.00    +0.085 C 
ENDROOT
BRANCH   7  14
ATOM      4  N   UNL     1      -1.616   0.169  -1.727  0.00  0.00    -0.237 NA
ATOM      5  N   UNL     1      -3.280  -1.496  -1.210  0.00  0.00    -0.229 NA
ATOM     14  C   UNL     1      -2.059   0.885  -0.673  0.00  0.00    +0.050 A 
ATOM     15  C   UNL     1      -3.093   0.482   0.148  0.00  0.00    +0.055 A 
ATOM     17  C   UNL     1      -3.672  -0.729  -0.172  0.00  0.00    +0.110 A 
ATOM     18  C   UNL     1      -2.261  -0.994  -1.935  0.00  0.00    +0.127 A 
ATOM     21  C   UNL     1      -1.799  -1.815  -3.091  0.00  0.00    +0.088 C 
BRANCH  17  20
ATOM      1  O   UNL     1      -5.237  -2.468   0.174  0.00  0.00    -0.461 OA
ATOM     20  C   UNL     1      -4.761  -1.267   0.599  0.00  0.00    +0.153 A 
ATOM     24  C   UNL     1      -5.457  -0.835   1.704  0.00  0.00    +0.051 A 
ATOM     27  C   UNL     1      -6.422  -1.833   1.976  0.00  0.00    +0.042 A 
ATOM     28  C   UNL     1      -6.247  -2.805   1.018  0.00  0.00    +0.196 A 
ENDBRANCH  17  20
ENDBRANCH   7  14
BRANCH   8  13
ATOM     13  C   UNL     1       2.060   1.137   1.256  0.00  0.00    +0.100 C 
BRANCH  13   3
ATOM      3  N   UNL     1       3.210   0.524   0.612  0.00  0.00    -0.311 NA
ATOM     30  H   UNL     1       3.950   1.218   0.507  0.00  0.00    +0.122 HD
BRANCH   3  16
ATOM     16  C   UNL     1       3.704  -0.607   1.387  0.00  0.00    +0.116 C 
BRANCH  16  19
ATOM     19  C   UNL     1       4.888  -1.264   0.728  0.00  0.00    -0.034 A 
ATOM     22  C   UNL     1       4.692  -2.306  -0.178  0.00  0.00    +0.005 A 
ATOM     23  C   UNL     1       6.180  -0.831   1.024  0.00  0.00    +0.005 A 
ATOM     25  C   UNL     1       5.788  -2.915  -0.789  0.00  0.00    +0.000 A 
ATOM     26  C   UNL     1       7.277  -1.440   0.414  0.00  0.00    +0.000 A 
ATOM     29  C   UNL     1       7.081  -2.482  -0.493  0.00  0.00    +0.000 A 
ENDBRANCH  16  19
ENDBRANCH   3  16
ENDBRANCH  13   3
ENDBRANCH   8  13
TORSDOF 6
