REMARK  Name = 45361539
REMARK  10 active torsions:
REMARK  status: ('A' for Active; 'I' for Inactive)
REMARK    1  A    between atoms: O_2  and  C_12
REMARK    2  A    between atoms: N_5  and  C_16
REMARK    3  A    between atoms: N_6  and  C_26
REMARK    4  A    between atoms: C_9  and  C_19
REMARK    5  A    between atoms: C_11  and  C_21
REMARK    6  A    between atoms: C_15  and  C_20
REMARK    7  A    between atoms: C_20  and  C_22
REMARK    8  A    between atoms: C_20  and  C_23
REMARK    9  A    between atoms: C_24  and  C_25
REMARK   10  A    between atoms: C_26  and  C_28
REMARK                            x       y       z     vdW  Elec       q    Type
REMARK                         _______ _______ _______ _____ _____    ______ ____
ROOT
ATOM      9  C   UNL     1      -0.172   0.267   1.288  0.00  0.00    -0.027 C 
ATOM     10  C   UNL     1      -0.506  -0.504  -0.032  0.00  0.00    +0.028 C 
ATOM     11  C   UNL     1      -2.037  -0.847  -0.107  0.00  0.00    +0.012 C 
ATOM     12  C   UNL     1       0.459  -1.706  -0.242  0.00  0.00    +0.122 C 
ATOM     13  C   UNL     1       1.317   0.688   1.277  0.00  0.00    +0.007 C 
ATOM     14  C   UNL     1      -1.025   1.556   1.349  0.00  0.00    +0.009 C 
ATOM     15  C   UNL     1       1.948  -1.297  -0.148  0.00  0.00    +0.029 C 
ATOM     16  C   UNL     1      -2.886   0.448   0.031  0.00  0.00    +0.076 C 
ATOM     17  C   UNL     1       2.266  -0.491   1.111  0.00  0.00    +0.007 C 
ATOM     18  C   UNL     1      -2.520   1.288   1.254  0.00  0.00    +0.023 C 
ATOM     19  C   UNL     1      -0.440  -0.582   2.557  0.00  0.00    +0.011 C 
ATOM     21  C   UNL     1      -2.441  -1.583  -1.396  0.00  0.00    +0.010 C 
ENDROOT
BRANCH  16   5
ATOM      4  O   UNL     1      -5.014   2.099  -0.965  0.00  0.00    -0.268 OA
ATOM      5  N   UNL     1      -4.304   0.156   0.083  0.00  0.00    -0.307 N 
ATOM     24  C   UNL     1      -5.256   1.021  -0.428  0.00  0.00    +0.264 C 
ATOM     36  H   UNL     1      -4.606  -0.687   0.562  0.00  0.00    +0.149 HD
BRANCH  24  25
ATOM      7  N   UNL     1      -6.876  -0.592   0.342  0.00  0.00    -0.247 NA
ATOM      8  N   UNL     1      -8.997   0.979  -0.606  0.00  0.00    -0.259 NA
ATOM     25  C   UNL     1      -6.670   0.590  -0.273  0.00  0.00    +0.143 A 
ATOM     27  C   UNL     1      -7.711   1.361  -0.739  0.00  0.00    +0.143 A 
ATOM     29  C   UNL     1      -8.162  -0.974   0.474  0.00  0.00    +0.131 A 
ATOM     32  C   UNL     1      -9.203  -0.203   0.009  0.00  0.00    +0.130 A 
ENDBRANCH  24  25
ENDBRANCH  16   5
BRANCH  12   2
ATOM      2  O   UNL     1       0.267  -2.250  -1.549  0.00  0.00    -0.391 OA
ATOM     37  H   UNL     1       0.452  -1.549  -2.198  0.00  0.00    +0.210 HD
ENDBRANCH  12   2
BRANCH  15  20
ATOM     20  C   UNL     1       2.878  -2.514  -0.227  0.00  0.00    +0.077 C 
ATOM     22  C   UNL     1       2.572  -3.483   0.909  0.00  0.00    +0.017 C 
BRANCH  20  23
ATOM      3  O   UNL     1       5.126  -2.433   0.670  0.00  0.00    -0.276 OA
ATOM      6  N   UNL     1       4.643  -1.188  -1.227  0.00  0.00    -0.311 N 
ATOM     23  C   UNL     1       4.334  -2.058  -0.192  0.00  0.00    +0.216 C 
ATOM     38  H   UNL     1       3.946  -0.968  -1.930  0.00  0.00    +0.149 HD
BRANCH   6  26
ATOM     26  C   UNL     1       5.960  -0.619  -1.402  0.00  0.00    +0.141 C 
BRANCH  26  28
ATOM      1 CL   UNL     1       4.611   1.929  -2.504  0.00  0.00    -0.083 Cl
ATOM     28  C   UNL     1       6.128   0.658  -0.630  0.00  0.00    -0.012 A 
ATOM     30  C   UNL     1       5.552   1.853  -1.058  0.00  0.00    +0.046 A 
ATOM     31  C   UNL     1       6.883   0.628   0.542  0.00  0.00    +0.006 A 
ATOM     33  C   UNL     1       5.730   3.019  -0.314  0.00  0.00    +0.020 A 
ATOM     34  C   UNL     1       7.062   1.794   1.287  0.00  0.00    +0.000 A 
ATOM     35  C   UNL     1       6.485   2.990   0.858  0.00  0.00    +0.001 A 
ENDBRANCH  26  28
ENDBRANCH   6  26
ENDBRANCH  20  23
ENDBRANCH  15  20
TORSDOF 7
