REMARK  Name = 26743157
REMARK  8 active torsions:
REMARK  status: ('A' for Active; 'I' for Inactive)
REMARK    1  A    between atoms: O_3  and  C_24
REMARK    2  A    between atoms: O_3  and  C_25
REMARK    3  A    between atoms: N_5  and  C_14
REMARK    4  A    between atoms: C_7  and  C_11
REMARK    5  A    between atoms: C_8  and  C_13
REMARK    6  A    between atoms: C_11  and  C_17
REMARK    7  A    between atoms: C_13  and  C_21
REMARK    8  A    between atoms: C_23  and  C_24
REMARK                            x       y       z     vdW  Elec       q    Type
REMARK                         _______ _______ _______ _____ _____    ______ ____
ROOT
ATOM      4  N   UNL     1       5.789  -1.219   1.206  0.00  0.00    -0.316 NA
ATOM      7  C   UNL     1       3.100  -0.275   0.442  0.00  0.00    +0.004 C 
ATOM      8  C   UNL     1       3.579  -1.726   0.194  0.00  0.00    +0.012 C 
ATOM      9  C   UNL     1       3.905   0.327   1.606  0.00  0.00    +0.019 C 
ATOM     10  C   UNL     1       5.108  -1.802   0.050  0.00  0.00    +0.085 C 
ATOM     12  C   UNL     1       5.413   0.178   1.411  0.00  0.00    +0.081 C 
ATOM     31  H   UNL     1       6.798  -1.280   1.070  0.00  0.00    +0.122 HD
ENDROOT
BRANCH   7  11
ATOM     11  C   UNL     1       3.174   0.626  -0.797  0.00  0.00    +0.099 C 
BRANCH  11  17
ATOM      1  O   UNL     1       3.376   3.031  -0.631  0.00  0.00    -0.276 OA
ATOM      5  N   UNL     1       1.349   2.018  -0.116  0.00  0.00    -0.312 N 
ATOM     17  C   UNL     1       2.677   2.028  -0.516  0.00  0.00    +0.214 C 
ATOM     32  H   UNL     1       0.833   1.146  -0.140  0.00  0.00    +0.149 HD
BRANCH   5  14
ATOM     14  C   UNL     1       0.616   3.219   0.219  0.00  0.00    +0.073 C 
ATOM     15  C   UNL     1      -0.029   3.837  -1.026  0.00  0.00    +0.022 C 
ATOM     16  C   UNL     1      -0.428   2.942   1.306  0.00  0.00    +0.022 C 
ATOM     18  C   UNL     1      -1.211   3.015  -1.541  0.00  0.00    +0.002 C 
ATOM     19  C   UNL     1      -1.609   2.122   0.787  0.00  0.00    +0.002 C 
ATOM     20  C   UNL     1      -2.241   2.762  -0.445  0.00  0.00    +0.000 C 
ENDBRANCH   5  14
ENDBRANCH  11  17
ENDBRANCH   7  11
BRANCH   8  13
ATOM     13  C   UNL     1       2.893  -2.387  -1.002  0.00  0.00    +0.064 C 
BRANCH  13  21
ATOM      2  O   UNL     1      -0.543  -3.147  -0.242  0.00  0.00    -0.356 OA
ATOM      6  N   UNL     1       0.814  -3.446  -0.232  0.00  0.00    -0.083 NA
ATOM     21  C   UNL     1       1.401  -2.408  -0.834  0.00  0.00    +0.084 A 
ATOM     22  C   UNL     1       0.474  -1.433  -1.241  0.00  0.00    +0.074 A 
ATOM     23  C   UNL     1      -0.733  -1.945  -0.846  0.00  0.00    +0.175 A 
BRANCH  23  24
ATOM     24  C   UNL     1      -2.119  -1.472  -0.943  0.00  0.00    +0.306 C 
BRANCH  24   3
ATOM      3  O   UNL     1      -2.690  -1.337   0.362  0.00  0.00    -0.484 OA
BRANCH   3  25
ATOM     25  C   UNL     1      -4.003  -0.965   0.416  0.00  0.00    +0.121 A 
ATOM     26  C   UNL     1      -4.713  -0.738  -0.763  0.00  0.00    +0.045 A 
ATOM     27  C   UNL     1      -4.634  -0.812   1.650  0.00  0.00    +0.045 A 
ATOM     28  C   UNL     1      -6.054  -0.358  -0.708  0.00  0.00    +0.004 A 
ATOM     29  C   UNL     1      -5.975  -0.432   1.706  0.00  0.00    +0.004 A 
ATOM     30  C   UNL     1      -6.685  -0.205   0.527  0.00  0.00    +0.000 A 
ENDBRANCH   3  25
ENDBRANCH  24   3
ENDBRANCH  23  24
ENDBRANCH  13  21
ENDBRANCH   8  13
TORSDOF 8
