REMARK  Name = 45360674
REMARK  11 active torsions:
REMARK  status: ('A' for Active; 'I' for Inactive)
REMARK    1  A    between atoms: N_5  and  C_9
REMARK    2  A    between atoms: N_5  and  C_17
REMARK    3  A    between atoms: N_6  and  C_22
REMARK    4  A    between atoms: N_7  and  C_25
REMARK    5  A    between atoms: N_7  and  C_29
REMARK    6  A    between atoms: N_7  and  C_30
REMARK    7  A    between atoms: C_11  and  C_15
REMARK    8  A    between atoms: C_15  and  C_16
REMARK    9  A    between atoms: C_16  and  C_18
REMARK   10  A    between atoms: C_17  and  C_19
REMARK   11  A    between atoms: C_22  and  C_26
REMARK                            x       y       z     vdW  Elec       q    Type
REMARK                         _______ _______ _______ _____ _____    ______ ____
ROOT
ATOM      1  O   UNL     1      -1.129  -2.178   2.862  0.00  0.00    -0.274 OA
ATOM      3  N   UNL     1      -1.429   0.750   0.702  0.00  0.00    -0.286 NA
ATOM      4  N   UNL     1      -1.975  -0.116   3.315  0.00  0.00    -0.313 N 
ATOM      8  C   UNL     1      -1.289  -0.684   0.990  0.00  0.00    +0.145 C 
ATOM      9  C   UNL     1       0.692   0.274  -0.037  0.00  0.00    +0.070 C 
ATOM     10  C   UNL     1       0.113  -1.045   0.476  0.00  0.00    +0.048 C 
ATOM     11  C   UNL     1      -2.477   1.416   1.466  0.00  0.00    +0.075 C 
ATOM     12  C   UNL     1      -0.088   1.329   0.737  0.00  0.00    +0.104 C 
ATOM     13  C   UNL     1      -2.241   1.259   2.960  0.00  0.00    +0.123 C 
ATOM     14  C   UNL     1      -1.433  -1.049   2.464  0.00  0.00    +0.230 C 
ATOM     34  H   UNL     1      -2.085  -0.379   4.290  0.00  0.00    +0.149 HD
ENDROOT
BRANCH   9   5
ATOM      5  N   UNL     1       2.131   0.373   0.138  0.00  0.00    -0.308 NA
ATOM     35  H   UNL     1       2.405   1.355   0.092  0.00  0.00    +0.123 HD
BRANCH   5  17
ATOM     17  C   UNL     1       2.837  -0.366  -0.901  0.00  0.00    +0.116 C 
BRANCH  17  19
ATOM     19  C   UNL     1       4.327  -0.290  -0.732  0.00  0.00    -0.033 A 
ATOM     20  C   UNL     1       5.009   0.879  -1.071  0.00  0.00    +0.007 A 
ATOM     21  C   UNL     1       5.030  -1.388  -0.236  0.00  0.00    +0.007 A 
ATOM     23  C   UNL     1       6.393   0.950  -0.915  0.00  0.00    +0.023 A 
ATOM     24  C   UNL     1       6.414  -1.317  -0.080  0.00  0.00    +0.023 A 
ATOM     25  C   UNL     1       7.095  -0.149  -0.419  0.00  0.00    +0.029 A 
BRANCH  25   7
ATOM      7  N   UNL     1       8.495  -0.077  -0.260  0.00  0.00    -0.336 N 
ATOM     29  C   UNL     1       9.212   1.133  -0.608  0.00  0.00    +0.129 C 
ATOM     30  C   UNL     1       9.233  -1.210   0.262  0.00  0.00    +0.129 C 
ENDBRANCH  25   7
ENDBRANCH  17  19
ENDBRANCH   5  17
ENDBRANCH   9   5
BRANCH  11  15
ATOM     15  C   UNL     1      -2.641   2.889   1.089  0.00  0.00    +0.029 C 
BRANCH  15  16
ATOM     16  C   UNL     1      -2.835   3.054  -0.412  0.00  0.00    +0.097 C 
BRANCH  16  18
ATOM      2  O   UNL     1      -5.211   2.598  -0.511  0.00  0.00    -0.276 OA
ATOM      6  N   UNL     1      -3.769   1.375  -1.858  0.00  0.00    -0.311 N 
ATOM     18  C   UNL     1      -4.079   2.340  -0.910  0.00  0.00    +0.213 C 
ATOM     36  H   UNL     1      -2.801   1.205  -2.113  0.00  0.00    +0.149 HD
BRANCH   6  22
ATOM     22  C   UNL     1      -4.780   0.557  -2.484  0.00  0.00    +0.139 C 
BRANCH  22  26
ATOM     26  C   UNL     1      -5.033  -0.709  -1.717  0.00  0.00    -0.030 A 
ATOM     27  C   UNL     1      -4.297  -1.858  -2.006  0.00  0.00    +0.005 A 
ATOM     28  C   UNL     1      -6.004  -0.736  -0.716  0.00  0.00    +0.005 A 
ATOM     31  C   UNL     1      -4.531  -3.034  -1.294  0.00  0.00    +0.000 A 
ATOM     32  C   UNL     1      -6.238  -1.912  -0.003  0.00  0.00    +0.000 A 
ATOM     33  C   UNL     1      -5.502  -3.061  -0.292  0.00  0.00    +0.000 A 
ENDBRANCH  22  26
ENDBRANCH   6  22
ENDBRANCH  16  18
ENDBRANCH  15  16
ENDBRANCH  11  15
TORSDOF 9
