REMARK  Name = 75537128
REMARK  3 active torsions:
REMARK  status: ('A' for Active; 'I' for Inactive)
REMARK    1  A    between atoms: N_2  and  C_7
REMARK    2  A    between atoms: N_4  and  C_18
REMARK    3  A    between atoms: C_18  and  C_19
REMARK                            x       y       z     vdW  Elec       q    Type
REMARK                         _______ _______ _______ _____ _____    ______ ____
ROOT
ATOM      1  O   UNL     1       2.731   2.708  -0.112  0.00  0.00    -0.252 OA
ATOM      2  N   UNL     1       2.443   0.368  -0.180  0.00  0.00    -0.281 N 
ATOM      3  N   UNL     1       0.624   1.682  -0.277  0.00  0.00    -0.278 N 
ATOM      4  N   UNL     1      -2.095   1.174   0.232  0.00  0.00    -0.295 NA
ATOM      6  C   UNL     1       0.113   0.341  -0.465  0.00  0.00    +0.109 C 
ATOM      8  C   UNL     1       1.318  -0.551  -0.169  0.00  0.00    +0.133 C 
ATOM      9  C   UNL     1      -1.099   0.102   0.434  0.00  0.00    +0.109 C 
ATOM     12  C   UNL     1       2.022   1.713  -0.185  0.00  0.00    +0.305 C 
ATOM     13  C   UNL     1      -0.294   2.801  -0.306  0.00  0.00    +0.125 C 
ATOM     14  C   UNL     1      -1.520   2.495   0.559  0.00  0.00    +0.104 C 
ENDROOT
BRANCH   2   7
ATOM      7  C   UNL     1       3.805  -0.089  -0.046  0.00  0.00    +0.078 C 
ATOM     10  C   UNL     1       4.238  -0.859  -1.296  0.00  0.00    +0.022 C 
ATOM     11  C   UNL     1       3.970  -0.939   1.216  0.00  0.00    +0.022 C 
ATOM     15  C   UNL     1       5.659  -1.400  -1.161  0.00  0.00    +0.002 C 
ATOM     16  C   UNL     1       5.392  -1.479   1.349  0.00  0.00    +0.002 C 
ATOM     17  C   UNL     1       5.822  -2.244   0.100  0.00  0.00    +0.000 C 
ENDBRANCH   2   7
BRANCH   4  18
ATOM     18  C   UNL     1      -3.286   0.922   1.044  0.00  0.00    +0.119 C 
BRANCH  18  19
ATOM      5  N   UNL     1      -5.791  -2.115  -0.687  0.00  0.00    -0.263 NA
ATOM     19  C   UNL     1      -4.162  -0.141   0.437  0.00  0.00    -0.031 A 
ATOM     20  C   UNL     1      -4.967   0.157  -0.657  0.00  0.00    +0.024 A 
ATOM     21  C   UNL     1      -4.171  -1.425   0.970  0.00  0.00    +0.024 A 
ATOM     22  C   UNL     1      -5.756  -0.856  -1.177  0.00  0.00    +0.111 A 
ATOM     23  C   UNL     1      -4.996  -2.368   0.377  0.00  0.00    +0.111 A 
ENDBRANCH  18  19
ENDBRANCH   4  18
TORSDOF 3
