REMARK  Name = 56774213
REMARK  10 active torsions:
REMARK  status: ('A' for Active; 'I' for Inactive)
REMARK    1  A    between atoms: N_4  and  C_10
REMARK    2  A    between atoms: N_6  and  C_20
REMARK    3  A    between atoms: N_7  and  C_19
REMARK    4  A    between atoms: C_8  and  C_13
REMARK    5  A    between atoms: C_8  and  C_14
REMARK    6  A    between atoms: C_9  and  C_12
REMARK    7  A    between atoms: C_12  and  C_15
REMARK    8  A    between atoms: C_18  and  C_19
REMARK    9  A    between atoms: C_20  and  C_23
REMARK   10  A    between atoms: C_20  and  C_24
REMARK                            x       y       z     vdW  Elec       q    Type
REMARK                         _______ _______ _______ _____ _____    ______ ____
ROOT
ATOM      8  C   UNL     1      -2.225  -1.289  -0.548  0.00  0.00    -0.013 C 
ATOM      9  C   UNL     1      -0.702  -1.097  -0.392  0.00  0.00    +0.004 C 
ATOM     10  C   UNL     1      -2.333   0.248  -0.631  0.00  0.00    +0.081 C 
ATOM     11  C   UNL     1      -1.014   0.307   0.167  0.00  0.00    +0.027 C 
ATOM     13  C   UNL     1      -2.879  -1.941   0.650  0.00  0.00    +0.013 C 
ATOM     14  C   UNL     1      -2.678  -1.980  -1.821  0.00  0.00    +0.013 C 
ENDROOT
BRANCH  10   4
ATOM      2  O   UNL     1      -5.111   0.143  -1.413  0.00  0.00    -0.253 OA
ATOM      4  N   UNL     1      -3.475   0.845   0.073  0.00  0.00    -0.296 N 
ATOM      6  N   UNL     1      -5.681   1.391   0.460  0.00  0.00    -0.297 N 
ATOM     16  C   UNL     1      -4.789   0.739  -0.386  0.00  0.00    +0.300 C 
ATOM     27  H   UNL     1      -3.326   1.369   0.931  0.00  0.00    +0.151 HD
ATOM     28  H   UNL     1      -5.326   1.789   1.324  0.00  0.00    +0.150 HD
BRANCH   6  20
ATOM     20  C   UNL     1      -7.103   1.432   0.212  0.00  0.00    +0.068 C 
ATOM     23  C   UNL     1      -7.789   0.222   0.833  0.00  0.00    +0.027 C 
ATOM     24  C   UNL     1      -7.695   2.733   0.738  0.00  0.00    +0.027 C 
ENDBRANCH   6  20
ENDBRANCH  10   4
BRANCH   9  12
ATOM     12  C   UNL     1       0.028  -2.031   0.583  0.00  0.00    +0.063 C 
BRANCH  12  15
ATOM      1  O   UNL     1       3.505  -2.203  -0.212  0.00  0.00    -0.358 OA
ATOM      5  N   UNL     1       2.186  -2.610  -0.374  0.00  0.00    -0.083 NA
ATOM     15  C   UNL     1       1.487  -1.864   0.486  0.00  0.00    +0.084 A 
ATOM     17  C   UNL     1       2.303  -0.978   1.211  0.00  0.00    +0.072 A 
ATOM     18  C   UNL     1       3.562  -1.231   0.734  0.00  0.00    +0.151 A 
BRANCH  18  19
ATOM     19  C   UNL     1       4.925  -0.670   1.040  0.00  0.00    +0.161 C 
BRANCH  19   7
ATOM      3  O   UNL     1       6.701   2.605  -0.892  0.00  0.00    -0.377 OA
ATOM      7  N   UNL     1       5.119   0.647   0.436  0.00  0.00    -0.291 NA
ATOM     21  C   UNL     1       5.460   0.522  -0.988  0.00  0.00    +0.113 C 
ATOM     22  C   UNL     1       6.169   1.394   1.142  0.00  0.00    +0.113 C 
ATOM     25  C   UNL     1       5.671   1.907  -1.593  0.00  0.00    +0.175 C 
ATOM     26  C   UNL     1       6.362   2.759   0.486  0.00  0.00    +0.175 C 
ENDBRANCH  19   7
ENDBRANCH  18  19
ENDBRANCH  12  15
ENDBRANCH   9  12
TORSDOF 6
