REMARK  Name = 45783685
REMARK  6 active torsions:
REMARK  status: ('A' for Active; 'I' for Inactive)
REMARK    1  A    between atoms: O_2  and  C_24
REMARK    2  A    between atoms: O_2  and  C_25
REMARK    3  A    between atoms: N_3  and  C_11
REMARK    4  A    between atoms: C_7  and  C_12
REMARK    5  A    between atoms: C_11  and  C_13
REMARK    6  A    between atoms: C_16  and  C_19
REMARK                            x       y       z     vdW  Elec       q    Type
REMARK                         _______ _______ _______ _____ _____    ______ ____
ROOT
ATOM      1  O   UNL     1       0.309  -2.736   1.233  0.00  0.00    -0.336 OA
ATOM      4  N   UNL     1       0.331  -0.981  -0.158  0.00  0.00    -0.190 NA
ATOM      5  N   UNL     1       1.620  -2.243   1.248  0.00  0.00    -0.056 NA
ATOM     12  C   UNL     1      -0.384  -1.936   0.380  0.00  0.00    +0.245 A 
ATOM     16  C   UNL     1       1.553  -1.210   0.404  0.00  0.00    +0.204 A 
ENDROOT
BRANCH  16  19
ATOM      6  N   UNL     1       5.031   0.107   0.436  0.00  0.00    -0.221 NA
ATOM     19  C   UNL     1       2.689  -0.387   0.100  0.00  0.00    +0.041 A 
ATOM     21  C   UNL     1       2.583   0.680  -0.785  0.00  0.00    +0.018 A 
ATOM     22  C   UNL     1       3.924  -0.630   0.679  0.00  0.00    +0.126 A 
ATOM     23  C   UNL     1       3.700   1.461  -1.060  0.00  0.00    +0.068 A 
ATOM     24  C   UNL     1       4.890   1.135  -0.429  0.00  0.00    +0.214 A 
BRANCH  24   2
ATOM      2  O   UNL     1       6.005   1.890  -0.684  0.00  0.00    -0.480 OA
ATOM     25  C   UNL     1       7.201   1.513  -0.010  0.00  0.00    +0.279 C 
ENDBRANCH  24   2
ENDBRANCH  16  19
BRANCH  12   7
ATOM      3  N   UNL     1      -2.652  -1.081  -0.181  0.00  0.00    -0.287 NA
ATOM      7  C   UNL     1      -1.849  -2.264   0.187  0.00  0.00    +0.146 C 
ATOM      8  C   UNL     1      -2.088  -3.269  -0.954  0.00  0.00    +0.030 C 
ATOM      9  C   UNL     1      -3.083  -2.588  -1.883  0.00  0.00    +0.017 C 
ATOM     10  C   UNL     1      -3.768  -1.573  -0.989  0.00  0.00    +0.085 C 
BRANCH   3  11
ATOM     11  C   UNL     1      -3.107  -0.314   0.972  0.00  0.00    +0.120 C 
BRANCH  11  13
ATOM     13  C   UNL     1      -3.476   1.097   0.596  0.00  0.00    -0.033 A 
ATOM     14  C   UNL     1      -2.511   2.104   0.635  0.00  0.00    +0.005 A 
ATOM     15  C   UNL     1      -4.782   1.397   0.210  0.00  0.00    +0.005 A 
ATOM     17  C   UNL     1      -2.854   3.411   0.287  0.00  0.00    +0.000 A 
ATOM     18  C   UNL     1      -5.124   2.704  -0.138  0.00  0.00    +0.000 A 
ATOM     20  C   UNL     1      -4.160   3.711  -0.099  0.00  0.00    +0.000 A 
ENDBRANCH  11  13
ENDBRANCH   3  11
ENDBRANCH  12   7
TORSDOF 5
