REMARK  Name = 28962594
REMARK  5 active torsions:
REMARK  status: ('A' for Active; 'I' for Inactive)
REMARK    1  A    between atoms: N_4  and  C_13
REMARK    2  A    between atoms: C_6  and  C_16
REMARK    3  A    between atoms: C_9  and  C_17
REMARK    4  A    between atoms: C_15  and  C_19
REMARK    5  A    between atoms: C_20  and  C_21
REMARK                            x       y       z     vdW  Elec       q    Type
REMARK                         _______ _______ _______ _____ _____    ______ ____
ROOT
ATOM      1  O   UNL     1      -3.023   1.774  -0.103  0.00  0.00    -0.461 OA
ATOM      2  O   UNL     1      -4.787   3.238  -0.298  0.00  0.00    -0.251 OA
ATOM      5  C   UNL     1      -1.679  -0.364  -0.119  0.00  0.00    +0.041 C 
ATOM      6  C   UNL     1      -1.801  -1.852   0.380  0.00  0.00    -0.025 C 
ATOM      7  C   UNL     1      -2.900   0.433   0.375  0.00  0.00    +0.184 C 
ATOM      8  C   UNL     1      -4.177  -0.192  -0.156  0.00  0.00    +0.044 C 
ATOM      9  C   UNL     1      -0.283   0.247   0.216  0.00  0.00    +0.013 C 
ATOM     10  C   UNL     1      -3.177  -2.458  -0.034  0.00  0.00    +0.007 C 
ATOM     11  C   UNL     1      -0.679  -2.680  -0.288  0.00  0.00    +0.009 C 
ATOM     12  C   UNL     1      -4.382  -1.597   0.373  0.00  0.00    +0.008 C 
ATOM     13  C   UNL     1       0.841  -0.642  -0.384  0.00  0.00    +0.076 C 
ATOM     14  C   UNL     1       0.712  -2.122  -0.013  0.00  0.00    +0.023 C 
ATOM     15  C   UNL     1      -5.188   0.878   0.210  0.00  0.00    +0.101 C 
ATOM     16  C   UNL     1      -1.674  -1.979   1.921  0.00  0.00    +0.011 C 
ATOM     17  C   UNL     1      -0.132   1.690  -0.290  0.00  0.00    +0.010 C 
ATOM     18  C   UNL     1      -4.359   2.112  -0.095  0.00  0.00    +0.311 C 
ATOM     19  C   UNL     1      -6.460   0.810  -0.613  0.00  0.00    +0.019 C 
ENDROOT
BRANCH  13   4
ATOM      3  O   UNL     1       3.256  -0.819  -1.927  0.00  0.00    -0.270 OA
ATOM      4  N   UNL     1       2.154  -0.177   0.009  0.00  0.00    -0.308 N 
ATOM     20  C   UNL     1       3.263  -0.309  -0.810  0.00  0.00    +0.244 C 
ATOM     27  H   UNL     1       2.257   0.150   0.964  0.00  0.00    +0.149 HD
BRANCH  20  21
ATOM     21  C   UNL     1       4.543   0.194  -0.250  0.00  0.00    +0.037 A 
ATOM     22  C   UNL     1       5.754  -0.352  -0.676  0.00  0.00    +0.013 A 
ATOM     23  C   UNL     1       4.535   1.215   0.700  0.00  0.00    +0.013 A 
ATOM     24  C   UNL     1       6.956   0.121  -0.151  0.00  0.00    +0.001 A 
ATOM     25  C   UNL     1       5.737   1.689   1.226  0.00  0.00    +0.001 A 
ATOM     26  C   UNL     1       6.948   1.142   0.800  0.00  0.00    +0.000 A 
ENDBRANCH  20  21
ENDBRANCH  13   4
TORSDOF 2
