REMARK  Name = 7682629
REMARK  2 active torsions:
REMARK  status: ('A' for Active; 'I' for Inactive)
REMARK    1  A    between atoms: C_13  and  C_14
REMARK    2  A    between atoms: C_22  and  C_24
REMARK                            x       y       z     vdW  Elec       q    Type
REMARK                         _______ _______ _______ _____ _____    ______ ____
ROOT
ATOM      2  O   UNL     1      -3.010   1.402   2.824  0.00  0.00    -0.268 OA
ATOM      3  O   UNL     1      -2.188  -3.128   0.431  0.00  0.00    -0.270 OA
ATOM      4  N   UNL     1      -2.163   1.189   0.651  0.00  0.00    -0.311 N 
ATOM      5  N   UNL     1      -1.797  -1.423  -1.124  0.00  0.00    -0.297 N 
ATOM      6  C   UNL     1      -1.253   0.932  -1.679  0.00  0.00    +0.054 C 
ATOM      7  C   UNL     1      -3.595   0.293  -1.276  0.00  0.00    +0.027 C 
ATOM      8  C   UNL     1      -2.691   1.151  -2.150  0.00  0.00    +0.018 C 
ATOM      9  C   UNL     1      -1.065   1.329  -0.218  0.00  0.00    +0.030 A 
ATOM     10  C   UNL     1      -3.495   0.803   0.162  0.00  0.00    +0.130 C 
ATOM     11  C   UNL     1      -0.875  -0.551  -1.867  0.00  0.00    +0.117 C 
ATOM     12  C   UNL     1      -3.215  -1.194  -1.397  0.00  0.00    +0.113 C 
ATOM     14  C   UNL     1       0.124   1.765   0.261  0.00  0.00    -0.024 A 
ATOM     19  C   UNL     1      -2.080   1.491   2.022  0.00  0.00    +0.252 A 
ATOM     21  C   UNL     1       0.252   2.095   1.665  0.00  0.00    +0.011 A 
ATOM     22  C   UNL     1      -1.422  -2.396  -0.194  0.00  0.00    +0.247 C 
ATOM     23  C   UNL     1      -0.766   1.965   2.516  0.00  0.00    +0.070 A 
ENDROOT
BRANCH  22  24
ATOM      1  F   UNL     1       4.027  -3.022   0.888  0.00  0.00    -0.205 F 
ATOM     24  C   UNL     1       0.008  -2.559   0.089  0.00  0.00    +0.037 A 
ATOM     25  C   UNL     1       0.601  -1.821   1.110  0.00  0.00    +0.016 A 
ATOM     26  C   UNL     1       0.765  -3.454  -0.663  0.00  0.00    +0.016 A 
ATOM     27  C   UNL     1       1.960  -1.978   1.381  0.00  0.00    +0.039 A 
ATOM     28  C   UNL     1       2.125  -3.610  -0.393  0.00  0.00    +0.039 A 
ATOM     29  C   UNL     1       2.722  -2.872   0.629  0.00  0.00    +0.123 A 
ENDBRANCH  22  24
BRANCH  14  13
ATOM     13  C   UNL     1       1.396   1.921  -0.518  0.00  0.00    +0.021 C 
ATOM     15  C   UNL     1       2.483   0.979   0.018  0.00  0.00    +0.008 C 
ATOM     16  C   UNL     1       1.877   3.379  -0.491  0.00  0.00    +0.008 C 
ATOM     17  C   UNL     1       3.803   1.156  -0.730  0.00  0.00    +0.001 C 
ATOM     18  C   UNL     1       3.199   3.551  -1.237  0.00  0.00    +0.001 C 
ATOM     20  C   UNL     1       4.272   2.607  -0.707  0.00  0.00    +0.000 C 
ENDBRANCH  14  13
TORSDOF 2
