REMARK  Name = 11885179
REMARK  3 active torsions:
REMARK  status: ('A' for Active; 'I' for Inactive)
REMARK    1  A    between atoms: C_16  and  C_19
REMARK    2  A    between atoms: C_17  and  C_20
REMARK    3  A    between atoms: C_28  and  C_29
REMARK                            x       y       z     vdW  Elec       q    Type
REMARK                         _______ _______ _______ _____ _____    ______ ____
ROOT
ATOM      2  O   UNL     1       2.735   1.533   1.277  0.00  0.00    -0.267 OA
ATOM      3  O   UNL     1      -2.126   1.091   2.575  0.00  0.00    -0.270 OA
ATOM      4  N   UNL     1      -2.137   1.940   0.418  0.00  0.00    -0.297 N 
ATOM      5  N   UNL     1       0.961   1.957  -0.175  0.00  0.00    -0.311 N 
ATOM      7  C   UNL     1      -0.653   3.919   0.156  0.00  0.00    +0.027 C 
ATOM      8  C   UNL     1      -0.974   2.374  -1.733  0.00  0.00    +0.054 C 
ATOM      9  C   UNL     1      -0.830   3.847  -1.357  0.00  0.00    +0.018 C 
ATOM     10  C   UNL     1      -1.875   3.309   0.868  0.00  0.00    +0.113 C 
ATOM     11  C   UNL     1       0.652   3.207   0.534  0.00  0.00    +0.130 C 
ATOM     12  C   UNL     1      -2.223   1.784  -1.045  0.00  0.00    +0.117 C 
ATOM     13  C   UNL     1       0.252   1.582  -1.320  0.00  0.00    +0.027 A 
ATOM     14  C   UNL     1       0.629   0.502  -2.023  0.00  0.00    +0.022 A 
ATOM     15  C   UNL     1       2.065   1.218   0.293  0.00  0.00    +0.260 A 
ATOM     16  C   UNL     1      -2.205   0.897   1.360  0.00  0.00    +0.247 C 
ATOM     17  C   UNL     1       2.433  -0.014  -0.489  0.00  0.00    +0.053 A 
ATOM     18  C   UNL     1       1.733  -0.308  -1.595  0.00  0.00    +0.016 A 
ENDROOT
BRANCH  16  19
ATOM     19  C   UNL     1      -2.344  -0.457   0.843  0.00  0.00    +0.037 A 
ATOM     21  C   UNL     1      -1.209  -1.212   0.561  0.00  0.00    +0.014 A 
ATOM     22  C   UNL     1      -3.613  -0.991   0.634  0.00  0.00    +0.014 A 
ATOM     24  C   UNL     1      -1.343  -2.510   0.067  0.00  0.00    +0.019 A 
ATOM     25  C   UNL     1      -3.748  -2.289   0.141  0.00  0.00    +0.019 A 
ATOM     28  C   UNL     1      -2.612  -3.048  -0.143  0.00  0.00    +0.052 A 
BRANCH  28  29
ATOM      6  N   UNL     1      -2.861  -5.457  -1.064  0.00  0.00    -0.191 NA
ATOM     29  C   UNL     1      -2.749  -4.377  -0.651  0.00  0.00    +0.099 C 
ENDBRANCH  28  29
ENDBRANCH  16  19
BRANCH  17  20
ATOM      1  S   UNL     1       3.193  -2.193   1.022  0.00  0.00    -0.096 S 
ATOM     20  C   UNL     1       3.527  -0.896  -0.051  0.00  0.00    +0.024 A 
ATOM     23  C   UNL     1       4.868  -0.847  -0.385  0.00  0.00    +0.016 A 
ATOM     26  C   UNL     1       5.621  -1.879   0.244  0.00  0.00    +0.008 A 
ATOM     27  C   UNL     1       4.833  -2.684   1.038  0.00  0.00    +0.046 A 
ENDBRANCH  17  20
TORSDOF 3
