REMARK  Name = 25390144
REMARK  10 active torsions:
REMARK  status: ('A' for Active; 'I' for Inactive)
REMARK    1  A    between atoms: O_5  and  C_17
REMARK    2  A    between atoms: O_6  and  C_18
REMARK    3  A    between atoms: O_9  and  C_30
REMARK    4  A    between atoms: O_9  and  C_31
REMARK    5  A    between atoms: N_10  and  C_20
REMARK    6  A    between atoms: C_13  and  C_21
REMARK    7  A    between atoms: C_14  and  C_20
REMARK    8  A    between atoms: C_19  and  C_22
REMARK    9  A    between atoms: C_22  and  C_23
REMARK   10  A    between atoms: C_24  and  C_25
REMARK                            x       y       z     vdW  Elec       q    Type
REMARK                         _______ _______ _______ _____ _____    ______ ____
ROOT
ATOM      4  O   UNL     1       3.231  -0.165  -0.497  0.00  0.00    -0.366 OA
ATOM     14  C   UNL     1       4.273  -1.142  -0.727  0.00  0.00    +0.167 C 
ATOM     17  C   UNL     1       5.597  -0.407  -0.550  0.00  0.00    +0.176 C 
ATOM     18  C   UNL     1       5.225   0.681   0.435  0.00  0.00    +0.175 C 
ATOM     19  C   UNL     1       3.833   1.060  -0.041  0.00  0.00    +0.159 C 
ENDROOT
BRANCH  17   5
ATOM      5  O   UNL     1       5.958   0.165  -1.807  0.00  0.00    -0.387 OA
ATOM     33  H   UNL     1       6.151  -0.569  -2.415  0.00  0.00    +0.210 HD
ENDBRANCH  17   5
BRANCH  18   6
ATOM      6  O   UNL     1       6.109   1.781   0.414  0.00  0.00    -0.387 OA
ATOM     34  H   UNL     1       6.999   1.444   0.615  0.00  0.00    +0.210 HD
ENDBRANCH  18   6
BRANCH  14  20
ATOM     20  C   UNL     1       4.080  -2.273   0.273  0.00  0.00    +0.138 C 
BRANCH  20  10
ATOM      7  O   UNL     1       1.523  -1.620   1.494  0.00  0.00    -0.276 OA
ATOM     10  N   UNL     1       2.823  -2.932   0.074  0.00  0.00    -0.313 N 
ATOM     21  C   UNL     1       1.647  -2.548   0.704  0.00  0.00    +0.216 C 
ATOM     32  H   UNL     1       2.802  -3.722  -0.564  0.00  0.00    +0.149 HD
BRANCH  21  13
ATOM     13  C   UNL     1       0.457  -3.375   0.347  0.00  0.00    +0.075 C 
ATOM     15  C   UNL     1      -0.770  -2.697  -0.188  0.00  0.00    +0.013 C 
ATOM     16  C   UNL     1       0.083  -3.531  -1.098  0.00  0.00    +0.013 C 
ENDBRANCH  21  13
ENDBRANCH  20  10
ENDBRANCH  14  20
BRANCH  19  22
ATOM     22  C   UNL     1       2.972   1.678   1.046  0.00  0.00    +0.133 C 
BRANCH  22  23
ATOM      8  O   UNL     1       1.399   3.042  -0.222  0.00  0.00    -0.338 OA
ATOM     11  N   UNL     1       0.468   1.280   0.801  0.00  0.00    -0.191 NA
ATOM     12  N   UNL     1       0.034   3.086  -0.535  0.00  0.00    -0.056 NA
ATOM     23  C   UNL     1       1.569   1.949   0.567  0.00  0.00    +0.230 A 
ATOM     24  C   UNL     1      -0.447   2.015   0.104  0.00  0.00    +0.202 A 
BRANCH  24  25
ATOM     25  C   UNL     1      -1.834   1.652   0.066  0.00  0.00    +0.023 A 
ATOM     26  C   UNL     1      -2.655   2.140  -0.950  0.00  0.00    +0.015 A 
ATOM     27  C   UNL     1      -2.361   0.812   1.047  0.00  0.00    +0.015 A 
ATOM     28  C   UNL     1      -4.005   1.788  -0.986  0.00  0.00    +0.046 A 
ATOM     29  C   UNL     1      -3.710   0.460   1.011  0.00  0.00    +0.046 A 
ATOM     30  C   UNL     1      -4.532   0.948  -0.005  0.00  0.00    +0.130 A 
BRANCH  30   9
ATOM      9  O   UNL     1      -5.848   0.604  -0.039  0.00  0.00    -0.406 OA
BRANCH   9  31
ATOM      1  F   UNL     1      -7.343  -0.890  -0.832  0.00  0.00    -0.133 F 
ATOM      2  F   UNL     1      -5.231  -1.453  -0.828  0.00  0.00    -0.133 F 
ATOM      3  F   UNL     1      -6.359  -1.331   1.069  0.00  0.00    -0.133 F 
ATOM     31  C   UNL     1      -6.181  -0.776  -0.149  0.00  0.00    +0.575 C 
ENDBRANCH   9  31
ENDBRANCH  30   9
ENDBRANCH  24  25
ENDBRANCH  22  23
ENDBRANCH  19  22
TORSDOF 10
