REMARK  Name = 11865832
REMARK  10 active torsions:
REMARK  status: ('A' for Active; 'I' for Inactive)
REMARK    1  A    between atoms: N_9  and  C_13
REMARK    2  A    between atoms: N_10  and  C_19
REMARK    3  A    between atoms: N_11  and  C_26
REMARK    4  A    between atoms: C_14  and  C_17
REMARK    5  A    between atoms: C_18  and  C_21
REMARK    6  A    between atoms: C_19  and  C_22
REMARK    7  A    between atoms: C_19  and  C_23
REMARK    8  A    between atoms: C_22  and  C_25
REMARK    9  A    between atoms: C_24  and  C_27
REMARK   10  A    between atoms: C_24  and  C_28
REMARK                            x       y       z     vdW  Elec       q    Type
REMARK                         _______ _______ _______ _____ _____    ______ ____
ROOT
ATOM      5  O   UNL     1      -1.105   4.798  -0.368  0.00  0.00    -0.271 OA
ATOM      8  N   UNL     1      -0.507   2.775   0.583  0.00  0.00    -0.285 N 
ATOM     13  C   UNL     1       0.730   1.084   1.703  0.00  0.00    +0.105 C 
ATOM     14  C   UNL     1      -0.254   1.331   0.556  0.00  0.00    +0.182 C 
ATOM     15  C   UNL     1       0.414   2.208   2.691  0.00  0.00    +0.043 C 
ATOM     16  C   UNL     1       0.039   3.378   1.793  0.00  0.00    +0.111 C 
ATOM     18  C   UNL     1      -1.045   3.569  -0.415  0.00  0.00    +0.240 C 
ENDROOT
BRANCH  13   9
ATOM      6  O   UNL     1       2.380  -1.094   0.843  0.00  0.00    -0.252 OA
ATOM      9  N   UNL     1       2.097   1.165   1.246  0.00  0.00    -0.294 N 
ATOM     11  N   UNL     1       4.122   0.431   0.454  0.00  0.00    -0.267 N 
ATOM     20  C   UNL     1       2.836   0.047   0.842  0.00  0.00    +0.304 C 
ATOM     37  H   UNL     1       2.524   2.082   1.153  0.00  0.00    +0.151 HD
ATOM     39  H   UNL     1       4.344   1.421   0.514  0.00  0.00    +0.156 HD
BRANCH  11  26
ATOM      2  F   UNL     1       6.606   1.481  -0.251  0.00  0.00    -0.203 F 
ATOM      3  F   UNL     1       8.220  -2.818  -1.386  0.00  0.00    -0.205 F 
ATOM     26  C   UNL     1       5.169  -0.396  -0.017  0.00  0.00    +0.070 A 
ATOM     30  C   UNL     1       6.401   0.161  -0.361  0.00  0.00    +0.147 A 
ATOM     31  C   UNL     1       4.968  -1.771  -0.137  0.00  0.00    +0.029 A 
ATOM     34  C   UNL     1       7.432  -0.657  -0.824  0.00  0.00    +0.078 A 
ATOM     35  C   UNL     1       5.998  -2.589  -0.600  0.00  0.00    +0.040 A 
ATOM     36  C   UNL     1       7.230  -2.032  -0.943  0.00  0.00    +0.126 A 
ENDBRANCH  11  26
ENDBRANCH  13   9
BRANCH  14  17
ATOM      4  O   UNL     1      -2.436   1.164   1.512  0.00  0.00    -0.274 OA
ATOM     10  N   UNL     1      -1.621  -0.611   0.245  0.00  0.00    -0.302 N 
ATOM     17  C   UNL     1      -1.559   0.643   0.828  0.00  0.00    +0.236 C 
ATOM     38  H   UNL     1      -0.836  -0.933  -0.314  0.00  0.00    +0.150 HD
BRANCH  10  19
ATOM     19  C   UNL     1      -2.763  -1.487   0.376  0.00  0.00    +0.163 C 
BRANCH  19  23
ATOM      7  O   UNL     1      -1.260  -3.288  -0.260  0.00  0.00    -0.274 OA
ATOM     12  N   UNL     1      -2.926  -3.732   1.258  0.00  0.00    -0.328 N 
ATOM     23  C   UNL     1      -2.232  -2.913   0.392  0.00  0.00    +0.231 C 
ATOM     40  H   UNL     1      -2.665  -4.705   1.374  0.00  0.00    +0.145 HD
ATOM     41  H   UNL     1      -3.721  -3.408   1.799  0.00  0.00    +0.145 HD
ENDBRANCH  19  23
BRANCH  19  22
ATOM     22  C   UNL     1      -3.770  -1.305  -0.766  0.00  0.00    +0.074 C 
BRANCH  22  25
ATOM      1  S   UNL     1      -5.885  -3.010  -1.381  0.00  0.00    -0.102 S 
ATOM     25  C   UNL     1      -5.146  -1.814  -0.404  0.00  0.00    -0.008 A 
ATOM     29  C   UNL     1      -5.947  -1.442   0.653  0.00  0.00    +0.011 A 
ATOM     32  C   UNL     1      -7.184  -2.149   0.661  0.00  0.00    +0.008 A 
ATOM     33  C   UNL     1      -7.281  -3.034  -0.390  0.00  0.00    +0.045 A 
ENDBRANCH  22  25
ENDBRANCH  19  22
ENDBRANCH  10  19
ENDBRANCH  14  17
BRANCH  18  21
ATOM     21  C   UNL     1      -1.580   2.883  -1.608  0.00  0.00    +0.066 C 
ATOM     24  C   UNL     1      -2.854   2.958  -2.028  0.00  0.00    -0.071 C 
ATOM     27  C   UNL     1      -3.436   2.276  -3.236  0.00  0.00    +0.039 C 
ATOM     28  C   UNL     1      -3.848   3.791  -1.259  0.00  0.00    +0.039 C 
ENDBRANCH  18  21
TORSDOF 8
