REMARK  Name = 11942988
REMARK  5 active torsions:
REMARK  status: ('A' for Active; 'I' for Inactive)
REMARK    1  A    between atoms: N_3  and  C_14
REMARK    2  A    between atoms: N_4  and  C_18
REMARK    3  A    between atoms: C_8  and  C_14
REMARK    4  A    between atoms: C_9  and  C_15
REMARK    5  A    between atoms: C_17  and  C_19
REMARK                            x       y       z     vdW  Elec       q    Type
REMARK                         _______ _______ _______ _____ _____    ______ ____
ROOT
ATOM      2  N   UNL     1      -0.507  -2.800  -1.062  0.00  0.00    -0.297 NA
ATOM      7  C   UNL     1      -1.125  -2.297   1.416  0.00  0.00    +0.005 C 
ATOM      8  C   UNL     1       0.539  -1.944  -0.442  0.00  0.00    +0.078 C 
ATOM      9  C   UNL     1      -2.292  -1.956   0.470  0.00  0.00    +0.092 C 
ATOM     10  C   UNL     1       0.123  -1.504   0.980  0.00  0.00    +0.025 C 
ATOM     11  C   UNL     1      -0.812  -3.791   1.215  0.00  0.00    +0.020 C 
ATOM     12  C   UNL     1      -1.830  -2.131  -0.988  0.00  0.00    +0.097 C 
ATOM     13  C   UNL     1      -0.584  -4.062  -0.284  0.00  0.00    +0.085 C 
ENDROOT
BRANCH   9  15
ATOM      1  O   UNL     1      -2.296   0.144   1.578  0.00  0.00    -0.275 OA
ATOM      4  N   UNL     1      -3.890  -0.283  -0.099  0.00  0.00    -0.285 N 
ATOM     15  C   UNL     1      -2.812  -0.573   0.727  0.00  0.00    +0.222 C 
ATOM     29  H   UNL     1      -4.199  -1.006  -0.745  0.00  0.00    +0.155 HD
BRANCH   4  18
ATOM     18  C   UNL     1      -4.640   0.917  -0.147  0.00  0.00    +0.033 A 
ATOM     24  C   UNL     1      -5.691   1.024  -1.043  0.00  0.00    +0.023 A 
ATOM     25  C   UNL     1      -4.307   1.958   0.704  0.00  0.00    +0.023 A 
ATOM     26  C   UNL     1      -6.429   2.206  -1.090  0.00  0.00    +0.002 A 
ATOM     27  C   UNL     1      -5.046   3.140   0.657  0.00  0.00    +0.002 A 
ATOM     28  C   UNL     1      -6.107   3.264  -0.240  0.00  0.00    +0.000 A 
ENDBRANCH   4  18
ENDBRANCH   9  15
BRANCH   8  14
ATOM     14  C   UNL     1       0.910  -0.748  -1.321  0.00  0.00    +0.164 C 
BRANCH  14   3
ATOM      3  N   UNL     1       2.031  -0.002  -0.774  0.00  0.00    -0.250 N 
ATOM      5  N   UNL     1       1.818   1.007   0.076  0.00  0.00    -0.065 NA
ATOM      6  N   UNL     1       3.010   1.492   0.404  0.00  0.00    -0.130 NA
ATOM     16  C   UNL     1       3.347  -0.202  -1.022  0.00  0.00    +0.138 A 
ATOM     17  C   UNL     1       3.957   0.763  -0.260  0.00  0.00    +0.108 A 
BRANCH  17  19
ATOM     19  C   UNL     1       5.362   1.027  -0.128  0.00  0.00    -0.023 C 
ATOM     20  C   UNL     1       5.840   2.134   0.767  0.00  0.00    +0.037 C 
ATOM     21  C   UNL     1       7.330   1.828   0.915  0.00  0.00    +0.009 C 
ATOM     22  C   UNL     1       7.706   0.984  -0.299  0.00  0.00    +0.028 C 
ATOM     23  C   UNL     1       6.395   0.402  -0.710  0.00  0.00    -0.021 C 
ENDBRANCH  17  19
ENDBRANCH  14   3
ENDBRANCH   8  14
TORSDOF 5
