REMARK  Name = 7155625
REMARK  5 active torsions:
REMARK  status: ('A' for Active; 'I' for Inactive)
REMARK    1  A    between atoms: N_7  and  C_22
REMARK    2  A    between atoms: N_8  and  C_20
REMARK    3  A    between atoms: C_23  and  C_26
REMARK    4  A    between atoms: C_29  and  C_32
REMARK    5  A    between atoms: C_32  and  C_35
REMARK                            x       y       z     vdW  Elec       q    Type
REMARK                         _______ _______ _______ _____ _____    ______ ____
ROOT
ATOM      1  O   UNL     1      -1.348  -0.721   2.079  0.00  0.00    -0.266 OA
ATOM      2  O   UNL     1       2.846  -1.230  -2.065  0.00  0.00    -0.252 OA
ATOM      5  N   UNL     1       2.541  -2.784  -0.377  0.00  0.00    -0.284 N 
ATOM      6  N   UNL     1      -0.435  -2.438   0.782  0.00  0.00    -0.310 N 
ATOM      7  N   UNL     1       3.684  -0.763   0.048  0.00  0.00    -0.269 N 
ATOM     10  C   UNL     1       1.484  -3.919   1.597  0.00  0.00    +0.027 C 
ATOM     11  C   UNL     1       0.551  -4.262  -0.648  0.00  0.00    +0.054 C 
ATOM     12  C   UNL     1       0.897  -4.966   0.661  0.00  0.00    +0.018 C 
ATOM     13  C   UNL     1       2.751  -3.282   0.992  0.00  0.00    +0.114 C 
ATOM     14  C   UNL     1       0.407  -2.871   1.903  0.00  0.00    +0.130 C 
ATOM     15  C   UNL     1       1.839  -3.706  -1.278  0.00  0.00    +0.119 C 
ATOM     16  C   UNL     1      -0.444  -3.138  -0.428  0.00  0.00    +0.027 A 
ATOM     17  C   UNL     1      -1.307  -2.798  -1.400  0.00  0.00    +0.024 A 
ATOM     18  C   UNL     1      -1.306  -1.355   1.023  0.00  0.00    +0.273 A 
ATOM     19  C   UNL     1       3.010  -1.552  -0.885  0.00  0.00    +0.306 C 
ATOM     20  C   UNL     1      -2.234  -0.991  -0.094  0.00  0.00    +0.099 A 
ATOM     21  C   UNL     1      -2.217  -1.701  -1.227  0.00  0.00    +0.030 A 
ATOM     36  H   UNL     1       4.160  -1.227   0.814  0.00  0.00    +0.156 HD
ENDROOT
BRANCH   7  22
ATOM     22  C   UNL     1       3.832   0.645   0.033  0.00  0.00    +0.035 A 
ATOM     24  C   UNL     1       3.189   1.399  -0.946  0.00  0.00    +0.024 A 
ATOM     25  C   UNL     1       4.619   1.268   0.998  0.00  0.00    +0.024 A 
ATOM     27  C   UNL     1       3.333   2.786  -0.959  0.00  0.00    +0.013 A 
ATOM     28  C   UNL     1       4.763   2.656   0.984  0.00  0.00    +0.013 A 
ATOM     29  C   UNL     1       4.120   3.414   0.006  0.00  0.00    +0.017 A 
BRANCH  29  32
ATOM      4  O   UNL     1       4.969   5.451   0.841  0.00  0.00    -0.292 OA
ATOM     32  C   UNL     1       4.272   4.861  -0.009  0.00  0.00    +0.160 C 
ATOM     35  C   UNL     1       3.573   5.696  -1.076  0.00  0.00    +0.091 C 
ENDBRANCH  29  32
ENDBRANCH   7  22
BRANCH  20   8
ATOM      3  O   UNL     1      -4.845  -0.710  -1.210  0.00  0.00    -0.270 OA
ATOM      8  N   UNL     1      -3.080   0.061   0.094  0.00  0.00    -0.277 N 
ATOM     23  C   UNL     1      -4.343   0.139  -0.478  0.00  0.00    +0.248 C 
ATOM     37  H   UNL     1      -2.857   0.676   0.872  0.00  0.00    +0.155 HD
BRANCH  23  26
ATOM      9  N   UNL     1      -6.594   3.610   0.492  0.00  0.00    -0.263 NA
ATOM     26  C   UNL     1      -5.130   1.353  -0.139  0.00  0.00    +0.040 A 
ATOM     30  C   UNL     1      -6.503   1.284  -0.163  0.00  0.00    +0.033 A 
ATOM     31  C   UNL     1      -4.463   2.509   0.189  0.00  0.00    +0.033 A 
ATOM     33  C   UNL     1      -7.191   2.443   0.162  0.00  0.00    +0.111 A 
ATOM     34  C   UNL     1      -5.242   3.613   0.498  0.00  0.00    +0.111 A 
ENDBRANCH  23  26
ENDBRANCH  20   8
TORSDOF 4
