REMARK  Name = 11884386
REMARK  8 active torsions:
REMARK  status: ('A' for Active; 'I' for Inactive)
REMARK    1  A    between atoms: O_3  and  C_21
REMARK    2  A    between atoms: O_3  and  C_24
REMARK    3  A    between atoms: O_5  and  C_25
REMARK    4  A    between atoms: O_5  and  C_31
REMARK    5  A    between atoms: N_8  and  C_19
REMARK    6  A    between atoms: C_18  and  C_21
REMARK    7  A    between atoms: C_22  and  C_23
REMARK    8  A    between atoms: C_23  and  C_25
REMARK                            x       y       z     vdW  Elec       q    Type
REMARK                         _______ _______ _______ _____ _____    ______ ____
ROOT
ATOM      1  O   UNL     1      -1.079  -2.997   1.861  0.00  0.00    -0.266 OA
ATOM      2  O   UNL     1       3.076   0.377   2.035  0.00  0.00    -0.272 OA
ATOM      6  N   UNL     1       3.182  -0.966   0.142  0.00  0.00    -0.298 N 
ATOM      7  N   UNL     1       0.536  -2.760   0.189  0.00  0.00    -0.310 N 
ATOM      9  C   UNL     1       2.984  -3.427   0.524  0.00  0.00    +0.027 C 
ATOM     10  C   UNL     1       2.264  -2.464  -1.620  0.00  0.00    +0.054 C 
ATOM     11  C   UNL     1       2.985  -3.650  -0.983  0.00  0.00    +0.018 C 
ATOM     12  C   UNL     1       3.712  -2.117   0.876  0.00  0.00    +0.113 C 
ATOM     13  C   UNL     1       1.536  -3.435   1.027  0.00  0.00    +0.130 C 
ATOM     14  C   UNL     1       3.031  -1.164  -1.307  0.00  0.00    +0.117 C 
ATOM     15  C   UNL     1       0.838  -2.355  -1.115  0.00  0.00    +0.027 A 
ATOM     16  C   UNL     1      -0.123  -1.845  -1.904  0.00  0.00    +0.024 A 
ATOM     17  C   UNL     1      -0.762  -2.638   0.726  0.00  0.00    +0.273 A 
ATOM     18  C   UNL     1       2.943   0.231   0.817  0.00  0.00    +0.253 C 
ATOM     19  C   UNL     1      -1.798  -2.043  -0.177  0.00  0.00    +0.099 A 
ATOM     20  C   UNL     1      -1.466  -1.687  -1.422  0.00  0.00    +0.030 A 
ENDROOT
BRANCH  19   8
ATOM      4  O   UNL     1      -3.692  -0.038  -0.946  0.00  0.00    -0.275 OA
ATOM      8  N   UNL     1      -3.063  -1.896   0.310  0.00  0.00    -0.281 N 
ATOM     22  C   UNL     1      -3.938  -0.899  -0.104  0.00  0.00    +0.220 C 
ATOM     32  H   UNL     1      -3.288  -2.402   1.163  0.00  0.00    +0.155 HD
BRANCH  22  23
ATOM     23  C   UNL     1      -5.272  -0.996   0.621  0.00  0.00    +0.124 C 
BRANCH  23  25
ATOM     25  C   UNL     1      -6.259   0.080   0.195  0.00  0.00    +0.168 C 
BRANCH  25   5
ATOM      5  O   UNL     1      -5.725   1.361   0.505  0.00  0.00    -0.382 OA
ATOM     31  C   UNL     1      -6.618   2.401   0.134  0.00  0.00    +0.194 C 
ENDBRANCH  25   5
ENDBRANCH  23  25
ENDBRANCH  22  23
ENDBRANCH  19   8
BRANCH  18  21
ATOM     21  C   UNL     1       2.489   1.400  -0.019  0.00  0.00    +0.324 C 
BRANCH  21   3
ATOM      3  O   UNL     1       2.279   2.472   0.867  0.00  0.00    -0.483 OA
BRANCH   3  24
ATOM     24  C   UNL     1       1.804   3.650   0.334  0.00  0.00    +0.121 A 
ATOM     26  C   UNL     1       1.551   3.744  -1.034  0.00  0.00    +0.045 A 
ATOM     27  C   UNL     1       1.576   4.748   1.163  0.00  0.00    +0.045 A 
ATOM     28  C   UNL     1       1.071   4.938  -1.574  0.00  0.00    +0.004 A 
ATOM     29  C   UNL     1       1.096   5.941   0.624  0.00  0.00    +0.004 A 
ATOM     30  C   UNL     1       0.843   6.036  -0.745  0.00  0.00    +0.000 A 
ENDBRANCH   3  24
ENDBRANCH  21   3
ENDBRANCH  18  21
TORSDOF 7
