REMARK  Name = 7685227
REMARK  2 active torsions:
REMARK  status: ('A' for Active; 'I' for Inactive)
REMARK    1  A    between atoms: C_14  and  C_19
REMARK    2  A    between atoms: C_16  and  C_20
REMARK                            x       y       z     vdW  Elec       q    Type
REMARK                         _______ _______ _______ _____ _____    ______ ____
ROOT
ATOM      3  O   UNL     1      -2.764  -1.372   2.881  0.00  0.00    -0.268 OA
ATOM      4  O   UNL     1       0.590  -3.641  -0.142  0.00  0.00    -0.270 OA
ATOM      5  N   UNL     1      -0.299  -1.865  -1.376  0.00  0.00    -0.297 N 
ATOM      6  N   UNL     1      -2.176  -0.528   0.777  0.00  0.00    -0.311 N 
ATOM      7  C   UNL     1      -2.778  -1.782  -1.380  0.00  0.00    +0.027 C 
ATOM      8  C   UNL     1      -1.493   0.313  -1.491  0.00  0.00    +0.054 C 
ATOM      9  C   UNL     1      -2.735  -0.404  -2.021  0.00  0.00    +0.018 C 
ATOM     10  C   UNL     1      -1.517  -2.587  -1.739  0.00  0.00    +0.113 C 
ATOM     11  C   UNL     1      -2.936  -1.609   0.131  0.00  0.00    +0.130 C 
ATOM     12  C   UNL     1      -0.230  -0.486  -1.880  0.00  0.00    +0.117 C 
ATOM     13  C   UNL     1      -1.551   0.493   0.030  0.00  0.00    +0.035 A 
ATOM     14  C   UNL     1      -1.002   1.561   0.670  0.00  0.00    +0.009 A 
ATOM     15  C   UNL     1      -2.222  -0.515   2.182  0.00  0.00    +0.252 A 
ATOM     16  C   UNL     1       0.651  -2.487  -0.562  0.00  0.00    +0.247 C 
ATOM     17  C   UNL     1      -1.029   1.603   2.122  0.00  0.00    +0.016 A 
ATOM     18  C   UNL     1      -1.579   0.636   2.854  0.00  0.00    +0.071 A 
ENDROOT
BRANCH  16  20
ATOM      2  F   UNL     1       5.114   0.480   1.036  0.00  0.00    -0.205 F 
ATOM     20  C   UNL     1       1.823  -1.708  -0.143  0.00  0.00    +0.037 A 
ATOM     22  C   UNL     1       1.777  -0.969   1.037  0.00  0.00    +0.016 A 
ATOM     23  C   UNL     1       2.974  -1.712  -0.926  0.00  0.00    +0.016 A 
ATOM     26  C   UNL     1       2.890  -0.229   1.435  0.00  0.00    +0.039 A 
ATOM     27  C   UNL     1       4.087  -0.972  -0.528  0.00  0.00    +0.039 A 
ATOM     28  C   UNL     1       4.046  -0.231   0.653  0.00  0.00    +0.123 A 
ENDBRANCH  16  20
BRANCH  14  19
ATOM      1  S   UNL     1      -1.334   3.972  -0.551  0.00  0.00    -0.097 S 
ATOM     19  C   UNL     1      -0.388   2.628  -0.072  0.00  0.00    +0.021 A 
ATOM     21  C   UNL     1       0.921   2.744  -0.484  0.00  0.00    +0.016 A 
ATOM     24  C   UNL     1       1.151   3.954  -1.202  0.00  0.00    +0.008 A 
ATOM     25  C   UNL     1       0.008   4.715  -1.311  0.00  0.00    +0.046 A 
ENDBRANCH  14  19
TORSDOF 2
