REMARK  Name = 51138113
REMARK  12 active torsions:
REMARK  status: ('A' for Active; 'I' for Inactive)
REMARK    1  A    between atoms: N_4  and  C_20
REMARK    2  A    between atoms: N_5  and  C_25
REMARK    3  A    between atoms: C_7  and  C_13
REMARK    4  A    between atoms: C_10  and  C_18
REMARK    5  A    between atoms: C_13  and  C_15
REMARK    6  A    between atoms: C_15  and  C_22
REMARK    7  A    between atoms: C_15  and  C_23
REMARK    8  A    between atoms: C_20  and  C_24
REMARK    9  A    between atoms: C_25  and  C_28
REMARK   10  A    between atoms: C_26  and  C_29
REMARK   11  A    between atoms: C_27  and  C_30
REMARK   12  A    between atoms: C_28  and  C_31
REMARK                            x       y       z     vdW  Elec       q    Type
REMARK                         _______ _______ _______ _____ _____    ______ ____
ROOT
ATOM      3  N   UNL     1      -2.278  -0.249  -0.631  0.00  0.00    -0.299 NA
ATOM      4  N   UNL     1       2.523  -0.023   0.918  0.00  0.00    -0.342 N 
ATOM      7  C   UNL     1      -2.052  -1.477   0.143  0.00  0.00    +0.085 C 
ATOM      8  C   UNL     1      -0.605  -1.739   0.574  0.00  0.00    -0.021 A 
ATOM      9  C   UNL     1       0.436  -0.766   0.588  0.00  0.00    +0.008 A 
ATOM     10  C   UNL     1      -1.999   0.985   0.090  0.00  0.00    +0.145 C 
ATOM     11  C   UNL     1       0.501   0.633   0.261  0.00  0.00    -0.020 A 
ATOM     12  C   UNL     1      -0.601   1.514  -0.224  0.00  0.00    +0.065 C 
ATOM     14  C   UNL     1       1.716  -1.132   1.019  0.00  0.00    +0.050 A 
ATOM     16  C   UNL     1       1.802   1.044   0.469  0.00  0.00    +0.091 A 
ATOM     17  C   UNL     1      -0.268  -3.022   1.076  0.00  0.00    +0.006 A 
ATOM     19  C   UNL     1       2.039  -2.414   1.466  0.00  0.00    +0.026 A 
ATOM     21  C   UNL     1       1.017  -3.354   1.499  0.00  0.00    +0.002 A 
ATOM     32  H   UNL     1      -1.776  -0.280  -1.517  0.00  0.00    +0.123 HD
ENDROOT
BRANCH  10  18
ATOM      1  O   UNL     1      -3.086   2.291  -1.586  0.00  0.00    -0.274 OA
ATOM      5  N   UNL     1      -3.817   2.450   0.619  0.00  0.00    -0.314 N 
ATOM     18  C   UNL     1      -3.018   1.967  -0.403  0.00  0.00    +0.230 C 
ATOM     33  H   UNL     1      -3.682   2.114   1.567  0.00  0.00    +0.149 HD
BRANCH   5  25
ATOM     25  C   UNL     1      -4.862   3.426   0.410  0.00  0.00    +0.104 C 
BRANCH  25  28
ATOM     28  C   UNL     1      -6.206   2.780   0.095  0.00  0.00    +0.015 C 
ATOM     31  C   UNL     1      -6.705   1.883   1.218  0.00  0.00    +0.005 C 
ENDBRANCH  25  28
ENDBRANCH   5  25
ENDBRANCH  10  18
BRANCH   7  13
ATOM     13  C   UNL     1      -2.618  -2.604  -0.740  0.00  0.00    +0.026 C 
BRANCH  13  15
ATOM     15  C   UNL     1      -4.148  -2.672  -0.716  0.00  0.00    -0.015 C 
ATOM     22  C   UNL     1      -4.614  -3.851  -1.573  0.00  0.00    +0.007 C 
ATOM     23  C   UNL     1      -4.803  -1.382  -1.211  0.00  0.00    +0.007 C 
ENDBRANCH  13  15
ENDBRANCH   7  13
BRANCH   4  20
ATOM     20  C   UNL     1       3.930   0.028   1.255  0.00  0.00    +0.162 C 
BRANCH  20  24
ATOM      2  O   UNL     1       6.069   1.766  -1.211  0.00  0.00    -0.359 OA
ATOM      6  N   UNL     1       5.996   0.519  -1.820  0.00  0.00    -0.083 NA
ATOM     24  C   UNL     1       4.799   0.503   0.117  0.00  0.00    +0.037 A 
ATOM     26  C   UNL     1       5.352   1.744  -0.058  0.00  0.00    +0.139 A 
ATOM     27  C   UNL     1       5.232  -0.218  -1.008  0.00  0.00    +0.086 A 
ATOM     29  C   UNL     1       5.324   2.992   0.716  0.00  0.00    +0.089 C 
ATOM     30  C   UNL     1       4.943  -1.619  -1.356  0.00  0.00    +0.069 C 
ENDBRANCH  20  24
ENDBRANCH   4  20
TORSDOF 7
