REMARK  Name = 45361514
REMARK  11 active torsions:
REMARK  status: ('A' for Active; 'I' for Inactive)
REMARK    1  A    between atoms: O_1  and  C_9
REMARK    2  A    between atoms: N_4  and  C_13
REMARK    3  A    between atoms: N_5  and  C_23
REMARK    4  A    between atoms: C_6  and  C_16
REMARK    5  A    between atoms: C_8  and  C_18
REMARK    6  A    between atoms: C_12  and  C_17
REMARK    7  A    between atoms: C_17  and  C_19
REMARK    8  A    between atoms: C_17  and  C_20
REMARK    9  A    between atoms: C_21  and  C_22
REMARK   10  A    between atoms: C_22  and  C_24
REMARK   11  A    between atoms: C_23  and  C_25
REMARK                            x       y       z     vdW  Elec       q    Type
REMARK                         _______ _______ _______ _____ _____    ______ ____
ROOT
ATOM      6  C   UNL     1      -1.127   0.421  -2.026  0.00  0.00    -0.027 C 
ATOM      7  C   UNL     1      -0.567   1.210  -0.796  0.00  0.00    +0.028 C 
ATOM      8  C   UNL     1       0.643   0.447  -0.147  0.00  0.00    +0.012 C 
ATOM      9  C   UNL     1      -1.707   1.611   0.183  0.00  0.00    +0.122 C 
ATOM     10  C   UNL     1      -2.240   1.252  -2.709  0.00  0.00    +0.007 C 
ATOM     11  C   UNL     1       0.008   0.220  -3.056  0.00  0.00    +0.009 C 
ATOM     12  C   UNL     1      -2.866   2.351  -0.525  0.00  0.00    +0.029 C 
ATOM     13  C   UNL     1       1.747   0.184  -1.210  0.00  0.00    +0.076 C 
ATOM     14  C   UNL     1      -3.377   1.613  -1.762  0.00  0.00    +0.007 C 
ATOM     15  C   UNL     1       1.222  -0.493  -2.476  0.00  0.00    +0.023 C 
ATOM     16  C   UNL     1      -1.709  -0.960  -1.632  0.00  0.00    +0.011 C 
ATOM     18  C   UNL     1       1.262   1.182   1.054  0.00  0.00    +0.010 C 
ENDROOT
BRANCH  13   4
ATOM      3  O   UNL     1       4.525   0.318  -1.948  0.00  0.00    -0.275 OA
ATOM      4  N   UNL     1       2.826  -0.620  -0.675  0.00  0.00    -0.312 N 
ATOM     21  C   UNL     1       4.138  -0.479  -1.097  0.00  0.00    +0.218 C 
ATOM     36  H   UNL     1       2.585  -1.350  -0.012  0.00  0.00    +0.149 HD
BRANCH  21  22
ATOM     22  C   UNL     1       5.059  -1.438  -0.369  0.00  0.00    +0.130 C 
BRANCH  22  24
ATOM     24  C   UNL     1       6.142  -0.746   0.416  0.00  0.00    -0.039 A 
ATOM     26  C   UNL     1       7.368  -0.464  -0.187  0.00  0.00    +0.004 A 
ATOM     27  C   UNL     1       5.920  -0.387   1.745  0.00  0.00    +0.004 A 
ATOM     30  C   UNL     1       8.371   0.178   0.539  0.00  0.00    +0.000 A 
ATOM     31  C   UNL     1       6.923   0.254   2.472  0.00  0.00    +0.000 A 
ATOM     32  C   UNL     1       8.149   0.537   1.869  0.00  0.00    +0.000 A 
ENDBRANCH  22  24
ENDBRANCH  21  22
ENDBRANCH  13   4
BRANCH   9   1
ATOM      1  O   UNL     1      -1.195   2.506   1.171  0.00  0.00    -0.391 OA
ATOM     37  H   UNL     1      -0.837   3.287   0.714  0.00  0.00    +0.210 HD
ENDBRANCH   9   1
BRANCH  12  17
ATOM     17  C   UNL     1      -4.036   2.621   0.429  0.00  0.00    +0.077 C 
ATOM     19  C   UNL     1      -3.744   3.850   1.282  0.00  0.00    +0.017 C 
BRANCH  17  20
ATOM      2  O   UNL     1      -3.767   1.229   2.393  0.00  0.00    -0.276 OA
ATOM      5  N   UNL     1      -5.179   0.502   0.703  0.00  0.00    -0.311 N 
ATOM     20  C   UNL     1      -4.296   1.392   1.295  0.00  0.00    +0.216 C 
ATOM     38  H   UNL     1      -5.599   0.729  -0.193  0.00  0.00    +0.149 HD
BRANCH   5  23
ATOM     23  C   UNL     1      -5.578  -0.737   1.330  0.00  0.00    +0.139 C 
BRANCH  23  25
ATOM     25  C   UNL     1      -4.666  -1.872   0.964  0.00  0.00    -0.030 A 
ATOM     28  C   UNL     1      -4.943  -2.654  -0.157  0.00  0.00    +0.005 A 
ATOM     29  C   UNL     1      -3.542  -2.143   1.743  0.00  0.00    +0.005 A 
ATOM     33  C   UNL     1      -4.096  -3.709  -0.498  0.00  0.00    +0.000 A 
ATOM     34  C   UNL     1      -2.695  -3.198   1.403  0.00  0.00    +0.000 A 
ATOM     35  C   UNL     1      -2.972  -3.980   0.282  0.00  0.00    +0.000 A 
ENDBRANCH  23  25
ENDBRANCH   5  23
ENDBRANCH  17  20
ENDBRANCH  12  17
TORSDOF 8
