REMARK  Name = 11882498
REMARK  10 active torsions:
REMARK  status: ('A' for Active; 'I' for Inactive)
REMARK    1  A    between atoms: S_1  and  N_10
REMARK    2  A    between atoms: S_1  and  C_23
REMARK    3  A    between atoms: N_10  and  C_14
REMARK    4  A    between atoms: N_11  and  C_21
REMARK    5  A    between atoms: C_16  and  C_19
REMARK    6  A    between atoms: C_20  and  C_22
REMARK    7  A    between atoms: C_21  and  C_24
REMARK    8  A    between atoms: C_21  and  C_25
REMARK    9  A    between atoms: C_24  and  C_27
REMARK   10  A    between atoms: C_29  and  C_34
REMARK                            x       y       z     vdW  Elec       q    Type
REMARK                         _______ _______ _______ _____ _____    ______ ____
ROOT
ATOM      5  O   UNL     1       2.719  -3.039   0.415  0.00  0.00    -0.268 OA
ATOM      9  N   UNL     1       2.111  -0.797   0.262  0.00  0.00    -0.285 N 
ATOM     14  C   UNL     1       0.410   1.523   0.797  0.00  0.00    +0.080 C 
ATOM     15  C   UNL     1       0.254   0.231   1.603  0.00  0.00    +0.052 C 
ATOM     16  C   UNL     1       0.793  -1.000   0.876  0.00  0.00    +0.164 C 
ATOM     17  C   UNL     1       1.858   1.678   0.338  0.00  0.00    +0.039 C 
ATOM     18  C   UNL     1       2.317   0.467  -0.467  0.00  0.00    +0.110 C 
ATOM     20  C   UNL     1       3.041  -1.857   0.297  0.00  0.00    +0.266 C 
ENDROOT
BRANCH  20  22
ATOM      3  S   UNL     1       6.934  -1.587  -0.326  0.00  0.00    -0.080 S 
ATOM     12  N   UNL     1       4.914  -0.302   0.650  0.00  0.00    -0.240 NA
ATOM     22  C   UNL     1       4.455  -1.516   0.182  0.00  0.00    +0.133 A 
ATOM     26  C   UNL     1       5.397  -2.347  -0.379  0.00  0.00    +0.080 A 
ATOM     29  C   UNL     1       6.209  -0.231   0.435  0.00  0.00    +0.076 A 
ATOM     34  C   UNL     1       7.055   0.926   0.802  0.00  0.00    +0.073 C 
ENDBRANCH  20  22
BRANCH  16  19
ATOM      4  O   UNL     1       0.005  -1.065  -1.378  0.00  0.00    -0.274 OA
ATOM     11  N   UNL     1      -1.099  -2.325   0.239  0.00  0.00    -0.302 N 
ATOM     19  C   UNL     1      -0.123  -1.458  -0.221  0.00  0.00    +0.234 C 
ATOM     39  H   UNL     1      -1.077  -2.622   1.210  0.00  0.00    +0.150 HD
BRANCH  11  21
ATOM     21  C   UNL     1      -2.118  -2.891  -0.614  0.00  0.00    +0.163 C 
BRANCH  21  25
ATOM      8  O   UNL     1      -0.758  -4.905  -0.646  0.00  0.00    -0.274 OA
ATOM     13  N   UNL     1      -2.009  -4.395  -2.504  0.00  0.00    -0.328 N 
ATOM     25  C   UNL     1      -1.535  -4.154  -1.232  0.00  0.00    +0.231 C 
ATOM     40  H   UNL     1      -2.669  -3.777  -2.966  0.00  0.00    +0.145 HD
ATOM     41  H   UNL     1      -1.710  -5.212  -3.025  0.00  0.00    +0.145 HD
ENDBRANCH  21  25
BRANCH  21  24
ATOM     24  C   UNL     1      -3.405  -3.216   0.155  0.00  0.00    +0.067 C 
BRANCH  24  27
ATOM     27  C   UNL     1      -4.264  -2.008   0.402  0.00  0.00    -0.045 A 
ATOM     32  C   UNL     1      -4.080  -1.261   1.560  0.00  0.00    +0.004 A 
ATOM     33  C   UNL     1      -5.231  -1.650  -0.529  0.00  0.00    +0.004 A 
ATOM     35  C   UNL     1      -4.877  -0.139   1.790  0.00  0.00    +0.000 A 
ATOM     36  C   UNL     1      -6.027  -0.528  -0.299  0.00  0.00    +0.000 A 
ATOM     37  C   UNL     1      -5.851   0.227   0.860  0.00  0.00    +0.000 A 
ENDBRANCH  24  27
ENDBRANCH  21  24
ENDBRANCH  11  21
ENDBRANCH  16  19
BRANCH  14  10
ATOM     10  N   UNL     1      -0.005   2.665   1.577  0.00  0.00    -0.186 NA
ATOM     38  H   UNL     1       0.723   3.137   2.128  0.00  0.00    +0.148 HD
BRANCH  10   1
ATOM      1  S   UNL     1      -1.310   3.601   0.988  0.00  0.00    +0.065 S 
ATOM      6  O   UNL     1      -1.480   4.773   1.826  0.00  0.00    -0.153 OA
ATOM      7  O   UNL     1      -2.422   2.720   0.691  0.00  0.00    -0.153 OA
BRANCH   1  23
ATOM      2  S   UNL     1       0.390   5.411  -0.555  0.00  0.00    -0.077 S 
ATOM     23  C   UNL     1      -0.828   4.230  -0.620  0.00  0.00    +0.142 A 
ATOM     28  C   UNL     1      -1.253   3.940  -1.873  0.00  0.00    +0.036 A 
ATOM     30  C   UNL     1      -0.554   4.717  -2.841  0.00  0.00    +0.010 A 
ATOM     31  C   UNL     1       0.369   5.559  -2.261  0.00  0.00    +0.047 A 
ENDBRANCH   1  23
ENDBRANCH  10   1
ENDBRANCH  14  10
TORSDOF 9
