REMARK  Name = 75536113
REMARK  8 active torsions:
REMARK  status: ('A' for Active; 'I' for Inactive)
REMARK    1  A    between atoms: O_1  and  C_8
REMARK    2  A    between atoms: O_2  and  C_10
REMARK    3  A    between atoms: O_3  and  C_20
REMARK    4  A    between atoms: O_3  and  C_23
REMARK    5  A    between atoms: N_4  and  C_6
REMARK    6  A    between atoms: N_4  and  C_12
REMARK    7  A    between atoms: C_7  and  C_11
REMARK    8  A    between atoms: C_12  and  C_15
REMARK                            x       y       z     vdW  Elec       q    Type
REMARK                         _______ _______ _______ _____ _____    ______ ____
ROOT
ATOM      6  C   UNL     1       1.050   0.973  -0.486  0.00  0.00    +0.093 C 
ATOM      7  C   UNL     1       1.948   0.353   0.629  0.00  0.00    +0.042 C 
ATOM      8  C   UNL     1       1.577   2.404  -0.678  0.00  0.00    +0.160 C 
ATOM      9  C   UNL     1       2.937   1.462   1.036  0.00  0.00    +0.043 C 
ATOM     10  C   UNL     1       2.209   2.747   0.668  0.00  0.00    +0.145 C 
ENDROOT
BRANCH   7  11
ATOM      5  N   UNL     1       2.999  -3.291   0.629  0.00  0.00    -0.263 NA
ATOM     11  C   UNL     1       2.631  -0.936   0.226  0.00  0.00    -0.025 A 
ATOM     13  C   UNL     1       3.489  -0.982  -0.867  0.00  0.00    +0.007 A 
ATOM     14  C   UNL     1       2.421  -2.108   0.935  0.00  0.00    +0.114 A 
ATOM     16  C   UNL     1       4.102  -2.181  -1.213  0.00  0.00    +0.020 A 
ATOM     17  C   UNL     1       3.827  -3.297  -0.440  0.00  0.00    +0.111 A 
ENDBRANCH   7  11
BRANCH   8   1
ATOM      1  O   UNL     1       2.563   2.385  -1.709  0.00  0.00    -0.388 OA
ATOM     25  H   UNL     1       2.114   2.149  -2.538  0.00  0.00    +0.210 HD
ENDBRANCH   8   1
BRANCH  10   2
ATOM      2  O   UNL     1       3.100   3.840   0.588  0.00  0.00    -0.389 OA
ATOM     26  H   UNL     1       3.526   3.935   1.457  0.00  0.00    +0.210 HD
ENDBRANCH  10   2
BRANCH   6   4
ATOM      4  N   UNL     1      -0.341   1.012  -0.029  0.00  0.00    -0.306 NA
ATOM     24  H   UNL     1      -0.861   1.683  -0.595  0.00  0.00    +0.123 HD
BRANCH   4  12
ATOM     12  C   UNL     1      -0.970  -0.294  -0.167  0.00  0.00    +0.116 C 
BRANCH  12  15
ATOM     15  C   UNL     1      -2.400  -0.281   0.304  0.00  0.00    -0.030 A 
ATOM     18  C   UNL     1      -3.440  -0.267  -0.624  0.00  0.00    +0.050 A 
ATOM     19  C   UNL     1      -2.684  -0.283   1.670  0.00  0.00    +0.005 A 
ATOM     20  C   UNL     1      -4.765  -0.254  -0.188  0.00  0.00    +0.120 A 
ATOM     21  C   UNL     1      -4.008  -0.270   2.107  0.00  0.00    +0.004 A 
ATOM     22  C   UNL     1      -5.049  -0.256   1.178  0.00  0.00    +0.045 A 
BRANCH  20   3
ATOM      3  O   UNL     1      -5.780  -0.238  -1.094  0.00  0.00    -0.495 OA
ATOM     23  C   UNL     1      -5.417  -0.237  -2.474  0.00  0.00    +0.277 C 
ENDBRANCH  20   3
ENDBRANCH  12  15
ENDBRANCH   4  12
ENDBRANCH   6   4
TORSDOF 7
