REMARK  Name = 28959709
REMARK  10 active torsions:
REMARK  status: ('A' for Active; 'I' for Inactive)
REMARK    1  A    between atoms: O_2  and  C_21
REMARK    2  A    between atoms: O_4  and  C_28
REMARK    3  A    between atoms: O_4  and  C_29
REMARK    4  A    between atoms: N_6  and  C_13
REMARK    5  A    between atoms: C_7  and  C_10
REMARK    6  A    between atoms: C_8  and  C_14
REMARK    7  A    between atoms: C_10  and  C_13
REMARK    8  A    between atoms: C_14  and  C_21
REMARK    9  A    between atoms: C_19  and  C_22
REMARK   10  A    between atoms: C_22  and  C_23
REMARK                            x       y       z     vdW  Elec       q    Type
REMARK                         _______ _______ _______ _____ _____    ______ ____
ROOT
ATOM      1  O   UNL     1      -1.265   2.406   0.743  0.00  0.00    -0.275 OA
ATOM      5  N   UNL     1       0.643   1.912  -0.486  0.00  0.00    -0.301 N 
ATOM      7  C   UNL     1       2.589   0.458  -1.009  0.00  0.00    +0.011 C 
ATOM      8  C   UNL     1       3.498   1.471  -0.269  0.00  0.00    +0.006 C 
ATOM      9  C   UNL     1       1.338   1.175  -1.549  0.00  0.00    +0.111 C 
ATOM     11  C   UNL     1       2.718   2.255   0.800  0.00  0.00    +0.023 C 
ATOM     12  C   UNL     1       1.466   2.900   0.211  0.00  0.00    +0.108 C 
ATOM     19  C   UNL     1      -0.698   1.755  -0.138  0.00  0.00    +0.220 C 
ENDROOT
BRANCH   7  10
ATOM     10  C   UNL     1       2.182  -0.752  -0.159  0.00  0.00    +0.020 C 
BRANCH  10  13
ATOM     13  C   UNL     1       1.867  -1.953  -1.039  0.00  0.00    +0.085 C 
BRANCH  13   6
ATOM      6  N   UNL     1       1.466  -3.087  -0.207  0.00  0.00    -0.302 NA
ATOM     15  C   UNL     1       1.585  -4.344  -0.959  0.00  0.00    +0.084 C 
ATOM     16  C   UNL     1       0.098  -2.897   0.297  0.00  0.00    +0.084 C 
ATOM     17  C   UNL     1       1.216  -5.546  -0.088  0.00  0.00    +0.015 C 
ATOM     18  C   UNL     1      -0.319  -4.052   1.209  0.00  0.00    +0.015 C 
ATOM     20  C   UNL     1      -0.181  -5.396   0.502  0.00  0.00    +0.002 C 
ENDBRANCH  13   6
ENDBRANCH  10  13
ENDBRANCH   7  10
BRANCH   8  14
ATOM     14  C   UNL     1       4.745   0.827   0.338  0.00  0.00    +0.124 C 
BRANCH  14  21
ATOM      3  O   UNL     1       5.790   3.029   0.301  0.00  0.00    -0.251 OA
ATOM     21  C   UNL     1       5.840   1.835   0.555  0.00  0.00    +0.305 C 
BRANCH  21   2
ATOM      2  O   UNL     1       6.927   1.221   1.089  0.00  0.00    -0.481 OA
ATOM     30  H   UNL     1       7.663   1.851   1.244  0.00  0.00    +0.295 HD
ENDBRANCH  21   2
ENDBRANCH  14  21
ENDBRANCH   8  14
BRANCH  19  22
ATOM     22  C   UNL     1      -1.477   0.714  -0.901  0.00  0.00    +0.131 C 
BRANCH  22  23
ATOM     23  C   UNL     1      -2.904   0.687  -0.450  0.00  0.00    -0.038 A 
ATOM     24  C   UNL     1      -3.288  -0.149   0.599  0.00  0.00    +0.007 A 
ATOM     25  C   UNL     1      -3.849   1.499  -1.077  0.00  0.00    +0.007 A 
ATOM     26  C   UNL     1      -4.617  -0.172   1.021  0.00  0.00    +0.046 A 
ATOM     27  C   UNL     1      -5.178   1.475  -0.655  0.00  0.00    +0.046 A 
ATOM     28  C   UNL     1      -5.562   0.640   0.394  0.00  0.00    +0.120 A 
BRANCH  28   4
ATOM      4  O   UNL     1      -6.859   0.618   0.806  0.00  0.00    -0.495 OA
ATOM     29  C   UNL     1      -7.773   1.473   0.121  0.00  0.00    +0.277 C 
ENDBRANCH  28   4
ENDBRANCH  22  23
ENDBRANCH  19  22
TORSDOF 9
