REMARK  Name = 75536266
REMARK  9 active torsions:
REMARK  status: ('A' for Active; 'I' for Inactive)
REMARK    1  A    between atoms: O_3  and  C_8
REMARK    2  A    between atoms: N_5  and  C_12
REMARK    3  A    between atoms: N_5  and  C_15
REMARK    4  A    between atoms: C_7  and  C_12
REMARK    5  A    between atoms: C_9  and  C_13
REMARK    6  A    between atoms: C_13  and  C_14
REMARK    7  A    between atoms: C_15  and  C_17
REMARK    8  A    between atoms: C_15  and  C_18
REMARK    9  A    between atoms: C_19  and  C_20
REMARK                            x       y       z     vdW  Elec       q    Type
REMARK                         _______ _______ _______ _____ _____    ______ ____
ROOT
ATOM      2  O   UNL     1       2.588  -0.463   0.874  0.00  0.00    -0.369 OA
ATOM      7  C   UNL     1       3.482   0.656   0.835  0.00  0.00    +0.161 C 
ATOM      8  C   UNL     1       4.934   0.204   0.628  0.00  0.00    +0.145 C 
ATOM      9  C   UNL     1       2.645  -1.328  -0.263  0.00  0.00    +0.125 C 
ATOM     10  C   UNL     1       5.079  -0.771  -0.537  0.00  0.00    +0.036 C 
ATOM     11  C   UNL     1       4.052  -1.896  -0.437  0.00  0.00    +0.034 C 
ENDROOT
BRANCH   8   3
ATOM      3  O   UNL     1       5.382  -0.461   1.812  0.00  0.00    -0.389 OA
ATOM     27  H   UNL     1       6.316  -0.697   1.681  0.00  0.00    +0.210 HD
ENDBRANCH   8   3
BRANCH   7  12
ATOM     12  C   UNL     1       3.027   1.689  -0.194  0.00  0.00    +0.115 C 
BRANCH  12   5
ATOM      5  N   UNL     1       1.655   2.103   0.058  0.00  0.00    -0.311 NA
ATOM     26  H   UNL     1       1.053   1.281   0.011  0.00  0.00    +0.122 HD
BRANCH   5  15
ATOM     15  C   UNL     1       1.221   3.095  -0.916  0.00  0.00    +0.048 C 
ATOM     17  C   UNL     1       1.763   4.473  -0.546  0.00  0.00    +0.023 C 
ATOM     18  C   UNL     1      -0.302   3.106  -0.986  0.00  0.00    +0.023 C 
ENDBRANCH   5  15
ENDBRANCH  12   5
ENDBRANCH   7  12
BRANCH   9  13
ATOM     13  C   UNL     1       1.632  -2.445  -0.041  0.00  0.00    +0.090 C 
BRANCH  13  14
ATOM      4  O   UNL     1      -1.571  -1.598  -1.459  0.00  0.00    -0.354 OA
ATOM      6  N   UNL     1      -0.282  -2.107  -1.551  0.00  0.00    -0.083 NA
ATOM     14  C   UNL     1       0.226  -1.986  -0.322  0.00  0.00    +0.087 A 
ATOM     16  C   UNL     1      -0.688  -1.413   0.580  0.00  0.00    +0.076 A 
ATOM     19  C   UNL     1      -1.801  -1.188  -0.185  0.00  0.00    +0.167 A 
BRANCH  19  20
ATOM      1  F   UNL     1      -6.846   0.945   0.789  0.00  0.00    -0.205 F 
ATOM     20  C   UNL     1      -3.101  -0.637   0.066  0.00  0.00    +0.020 A 
ATOM     21  C   UNL     1      -3.434  -0.191   1.345  0.00  0.00    +0.014 A 
ATOM     22  C   UNL     1      -4.033  -0.549  -0.969  0.00  0.00    +0.014 A 
ATOM     23  C   UNL     1      -4.699   0.344   1.589  0.00  0.00    +0.039 A 
ATOM     24  C   UNL     1      -5.298  -0.015  -0.724  0.00  0.00    +0.039 A 
ATOM     25  C   UNL     1      -5.631   0.432   0.555  0.00  0.00    +0.123 A 
ENDBRANCH  19  20
ENDBRANCH  13  14
ENDBRANCH   9  13
TORSDOF 7
