REMARK  Name = 26743556
REMARK  5 active torsions:
REMARK  status: ('A' for Active; 'I' for Inactive)
REMARK    1  A    between atoms: O_2  and  C_9
REMARK    2  A    between atoms: N_4  and  C_11
REMARK    3  A    between atoms: C_7  and  C_12
REMARK    4  A    between atoms: C_11  and  C_13
REMARK    5  A    between atoms: C_16  and  C_19
REMARK                            x       y       z     vdW  Elec       q    Type
REMARK                         _______ _______ _______ _____ _____    ______ ____
ROOT
ATOM      4  N   UNL     1      -1.515   1.374  -0.117  0.00  0.00    -0.285 NA
ATOM      7  C   UNL     1      -0.451   2.311  -0.533  0.00  0.00    +0.149 C 
ATOM      8  C   UNL     1      -0.511   3.456   0.495  0.00  0.00    +0.061 C 
ATOM      9  C   UNL     1      -1.668   3.096   1.419  0.00  0.00    +0.130 C 
ATOM     10  C   UNL     1      -2.525   2.174   0.573  0.00  0.00    +0.116 C 
ENDROOT
BRANCH   7  12
ATOM      3  O   UNL     1       1.803   2.194  -1.470  0.00  0.00    -0.336 OA
ATOM      5  N   UNL     1       1.370   0.625   0.069  0.00  0.00    -0.190 NA
ATOM      6  N   UNL     1       2.971   1.429  -1.354  0.00  0.00    -0.056 NA
ATOM     12  C   UNL     1       0.912   1.654  -0.598  0.00  0.00    +0.245 A 
ATOM     16  C   UNL     1       2.636   0.524  -0.429  0.00  0.00    +0.202 A 
BRANCH  16  19
ATOM     19  C   UNL     1       3.545  -0.491   0.021  0.00  0.00    +0.022 A 
ATOM     21  C   UNL     1       3.139  -1.407   0.992  0.00  0.00    +0.012 A 
ATOM     22  C   UNL     1       4.832  -0.562  -0.511  0.00  0.00    +0.012 A 
ATOM     23  C   UNL     1       4.022  -2.394   1.431  0.00  0.00    +0.001 A 
ATOM     24  C   UNL     1       5.714  -1.549  -0.072  0.00  0.00    +0.001 A 
ATOM     25  C   UNL     1       5.309  -2.465   0.898  0.00  0.00    +0.000 A 
ENDBRANCH  16  19
ENDBRANCH   7  12
BRANCH   9   2
ATOM      2  O   UNL     1      -2.375   4.256   1.813  0.00  0.00    -0.390 OA
ATOM     26  H   UNL     1      -1.750   4.834   2.283  0.00  0.00    +0.210 HD
ENDBRANCH   9   2
BRANCH   4  11
ATOM     11  C   UNL     1      -2.079   0.617  -1.227  0.00  0.00    +0.120 C 
BRANCH  11  13
ATOM      1  F   UNL     1      -4.666  -4.070   0.532  0.00  0.00    -0.205 F 
ATOM     13  C   UNL     1      -2.770  -0.635  -0.757  0.00  0.00    -0.033 A 
ATOM     14  C   UNL     1      -2.055  -1.828  -0.648  0.00  0.00    +0.008 A 
ATOM     15  C   UNL     1      -4.126  -0.603  -0.431  0.00  0.00    +0.008 A 
ATOM     17  C   UNL     1      -2.695  -2.988  -0.213  0.00  0.00    +0.038 A 
ATOM     18  C   UNL     1      -4.766  -1.763   0.004  0.00  0.00    +0.038 A 
ATOM     20  C   UNL     1      -4.051  -2.956   0.113  0.00  0.00    +0.123 A 
ENDBRANCH  11  13
ENDBRANCH   4  11
TORSDOF 5
