REMARK  Name = 11866366
REMARK  9 active torsions:
REMARK  status: ('A' for Active; 'I' for Inactive)
REMARK    1  A    between atoms: O_3  and  C_12
REMARK    2  A    between atoms: O_4  and  C_15
REMARK    3  A    between atoms: O_5  and  C_17
REMARK    4  A    between atoms: N_9  and  C_13
REMARK    5  A    between atoms: N_10  and  C_20
REMARK    6  A    between atoms: C_12  and  C_18
REMARK    7  A    between atoms: C_19  and  C_21
REMARK    8  A    between atoms: C_20  and  C_22
REMARK    9  A    between atoms: C_22  and  C_25
REMARK                            x       y       z     vdW  Elec       q    Type
REMARK                         _______ _______ _______ _____ _____    ______ ____
ROOT
ATOM     12  C   UNL     1      -2.185  -0.637   1.140  0.00  0.00    +0.146 C 
ATOM     13  C   UNL     1       0.121  -1.333   0.331  0.00  0.00    +0.107 C 
ATOM     14  C   UNL     1      -0.789  -0.166   0.728  0.00  0.00    +0.069 C 
ATOM     15  C   UNL     1      -0.523  -2.218  -0.745  0.00  0.00    +0.163 C 
ATOM     16  C   UNL     1      -2.822  -1.500   0.053  0.00  0.00    +0.078 C 
ATOM     17  C   UNL     1      -1.928  -2.675  -0.347  0.00  0.00    +0.148 C 
ENDROOT
BRANCH  12  18
ATOM      6  O   UNL     1      -3.591   0.676   2.556  0.00  0.00    -0.273 OA
ATOM     10  N   UNL     1      -3.219   1.382   0.369  0.00  0.00    -0.312 N 
ATOM     18  C   UNL     1      -3.068   0.535   1.454  0.00  0.00    +0.245 C 
ATOM     33  H   UNL     1      -2.765   1.171  -0.513  0.00  0.00    +0.149 HD
BRANCH  10  20
ATOM     20  C   UNL     1      -4.038   2.572   0.404  0.00  0.00    +0.113 C 
BRANCH  20  22
ATOM     22  C   UNL     1      -5.476   2.295  -0.014  0.00  0.00    +0.114 C 
BRANCH  22  25
ATOM      8  O   UNL     1      -4.645   1.581  -2.182  0.00  0.00    -0.276 OA
ATOM     11  N   UNL     1      -6.909   1.520  -1.786  0.00  0.00    -0.329 N 
ATOM     25  C   UNL     1      -5.599   1.764  -1.431  0.00  0.00    +0.212 C 
ATOM     34  H   UNL     1      -7.682   1.682  -1.149  0.00  0.00    +0.145 HD
ATOM     35  H   UNL     1      -7.142   1.165  -2.707  0.00  0.00    +0.145 HD
ENDBRANCH  22  25
ENDBRANCH  20  22
ENDBRANCH  10  20
ENDBRANCH  12  18
BRANCH  13   9
ATOM      7  O   UNL     1       2.417  -0.760   1.956  0.00  0.00    -0.270 OA
ATOM      9  N   UNL     1       1.397  -0.825  -0.125  0.00  0.00    -0.306 N 
ATOM     19  C   UNL     1       2.448  -0.579   0.742  0.00  0.00    +0.244 C 
ATOM     29  H   UNL     1       1.454  -0.540  -1.097  0.00  0.00    +0.149 HD
BRANCH  19  21
ATOM      1 CL   UNL     1       6.759   2.223   1.241  0.00  0.00    -0.081 Cl
ATOM      2  F   UNL     1       7.087   1.460  -1.605  0.00  0.00    -0.204 F 
ATOM     21  C   UNL     1       3.683  -0.034   0.121  0.00  0.00    +0.038 A 
ATOM     23  C   UNL     1       4.528   0.742   0.888  0.00  0.00    +0.036 A 
ATOM     24  C   UNL     1       3.946  -0.322  -1.202  0.00  0.00    +0.016 A 
ATOM     26  C   UNL     1       5.688   1.253   0.306  0.00  0.00    +0.077 A 
ATOM     27  C   UNL     1       5.106   0.189  -1.784  0.00  0.00    +0.040 A 
ATOM     28  C   UNL     1       5.977   0.976  -1.031  0.00  0.00    +0.142 A 
ENDBRANCH  19  21
ENDBRANCH  13   9
BRANCH  12   3
ATOM      3  O   UNL     1      -2.122  -1.384   2.350  0.00  0.00    -0.379 OA
ATOM     30  H   UNL     1      -3.003  -1.752   2.531  0.00  0.00    +0.211 HD
ENDBRANCH  12   3
BRANCH  15   4
ATOM      4  O   UNL     1       0.278  -3.390  -0.926  0.00  0.00    -0.387 OA
ATOM     31  H   UNL     1      -0.045  -3.847  -1.720  0.00  0.00    +0.210 HD
ENDBRANCH  15   4
BRANCH  17   5
ATOM      5  O   UNL     1      -2.519  -3.345  -1.461  0.00  0.00    -0.389 OA
ATOM     32  H   UNL     1      -2.033  -4.176  -1.598  0.00  0.00    +0.210 HD
ENDBRANCH  17   5
TORSDOF 9
