REMARK  Name = 51137291
REMARK  4 active torsions:
REMARK  status: ('A' for Active; 'I' for Inactive)
REMARK    1  A    between atoms: N_3  and  C_11
REMARK    2  A    between atoms: C_7  and  C_12
REMARK    3  A    between atoms: C_11  and  C_13
REMARK    4  A    between atoms: C_16  and  C_19
REMARK                            x       y       z     vdW  Elec       q    Type
REMARK                         _______ _______ _______ _____ _____    ______ ____
ROOT
ATOM      3  N   UNL     1      -1.832  -0.838  -0.215  0.00  0.00    -0.297 NA
ATOM      7  C   UNL     1       0.175  -1.886   0.394  0.00  0.00    +0.092 C 
ATOM      8  C   UNL     1      -0.427  -1.176   1.619  0.00  0.00    +0.029 C 
ATOM      9  C   UNL     1      -0.571  -1.288  -0.807  0.00  0.00    +0.097 C 
ATOM     10  C   UNL     1      -1.451  -0.204   1.048  0.00  0.00    +0.085 C 
ENDROOT
BRANCH   7  12
ATOM      2  O   UNL     1       2.194  -0.518   0.168  0.00  0.00    -0.420 OA
ATOM      4  N   UNL     1       2.587  -2.719   0.244  0.00  0.00    -0.112 NA
ATOM      5  N   UNL     1       3.802  -2.072   0.116  0.00  0.00    -0.107 NA
ATOM     12  C   UNL     1       1.677  -1.773   0.270  0.00  0.00    +0.222 A 
ATOM     16  C   UNL     1       3.524  -0.790   0.076  0.00  0.00    +0.248 A 
BRANCH  16  19
ATOM      6  N   UNL     1       6.077   2.562  -0.291  0.00  0.00    -0.263 NA
ATOM     19  C   UNL     1       4.390   0.347  -0.048  0.00  0.00    +0.041 A 
ATOM     21  C   UNL     1       5.766   0.169  -0.148  0.00  0.00    +0.033 A 
ATOM     22  C   UNL     1       3.857   1.631  -0.070  0.00  0.00    +0.033 A 
ATOM     23  C   UNL     1       6.559   1.299  -0.267  0.00  0.00    +0.111 A 
ATOM     24  C   UNL     1       4.736   2.696  -0.192  0.00  0.00    +0.111 A 
ENDBRANCH  16  19
ENDBRANCH   7  12
BRANCH   3  11
ATOM     11  C   UNL     1      -2.564   0.067  -1.090  0.00  0.00    +0.119 C 
BRANCH  11  13
ATOM      1 CL   UNL     1      -6.369   2.810   1.181  0.00  0.00    -0.084 Cl
ATOM     13  C   UNL     1      -4.013   0.178  -0.696  0.00  0.00    -0.032 A 
ATOM     14  C   UNL     1      -4.467   1.310  -0.019  0.00  0.00    +0.025 A 
ATOM     15  C   UNL     1      -4.901  -0.852  -1.008  0.00  0.00    +0.005 A 
ATOM     17  C   UNL     1      -5.809   1.413   0.345  0.00  0.00    +0.041 A 
ATOM     18  C   UNL     1      -6.244  -0.749  -0.643  0.00  0.00    +0.002 A 
ATOM     20  C   UNL     1      -6.698   0.384   0.033  0.00  0.00    +0.020 A 
ENDBRANCH  11  13
ENDBRANCH   3  11
TORSDOF 4
