REMARK  Name = 45360453
REMARK  7 active torsions:
REMARK  status: ('A' for Active; 'I' for Inactive)
REMARK    1  A    between atoms: N_4  and  C_16
REMARK    2  A    between atoms: N_7  and  C_26
REMARK    3  A    between atoms: C_10  and  C_17
REMARK    4  A    between atoms: C_11  and  C_16
REMARK    5  A    between atoms: C_19  and  C_22
REMARK    6  A    between atoms: C_20  and  C_23
REMARK    7  A    between atoms: C_32  and  C_35
REMARK                            x       y       z     vdW  Elec       q    Type
REMARK                         _______ _______ _______ _____ _____    ______ ____
ROOT
ATOM      3  N   UNL     1      -0.369  -2.929  -0.844  0.00  0.00    -0.297 NA
ATOM      9  C   UNL     1      -0.888  -2.351   1.642  0.00  0.00    +0.002 C 
ATOM     10  C   UNL     1      -2.134  -2.088   0.751  0.00  0.00    +0.055 C 
ATOM     11  C   UNL     1       0.696  -2.050  -0.293  0.00  0.00    +0.074 C 
ATOM     12  C   UNL     1       0.304  -1.530   1.107  0.00  0.00    +0.024 C 
ATOM     13  C   UNL     1      -0.526  -3.841   1.472  0.00  0.00    +0.019 C 
ATOM     14  C   UNL     1      -1.690  -2.260  -0.729  0.00  0.00    +0.094 C 
ATOM     15  C   UNL     1      -0.405  -4.166  -0.027  0.00  0.00    +0.085 C 
ENDROOT
BRANCH  10  17
ATOM      5  N   UNL     1      -2.460   0.029   1.932  0.00  0.00    -0.237 NA
ATOM      6  N   UNL     1      -4.285   1.518   1.420  0.00  0.00    -0.232 NA
ATOM     17  C   UNL     1      -2.918  -0.802   0.974  0.00  0.00    +0.050 A 
ATOM     18  C   UNL     1      -4.037  -0.547   0.208  0.00  0.00    +0.052 A 
ATOM     19  C   UNL     1      -4.687   0.640   0.477  0.00  0.00    +0.076 A 
ATOM     20  C   UNL     1      -3.180   1.155   2.099  0.00  0.00    +0.127 A 
ATOM     23  C   UNL     1      -2.705   2.099   3.151  0.00  0.00    +0.088 C 
BRANCH  19  22
ATOM      1 BR   UNL     1      -4.156   2.352  -2.171  0.00  0.00    -0.050 Br
ATOM     22  C   UNL     1      -5.872   1.024  -0.253  0.00  0.00    +0.014 A 
ATOM     24  C   UNL     1      -5.806   1.771  -1.429  0.00  0.00    +0.027 A 
ATOM     25  C   UNL     1      -7.109   0.624   0.252  0.00  0.00    +0.011 A 
ATOM     27  C   UNL     1      -6.978   2.119  -2.101  0.00  0.00    +0.016 A 
ATOM     28  C   UNL     1      -8.281   0.972  -0.420  0.00  0.00    +0.001 A 
ATOM     29  C   UNL     1      -8.216   1.719  -1.596  0.00  0.00    +0.001 A 
ENDBRANCH  19  22
ENDBRANCH  10  17
BRANCH  11  16
ATOM     16  C   UNL     1       1.060  -0.908  -1.244  0.00  0.00    +0.124 C 
BRANCH  16   4
ATOM      2  O   UNL     1       3.838  -1.392  -1.746  0.00  0.00    -0.253 OA
ATOM      4  N   UNL     1       2.164  -0.154  -0.738  0.00  0.00    -0.298 N 
ATOM      7  N   UNL     1       4.364   0.454  -0.396  0.00  0.00    -0.269 N 
ATOM     21  C   UNL     1       3.508  -0.452  -1.028  0.00  0.00    +0.304 C 
ATOM     36  H   UNL     1       1.967   0.637  -0.132  0.00  0.00    +0.150 HD
ATOM     37  H   UNL     1       3.926   1.179   0.167  0.00  0.00    +0.156 HD
BRANCH   7  26
ATOM     26  C   UNL     1       5.777   0.490  -0.441  0.00  0.00    +0.036 A 
ATOM     30  C   UNL     1       6.474   1.474   0.260  0.00  0.00    +0.042 A 
ATOM     31  C   UNL     1       6.474  -0.461  -1.187  0.00  0.00    +0.023 A 
ATOM     32  C   UNL     1       7.868   1.508   0.215  0.00  0.00    +0.054 A 
ATOM     33  C   UNL     1       7.868  -0.427  -1.232  0.00  0.00    +0.003 A 
ATOM     34  C   UNL     1       8.565   0.557  -0.531  0.00  0.00    +0.019 A 
BRANCH  32  35
ATOM      8  N   UNL     1       9.162   3.335   1.515  0.00  0.00    -0.191 NA
ATOM     35  C   UNL     1       8.582   2.516   0.932  0.00  0.00    +0.099 C 
ENDBRANCH  32  35
ENDBRANCH   7  26
ENDBRANCH  16   4
ENDBRANCH  11  16
TORSDOF 6
