REMARK  Name = 51136637
REMARK  11 active torsions:
REMARK  status: ('A' for Active; 'I' for Inactive)
REMARK    1  A    between atoms: S_1  and  N_9
REMARK    2  A    between atoms: S_1  and  C_21
REMARK    3  A    between atoms: O_5  and  C_19
REMARK    4  A    between atoms: O_7  and  C_29
REMARK    5  A    between atoms: O_7  and  C_34
REMARK    6  A    between atoms: O_8  and  C_30
REMARK    7  A    between atoms: O_8  and  C_35
REMARK    8  A    between atoms: C_11  and  C_16
REMARK    9  A    between atoms: C_12  and  C_17
REMARK   10  A    between atoms: C_16  and  C_18
REMARK   11  A    between atoms: C_17  and  C_19
REMARK                            x       y       z     vdW  Elec       q    Type
REMARK                         _______ _______ _______ _____ _____    ______ ____
ROOT
ATOM      9  N   UNL     1      -0.996   0.175  -0.620  0.00  0.00    -0.176 NA
ATOM     11  C   UNL     1      -0.903  -1.911   0.728  0.00  0.00    +0.014 C 
ATOM     12  C   UNL     1      -2.028  -2.505  -0.154  0.00  0.00    +0.006 C 
ATOM     13  C   UNL     1      -1.023  -0.379   0.767  0.00  0.00    +0.113 C 
ATOM     14  C   UNL     1      -2.054  -1.853  -1.544  0.00  0.00    +0.021 C 
ATOM     15  C   UNL     1      -2.127  -0.332  -1.447  0.00  0.00    +0.110 C 
ENDROOT
BRANCH   9   1
ATOM      1  S   UNL     1      -0.705   1.860  -0.730  0.00  0.00    +0.061 S 
ATOM      3  O   UNL     1      -0.564   2.224  -2.123  0.00  0.00    -0.153 OA
ATOM      4  O   UNL     1       0.302   2.227   0.243  0.00  0.00    -0.153 OA
BRANCH   1  21
ATOM      2  F   UNL     1      -5.894   3.921   1.160  0.00  0.00    -0.205 F 
ATOM     21  C   UNL     1      -2.258   2.478  -0.163  0.00  0.00    +0.106 A 
ATOM     26  C   UNL     1      -2.458   2.724   1.195  0.00  0.00    +0.031 A 
ATOM     27  C   UNL     1      -3.287   2.719  -1.075  0.00  0.00    +0.031 A 
ATOM     31  C   UNL     1      -3.686   3.212   1.642  0.00  0.00    +0.040 A 
ATOM     32  C   UNL     1      -4.514   3.207  -0.627  0.00  0.00    +0.040 A 
ATOM     33  C   UNL     1      -4.714   3.454   0.731  0.00  0.00    +0.124 A 
ENDBRANCH   1  21
ENDBRANCH   9   1
BRANCH  11  16
ATOM     16  C   UNL     1       0.511  -2.329   0.304  0.00  0.00    +0.060 C 
BRANCH  16  18
ATOM     10  N   UNL     1       1.445  -2.008   2.493  0.00  0.00    -0.287 NA
ATOM     18  C   UNL     1       1.528  -1.717   1.237  0.00  0.00    +0.044 C 
ATOM     20  C   UNL     1       2.562  -0.813   0.673  0.00  0.00    +0.003 A 
ATOM     22  C   UNL     1       3.228   0.026   1.577  0.00  0.00    -0.033 A 
ATOM     23  C   UNL     1       2.848  -0.033   3.027  0.00  0.00    +0.059 C 
ATOM     24  C   UNL     1       2.469  -1.462   3.390  0.00  0.00    +0.146 C 
ATOM     25  C   UNL     1       2.867  -0.769  -0.689  0.00  0.00    +0.059 A 
ATOM     28  C   UNL     1       4.184   0.929   1.105  0.00  0.00    +0.053 A 
ATOM     29  C   UNL     1       3.834   0.125  -1.149  0.00  0.00    +0.162 A 
ATOM     30  C   UNL     1       4.489   0.974  -0.256  0.00  0.00    +0.162 A 
BRANCH  29   7
ATOM      7  O   UNL     1       4.130   0.163  -2.479  0.00  0.00    -0.491 OA
ATOM     34  C   UNL     1       3.370   1.060  -3.286  0.00  0.00    +0.277 C 
ENDBRANCH  29   7
BRANCH  30   8
ATOM      8  O   UNL     1       5.428   1.854  -0.702  0.00  0.00    -0.491 OA
ATOM     35  C   UNL     1       6.778   1.396  -0.742  0.00  0.00    +0.277 C 
ENDBRANCH  30   8
ENDBRANCH  16  18
ENDBRANCH  11  16
BRANCH  12  17
ATOM     17  C   UNL     1      -1.958  -4.027  -0.273  0.00  0.00    +0.124 C 
BRANCH  17  19
ATOM      6  O   UNL     1      -4.329  -4.003  -0.839  0.00  0.00    -0.251 OA
ATOM     19  C   UNL     1      -3.291  -4.617  -0.643  0.00  0.00    +0.305 C 
BRANCH  19   5
ATOM      5  O   UNL     1      -3.185  -5.968  -0.733  0.00  0.00    -0.481 OA
ATOM     36  H   UNL     1      -4.039  -6.386  -0.973  0.00  0.00    +0.295 HD
ENDBRANCH  19   5
ENDBRANCH  17  19
ENDBRANCH  12  17
TORSDOF 9
