REMARK  Name = 11886484
REMARK  3 active torsions:
REMARK  status: ('A' for Active; 'I' for Inactive)
REMARK    1  A    between atoms: C_17  and  C_20
REMARK    2  A    between atoms: C_18  and  C_21
REMARK    3  A    between atoms: C_24  and  C_25
REMARK                            x       y       z     vdW  Elec       q    Type
REMARK                         _______ _______ _______ _____ _____    ______ ____
ROOT
ATOM      2  O   UNL     1       0.403  -2.401  -1.469  0.00  0.00    -0.267 OA
ATOM      3  O   UNL     1      -3.415   0.927  -2.505  0.00  0.00    -0.270 OA
ATOM      4  N   UNL     1      -3.938  -0.153  -0.496  0.00  0.00    -0.296 N 
ATOM      5  N   UNL     1      -1.375  -1.963  -0.026  0.00  0.00    -0.311 N 
ATOM      8  C   UNL     1      -3.786  -2.636  -0.574  0.00  0.00    +0.027 C 
ATOM      9  C   UNL     1      -3.292  -1.446   1.523  0.00  0.00    +0.054 C 
ATOM     10  C   UNL     1      -3.965  -2.688   0.939  0.00  0.00    +0.018 C 
ATOM     11  C   UNL     1      -4.434  -1.364  -1.149  0.00  0.00    +0.113 C 
ATOM     12  C   UNL     1      -2.288  -2.718  -0.897  0.00  0.00    +0.130 C 
ATOM     13  C   UNL     1      -3.979  -0.180   0.975  0.00  0.00    +0.117 C 
ATOM     14  C   UNL     1      -1.815  -1.415   1.181  0.00  0.00    +0.027 A 
ATOM     15  C   UNL     1      -0.939  -0.831   2.014  0.00  0.00    +0.022 A 
ATOM     16  C   UNL     1      -0.022  -1.911  -0.421  0.00  0.00    +0.259 A 
ATOM     17  C   UNL     1      -3.453   0.899  -1.276  0.00  0.00    +0.250 C 
ATOM     18  C   UNL     1       0.931  -1.223   0.519  0.00  0.00    +0.040 A 
ATOM     19  C   UNL     1       0.452  -0.735   1.672  0.00  0.00    +0.015 A 
ENDROOT
BRANCH  17  20
ATOM      6  N   UNL     1      -1.068   3.244   0.400  0.00  0.00    -0.243 NA
ATOM      7  N   UNL     1      -3.260   4.245   0.388  0.00  0.00    -0.243 NA
ATOM     20  C   UNL     1      -2.919   2.077  -0.584  0.00  0.00    +0.073 A 
ATOM     22  C   UNL     1      -1.592   2.176  -0.236  0.00  0.00    +0.127 A 
ATOM     23  C   UNL     1      -3.717   3.146  -0.248  0.00  0.00    +0.127 A 
ATOM     26  C   UNL     1      -1.946   4.228   0.677  0.00  0.00    +0.221 A 
ENDBRANCH  17  20
BRANCH  18  21
ATOM     21  C   UNL     1       2.326  -1.110   0.175  0.00  0.00    +0.014 C 
ATOM     24  C   UNL     1       3.095  -0.091   0.579  0.00  0.00    +0.008 C 
BRANCH  24  25
ATOM      1 CL   UNL     1       8.868   0.571  -0.768  0.00  0.00    -0.084 Cl
ATOM     25  C   UNL     1       4.520   0.072   0.246  0.00  0.00    -0.025 A 
ATOM     27  C   UNL     1       5.252  -1.030  -0.166  0.00  0.00    +0.009 A 
ATOM     28  C   UNL     1       5.102   1.325   0.351  0.00  0.00    +0.009 A 
ATOM     29  C   UNL     1       6.602  -0.875  -0.481  0.00  0.00    +0.020 A 
ATOM     30  C   UNL     1       6.452   1.480   0.036  0.00  0.00    +0.020 A 
ATOM     31  C   UNL     1       7.202   0.380  -0.380  0.00  0.00    +0.041 A 
ENDBRANCH  24  25
ENDBRANCH  18  21
TORSDOF 3
