REMARK  Name = 44716813
REMARK  7 active torsions:
REMARK  status: ('A' for Active; 'I' for Inactive)
REMARK    1  A    between atoms: N_4  and  C_12
REMARK    2  A    between atoms: N_5  and  C_13
REMARK    3  A    between atoms: N_6  and  C_18
REMARK    4  A    between atoms: N_9  and  C_35
REMARK    5  A    between atoms: N_9  and  C_37
REMARK    6  A    between atoms: N_9  and  C_38
REMARK    7  A    between atoms: C_19  and  C_23
REMARK                            x       y       z     vdW  Elec       q    Type
REMARK                         _______ _______ _______ _____ _____    ______ ____
ROOT
ATOM      1  O   UNL     1      -0.322   4.148   1.030  0.00  0.00    -0.370 OA
ATOM      2  O   UNL     1       0.686   1.420   2.161  0.00  0.00    -0.370 OA
ATOM     10  C   UNL     1       0.607   1.966   0.834  0.00  0.00    +0.171 C 
ATOM     11  C   UNL     1      -0.670   2.780   0.758  0.00  0.00    +0.171 C 
ATOM     12  C   UNL     1       1.705   2.980   0.618  0.00  0.00    +0.130 C 
ATOM     13  C   UNL     1      -1.528   2.224   1.872  0.00  0.00    +0.131 C 
ATOM     14  C   UNL     1       1.101   4.251   1.186  0.00  0.00    +0.185 C 
ATOM     15  C   UNL     1      -0.491   1.790   2.893  0.00  0.00    +0.185 C 
ENDROOT
BRANCH  12   4
ATOM      4  N   UNL     1       1.962   3.138  -0.797  0.00  0.00    -0.306 N 
ATOM      7  N   UNL     1       3.419   1.329  -0.832  0.00  0.00    -0.214 NA
ATOM      8  N   UNL     1       2.948   2.594  -2.828  0.00  0.00    -0.223 NA
ATOM     16  C   UNL     1       2.814   2.318  -1.517  0.00  0.00    +0.216 A 
ATOM     19  C   UNL     1       4.239   0.547  -1.565  0.00  0.00    +0.076 A 
ATOM     20  C   UNL     1       3.783   1.774  -3.500  0.00  0.00    +0.116 A 
ATOM     21  C   UNL     1       4.462   0.724  -2.915  0.00  0.00    +0.048 A 
ATOM     39  H   UNL     1       1.463   3.850  -1.318  0.00  0.00    +0.149 HD
BRANCH  19  23
ATOM     23  C   UNL     1       4.888  -0.514  -0.835  0.00  0.00    +0.001 A 
ATOM     29  C   UNL     1       6.281  -0.567  -0.772  0.00  0.00    +0.012 A 
ATOM     30  C   UNL     1       4.124  -1.488  -0.191  0.00  0.00    +0.012 A 
ATOM     33  C   UNL     1       6.909  -1.593  -0.065  0.00  0.00    +0.024 A 
ATOM     34  C   UNL     1       4.752  -2.514   0.515  0.00  0.00    +0.024 A 
ATOM     35  C   UNL     1       6.144  -2.567   0.578  0.00  0.00    +0.029 A 
BRANCH  35   9
ATOM      9  N   UNL     1       6.779  -3.604   1.291  0.00  0.00    -0.336 N 
ATOM     37  C   UNL     1       8.226  -3.668   1.363  0.00  0.00    +0.129 C 
ATOM     38  C   UNL     1       5.994  -4.617   1.970  0.00  0.00    +0.129 C 
ENDBRANCH  35   9
ENDBRANCH  19  23
ENDBRANCH  12   4
BRANCH  13   5
ATOM      3  O   UNL     1      -4.225   2.304   0.912  0.00  0.00    -0.252 OA
ATOM      5  N   UNL     1      -2.315   1.104   1.416  0.00  0.00    -0.292 N 
ATOM      6  N   UNL     1      -4.138  -0.019   0.586  0.00  0.00    -0.269 N 
ATOM     17  C   UNL     1      -3.632   1.229   0.960  0.00  0.00    +0.304 C 
ATOM     40  H   UNL     1      -1.870   0.193   1.362  0.00  0.00    +0.151 HD
ATOM     41  H   UNL     1      -3.493  -0.791   0.701  0.00  0.00    +0.156 HD
BRANCH   6  18
ATOM     18  C   UNL     1      -5.423  -0.317   0.077  0.00  0.00    +0.042 A 
ATOM     22  C   UNL     1      -5.800  -1.628  -0.260  0.00  0.00    +0.003 A 
ATOM     24  C   UNL     1      -6.316   0.743  -0.083  0.00  0.00    +0.024 A 
ATOM     25  C   UNL     1      -7.100  -1.866  -0.765  0.00  0.00    -0.016 A 
ATOM     26  C   UNL     1      -7.595   0.509  -0.580  0.00  0.00    +0.002 A 
ATOM     27  C   UNL     1      -4.915  -2.707  -0.105  0.00  0.00    +0.010 A 
ATOM     28  C   UNL     1      -7.986  -0.787  -0.920  0.00  0.00    +0.008 A 
ATOM     31  C   UNL     1      -7.477  -3.176  -1.102  0.00  0.00    +0.008 A 
ATOM     32  C   UNL     1      -5.306  -4.003  -0.445  0.00  0.00    +0.001 A 
ATOM     36  C   UNL     1      -6.584  -4.237  -0.942  0.00  0.00    +0.001 A 
ENDBRANCH   6  18
ENDBRANCH  13   5
TORSDOF 5
