REMARK  Name = 7164746
REMARK  6 active torsions:
REMARK  status: ('A' for Active; 'I' for Inactive)
REMARK    1  A    between atoms: O_4  and  C_29
REMARK    2  A    between atoms: O_4  and  C_35
REMARK    3  A    between atoms: N_7  and  C_21
REMARK    4  A    between atoms: N_8  and  C_19
REMARK    5  A    between atoms: C_22  and  C_25
REMARK    6  A    between atoms: C_25  and  C_28
REMARK                            x       y       z     vdW  Elec       q    Type
REMARK                         _______ _______ _______ _____ _____    ______ ____
ROOT
ATOM      1  O   UNL     1      -0.963   2.470   1.900  0.00  0.00    -0.266 OA
ATOM      2  O   UNL     1      -2.715  -2.299   1.789  0.00  0.00    -0.252 OA
ATOM      5  N   UNL     1      -3.984  -1.113   0.265  0.00  0.00    -0.284 N 
ATOM      6  N   UNL     1      -2.616   1.716   0.430  0.00  0.00    -0.310 N 
ATOM      7  N   UNL     1      -2.159  -2.416  -0.461  0.00  0.00    -0.269 N 
ATOM      9  C   UNL     1      -4.937   0.974   1.221  0.00  0.00    +0.027 C 
ATOM     10  C   UNL     1      -4.365   0.867  -1.174  0.00  0.00    +0.054 C 
ATOM     11  C   UNL     1      -5.389   1.402  -0.172  0.00  0.00    +0.018 C 
ATOM     12  C   UNL     1      -4.845  -0.562   1.315  0.00  0.00    +0.114 C 
ATOM     13  C   UNL     1      -3.594   1.651   1.526  0.00  0.00    +0.130 C 
ATOM     14  C   UNL     1      -4.338  -0.671  -1.095  0.00  0.00    +0.119 C 
ATOM     15  C   UNL     1      -2.982   1.422  -0.888  0.00  0.00    +0.027 A 
ATOM     16  C   UNL     1      -2.101   1.592  -1.889  0.00  0.00    +0.024 A 
ATOM     17  C   UNL     1      -1.326   2.181   0.758  0.00  0.00    +0.273 A 
ATOM     18  C   UNL     1      -2.933  -1.986   0.616  0.00  0.00    +0.306 C 
ATOM     19  C   UNL     1      -0.367   2.332  -0.382  0.00  0.00    +0.099 A 
ATOM     20  C   UNL     1      -0.768   2.055  -1.627  0.00  0.00    +0.030 A 
ATOM     36  H   UNL     1      -2.598  -2.488  -1.371  0.00  0.00    +0.156 HD
ENDROOT
BRANCH   7  21
ATOM     21  C   UNL     1      -0.786  -2.767  -0.446  0.00  0.00    +0.035 A 
ATOM     23  C   UNL     1      -0.160  -3.180  -1.622  0.00  0.00    +0.027 A 
ATOM     24  C   UNL     1      -0.062  -2.700   0.744  0.00  0.00    +0.027 A 
ATOM     26  C   UNL     1       1.191  -3.526  -1.608  0.00  0.00    +0.047 A 
ATOM     27  C   UNL     1       1.290  -3.047   0.758  0.00  0.00    +0.047 A 
ATOM     29  C   UNL     1       1.916  -3.460  -0.418  0.00  0.00    +0.120 A 
BRANCH  29   4
ATOM      4  O   UNL     1       3.234  -3.798  -0.405  0.00  0.00    -0.495 OA
ATOM     35  C   UNL     1       3.915  -3.708   0.846  0.00  0.00    +0.277 C 
ENDBRANCH  29   4
ENDBRANCH   7  21
BRANCH  19   8
ATOM      3  O   UNL     1       2.008   1.685  -1.842  0.00  0.00    -0.275 OA
ATOM      8  N   UNL     1       0.896   2.762  -0.102  0.00  0.00    -0.281 N 
ATOM     22  C   UNL     1       2.014   2.412  -0.852  0.00  0.00    +0.222 C 
ATOM     37  H   UNL     1       1.042   3.166   0.820  0.00  0.00    +0.155 HD
BRANCH  22  25
ATOM     25  C   UNL     1       3.273   3.047  -0.292  0.00  0.00    +0.131 C 
BRANCH  25  28
ATOM     28  C   UNL     1       4.313   2.042   0.128  0.00  0.00    -0.039 A 
ATOM     30  C   UNL     1       4.316   1.546   1.432  0.00  0.00    +0.004 A 
ATOM     31  C   UNL     1       5.272   1.606  -0.786  0.00  0.00    +0.004 A 
ATOM     32  C   UNL     1       5.279   0.616   1.822  0.00  0.00    +0.000 A 
ATOM     33  C   UNL     1       6.234   0.675  -0.397  0.00  0.00    +0.000 A 
ATOM     34  C   UNL     1       6.238   0.179   0.907  0.00  0.00    +0.000 A 
ENDBRANCH  25  28
ENDBRANCH  22  25
ENDBRANCH  19   8
TORSDOF 5
