REMARK  Name = 7155600
REMARK  5 active torsions:
REMARK  status: ('A' for Active; 'I' for Inactive)
REMARK    1  A    between atoms: O_4  and  C_29
REMARK    2  A    between atoms: O_4  and  C_34
REMARK    3  A    between atoms: N_7  and  C_22
REMARK    4  A    between atoms: N_8  and  C_20
REMARK    5  A    between atoms: C_23  and  C_26
REMARK                            x       y       z     vdW  Elec       q    Type
REMARK                         _______ _______ _______ _____ _____    ______ ____
ROOT
ATOM      1  O   UNL     1       0.436   2.373   1.901  0.00  0.00    -0.266 OA
ATOM      2  O   UNL     1      -3.518  -1.039   1.780  0.00  0.00    -0.252 OA
ATOM      5  N   UNL     1      -3.907   0.574   0.168  0.00  0.00    -0.284 N 
ATOM      6  N   UNL     1      -1.318   2.429   0.359  0.00  0.00    -0.310 N 
ATOM      7  N   UNL     1      -3.032  -1.534  -0.433  0.00  0.00    -0.269 N 
ATOM     10  C   UNL     1      -3.739   2.913   1.033  0.00  0.00    +0.027 C 
ATOM     11  C   UNL     1      -3.199   2.444  -1.318  0.00  0.00    +0.054 C 
ATOM     12  C   UNL     1      -3.885   3.442  -0.389  0.00  0.00    +0.018 C 
ATOM     13  C   UNL     1      -4.403   1.532   1.161  0.00  0.00    +0.114 C 
ATOM     14  C   UNL     1      -2.252   2.876   1.401  0.00  0.00    +0.130 C 
ATOM     15  C   UNL     1      -3.899   1.071  -1.220  0.00  0.00    +0.119 C 
ATOM     16  C   UNL     1      -1.730   2.293  -0.971  0.00  0.00    +0.027 A 
ATOM     17  C   UNL     1      -0.834   1.996  -1.928  0.00  0.00    +0.024 A 
ATOM     18  C   UNL     1       0.025   2.248   0.747  0.00  0.00    +0.273 A 
ATOM     19  C   UNL     1      -3.478  -0.702   0.594  0.00  0.00    +0.306 C 
ATOM     20  C   UNL     1       0.986   1.893  -0.345  0.00  0.00    +0.099 A 
ATOM     21  C   UNL     1       0.550   1.791  -1.605  0.00  0.00    +0.030 A 
ATOM     35  H   UNL     1      -3.414  -1.397  -1.362  0.00  0.00    +0.156 HD
ENDROOT
BRANCH   7  22
ATOM     22  C   UNL     1      -2.121  -2.613  -0.326  0.00  0.00    +0.035 A 
ATOM     24  C   UNL     1      -1.855  -3.407  -1.438  0.00  0.00    +0.027 A 
ATOM     25  C   UNL     1      -1.497  -2.874   0.891  0.00  0.00    +0.027 A 
ATOM     27  C   UNL     1      -0.958  -4.470  -1.333  0.00  0.00    +0.047 A 
ATOM     28  C   UNL     1      -0.600  -3.937   0.996  0.00  0.00    +0.047 A 
ATOM     29  C   UNL     1      -0.330  -4.734  -0.116  0.00  0.00    +0.120 A 
BRANCH  29   4
ATOM      4  O   UNL     1       0.546  -5.771  -0.013  0.00  0.00    -0.495 OA
ATOM     34  C   UNL     1       1.153  -5.985   1.260  0.00  0.00    +0.277 C 
ENDBRANCH  29   4
ENDBRANCH   7  22
BRANCH  20   8
ATOM      3  O   UNL     1       2.837   0.201  -1.707  0.00  0.00    -0.268 OA
ATOM      8  N   UNL     1       2.292   1.692  -0.008  0.00  0.00    -0.276 N 
ATOM     23  C   UNL     1       3.144   0.854  -0.713  0.00  0.00    +0.267 C 
ATOM     36  H   UNL     1       2.593   2.030   0.903  0.00  0.00    +0.155 HD
BRANCH  23  26
ATOM      9  N   UNL     1       4.780   1.543   0.865  0.00  0.00    -0.250 NA
ATOM     26  C   UNL     1       4.540   0.781  -0.208  0.00  0.00    +0.126 A 
ATOM     30  C   UNL     1       5.439  -0.026  -0.853  0.00  0.00    +0.033 A 
ATOM     31  C   UNL     1       6.731  -0.056  -0.340  0.00  0.00    +0.004 A 
ATOM     32  C   UNL     1       6.047   1.488   1.335  0.00  0.00    +0.111 A 
ATOM     33  C   UNL     1       7.049   0.712   0.774  0.00  0.00    +0.020 A 
ENDBRANCH  23  26
ENDBRANCH  20   8
TORSDOF 4
