REMARK  Name = 26743888
REMARK  8 active torsions:
REMARK  status: ('A' for Active; 'I' for Inactive)
REMARK    1  A    between atoms: S_1  and  C_21
REMARK    2  A    between atoms: S_1  and  C_25
REMARK    3  A    between atoms: O_2  and  C_11
REMARK    4  A    between atoms: N_6  and  C_13
REMARK    5  A    between atoms: C_9  and  C_14
REMARK    6  A    between atoms: C_13  and  C_15
REMARK    7  A    between atoms: C_18  and  C_22
REMARK    8  A    between atoms: C_26  and  C_29
REMARK                            x       y       z     vdW  Elec       q    Type
REMARK                         _______ _______ _______ _____ _____    ______ ____
ROOT
ATOM      6  N   UNL     1       3.497  -0.370  -0.002  0.00  0.00    -0.285 NA
ATOM      9  C   UNL     1       2.995   0.897   0.568  0.00  0.00    +0.149 C 
ATOM     10  C   UNL     1       4.017   1.960   0.125  0.00  0.00    +0.061 C 
ATOM     11  C   UNL     1       5.079   1.188  -0.648  0.00  0.00    +0.130 C 
ATOM     12  C   UNL     1       4.947  -0.226  -0.117  0.00  0.00    +0.116 C 
ENDROOT
BRANCH   9  14
ATOM      3  O   UNL     1       1.380   1.307  -1.220  0.00  0.00    -0.336 OA
ATOM      7  N   UNL     1       0.512   1.430   0.841  0.00  0.00    -0.190 NA
ATOM      8  N   UNL     1       0.022   1.609  -1.386  0.00  0.00    -0.056 NA
ATOM     14  C   UNL     1       1.585   1.219   0.120  0.00  0.00    +0.245 A 
ATOM     18  C   UNL     1      -0.420   1.665  -0.127  0.00  0.00    +0.202 A 
BRANCH  18  22
ATOM     22  C   UNL     1      -1.787   1.952   0.199  0.00  0.00    +0.023 A 
ATOM     23  C   UNL     1      -2.712   2.188  -0.818  0.00  0.00    +0.015 A 
ATOM     24  C   UNL     1      -2.192   1.996   1.533  0.00  0.00    +0.012 A 
ATOM     26  C   UNL     1      -4.042   2.466  -0.501  0.00  0.00    -0.050 A 
ATOM     27  C   UNL     1      -3.521   2.275   1.850  0.00  0.00    +0.001 A 
ATOM     28  C   UNL     1      -4.446   2.510   0.833  0.00  0.00    +0.003 A 
ATOM     29  C   UNL     1      -5.031   2.718  -1.588  0.00  0.00    +0.044 C 
ENDBRANCH  18  22
ENDBRANCH   9  14
BRANCH  11   2
ATOM      2  O   UNL     1       6.366   1.723  -0.403  0.00  0.00    -0.390 OA
ATOM     30  H   UNL     1       6.358   2.650  -0.697  0.00  0.00    +0.210 HD
ENDBRANCH  11   2
BRANCH   6  13
ATOM     13  C   UNL     1       3.122  -1.540   0.781  0.00  0.00    +0.120 C 
BRANCH  13  15
ATOM     15  C   UNL     1       1.704  -1.966   0.509  0.00  0.00    -0.033 A 
ATOM     16  C   UNL     1       0.780  -2.021   1.553  0.00  0.00    +0.007 A 
ATOM     17  C   UNL     1       1.313  -2.305  -0.786  0.00  0.00    +0.007 A 
ATOM     19  C   UNL     1      -0.534  -2.416   1.301  0.00  0.00    +0.027 A 
ATOM     20  C   UNL     1      -0.000  -2.700  -1.038  0.00  0.00    +0.027 A 
ATOM     21  C   UNL     1      -0.924  -2.755   0.006  0.00  0.00    +0.088 A 
BRANCH  21   1
ATOM      1  S   UNL     1      -2.570  -3.246  -0.310  0.00  0.00    -0.006 S 
ATOM      4  O   UNL     1      -2.596  -4.060  -1.517  0.00  0.00    -0.170 OA
ATOM      5  O   UNL     1      -3.126  -3.772   0.929  0.00  0.00    -0.170 OA
ATOM     25  C   UNL     1      -3.418  -1.729  -0.689  0.00  0.00    +0.200 C 
ENDBRANCH  21   1
ENDBRANCH  13  15
ENDBRANCH   6  13
TORSDOF 6
