REMARK  Name = 25338776
REMARK  5 active torsions:
REMARK  status: ('A' for Active; 'I' for Inactive)
REMARK    1  A    between atoms: N_5  and  C_15
REMARK    2  A    between atoms: N_6  and  C_10
REMARK    3  A    between atoms: N_9  and  C_19
REMARK    4  A    between atoms: C_11  and  C_14
REMARK    5  A    between atoms: C_17  and  C_18
REMARK                            x       y       z     vdW  Elec       q    Type
REMARK                         _______ _______ _______ _____ _____    ______ ____
ROOT
ATOM      5  N   UNL     1      -1.660   3.054   1.082  0.00  0.00    -0.293 NA
ATOM     10  C   UNL     1       0.302   3.137  -0.174  0.00  0.00    +0.090 C 
ATOM     11  C   UNL     1      -2.107   2.751  -0.291  0.00  0.00    +0.147 C 
ATOM     12  C   UNL     1      -0.805   2.650  -1.109  0.00  0.00    +0.052 C 
ATOM     13  C   UNL     1      -0.443   3.859   0.939  0.00  0.00    +0.107 C 
ATOM     15  C   UNL     1      -2.673   3.737   1.878  0.00  0.00    +0.105 C 
ENDROOT
BRANCH  10   6
ATOM      4  O   UNL     1       2.708   2.065  -1.300  0.00  0.00    -0.252 OA
ATOM      6  N   UNL     1       1.082   2.037   0.344  0.00  0.00    -0.295 N 
ATOM      9  N   UNL     1       2.787   0.505   0.452  0.00  0.00    -0.267 N 
ATOM     16  C   UNL     1       2.251   1.574  -0.270  0.00  0.00    +0.304 C 
ATOM     30  H   UNL     1       0.728   1.532   1.150  0.00  0.00    +0.151 HD
ATOM     31  H   UNL     1       2.284   0.218   1.288  0.00  0.00    +0.156 HD
BRANCH   9  19
ATOM      1  F   UNL     1       3.620  -1.594   2.086  0.00  0.00    -0.203 F 
ATOM      2  F   UNL     1       7.371  -2.398  -0.683  0.00  0.00    -0.205 F 
ATOM     19  C   UNL     1       3.956  -0.238   0.165  0.00  0.00    +0.070 A 
ATOM     22  C   UNL     1       4.346  -1.282   1.003  0.00  0.00    +0.147 A 
ATOM     23  C   UNL     1       4.720   0.077  -0.959  0.00  0.00    +0.029 A 
ATOM     26  C   UNL     1       5.500  -2.013   0.716  0.00  0.00    +0.078 A 
ATOM     27  C   UNL     1       5.874  -0.653  -1.245  0.00  0.00    +0.040 A 
ATOM     29  C   UNL     1       6.263  -1.698  -0.408  0.00  0.00    +0.126 A 
ENDBRANCH   9  19
ENDBRANCH  10   6
BRANCH  11  14
ATOM      3  O   UNL     1      -4.193   1.645  -0.922  0.00  0.00    -0.336 OA
ATOM      7  N   UNL     1      -2.665   0.273  -0.026  0.00  0.00    -0.190 NA
ATOM      8  N   UNL     1      -4.775   0.371  -0.906  0.00  0.00    -0.056 NA
ATOM     14  C   UNL     1      -2.952   1.498  -0.387  0.00  0.00    +0.245 A 
ATOM     17  C   UNL     1      -3.813  -0.382  -0.364  0.00  0.00    +0.202 A 
BRANCH  17  18
ATOM     18  C   UNL     1      -3.967  -1.792  -0.147  0.00  0.00    +0.022 A 
ATOM     20  C   UNL     1      -2.927  -2.527   0.421  0.00  0.00    +0.012 A 
ATOM     21  C   UNL     1      -5.156  -2.428  -0.505  0.00  0.00    +0.012 A 
ATOM     24  C   UNL     1      -3.076  -3.898   0.632  0.00  0.00    +0.001 A 
ATOM     25  C   UNL     1      -5.305  -3.798  -0.295  0.00  0.00    +0.001 A 
ATOM     28  C   UNL     1      -4.264  -4.534   0.274  0.00  0.00    +0.000 A 
ENDBRANCH  17  18
ENDBRANCH  11  14
TORSDOF 4
