REMARK  Name = 11865521
REMARK  10 active torsions:
REMARK  status: ('A' for Active; 'I' for Inactive)
REMARK    1  A    between atoms: O_1  and  C_11
REMARK    2  A    between atoms: O_2  and  C_13
REMARK    3  A    between atoms: N_7  and  C_12
REMARK    4  A    between atoms: N_8  and  C_19
REMARK    5  A    between atoms: N_9  and  C_21
REMARK    6  A    between atoms: C_15  and  C_17
REMARK    7  A    between atoms: C_19  and  C_20
REMARK    8  A    between atoms: C_20  and  C_24
REMARK    9  A    between atoms: C_27  and  C_28
REMARK   10  A    between atoms: C_28  and  C_29
REMARK                            x       y       z     vdW  Elec       q    Type
REMARK                         _______ _______ _______ _____ _____    ______ ____
ROOT
ATOM     11  C   UNL     1       1.433   2.793   0.543  0.00  0.00    +0.167 C 
ATOM     12  C   UNL     1       1.240   1.518  -0.300  0.00  0.00    +0.129 C 
ATOM     13  C   UNL     1       2.764   3.484   0.222  0.00  0.00    +0.149 C 
ATOM     14  C   UNL     1       3.965   2.539   0.402  0.00  0.00    +0.074 C 
ATOM     15  C   UNL     1       3.692   1.134  -0.056  0.00  0.00    +0.015 C 
ATOM     16  C   UNL     1       2.478   0.666  -0.382  0.00  0.00    +0.006 C 
ENDROOT
BRANCH  12   7
ATOM      4  O   UNL     1      -1.517   1.715  -1.053  0.00  0.00    -0.252 OA
ATOM      7  N   UNL     1       0.151   0.713   0.196  0.00  0.00    -0.290 N 
ATOM      9  N   UNL     1      -2.006  -0.043   0.423  0.00  0.00    -0.269 N 
ATOM     18  C   UNL     1      -1.174   0.873  -0.226  0.00  0.00    +0.304 C 
ATOM     30  H   UNL     1       0.343   0.030   0.924  0.00  0.00    +0.151 HD
ATOM     34  H   UNL     1      -1.560  -0.676   1.083  0.00  0.00    +0.156 HD
BRANCH   9  21
ATOM     21  C   UNL     1      -3.403  -0.204   0.275  0.00  0.00    +0.035 A 
ATOM     22  C   UNL     1      -4.075  -1.180   1.012  0.00  0.00    +0.024 A 
ATOM     23  C   UNL     1      -4.109   0.612  -0.609  0.00  0.00    +0.024 A 
ATOM     25  C   UNL     1      -5.453  -1.339   0.865  0.00  0.00    +0.013 A 
ATOM     26  C   UNL     1      -5.487   0.453  -0.756  0.00  0.00    +0.013 A 
ATOM     27  C   UNL     1      -6.159  -0.523  -0.019  0.00  0.00    +0.017 A 
BRANCH  27  28
ATOM      6  O   UNL     1      -8.334   0.272  -0.467  0.00  0.00    -0.292 OA
ATOM     28  C   UNL     1      -7.596  -0.689  -0.171  0.00  0.00    +0.160 C 
ATOM     29  C   UNL     1      -8.237  -2.058   0.030  0.00  0.00    +0.091 C 
ENDBRANCH  27  28
ENDBRANCH   9  21
ENDBRANCH  12   7
BRANCH  15  17
ATOM      3  O   UNL     1       5.769   0.467  -0.927  0.00  0.00    -0.271 OA
ATOM      8  N   UNL     1       4.698  -0.910   0.620  0.00  0.00    -0.311 N 
ATOM     17  C   UNL     1       4.827   0.214  -0.177  0.00  0.00    +0.240 C 
ATOM     33  H   UNL     1       3.879  -1.016   1.212  0.00  0.00    +0.149 HD
BRANCH   8  19
ATOM     19  C   UNL     1       5.689  -1.961   0.669  0.00  0.00    +0.113 C 
BRANCH  19  20
ATOM     20  C   UNL     1       5.426  -3.049  -0.363  0.00  0.00    +0.114 C 
BRANCH  20  24
ATOM      5  O   UNL     1       3.296  -3.480   0.721  0.00  0.00    -0.276 OA
ATOM     10  N   UNL     1       3.876  -4.727  -1.121  0.00  0.00    -0.329 N 
ATOM     24  C   UNL     1       4.091  -3.747  -0.175  0.00  0.00    +0.212 C 
ATOM     35  H   UNL     1       3.025  -5.279  -1.116  0.00  0.00    +0.145 HD
ATOM     36  H   UNL     1       4.550  -4.933  -1.852  0.00  0.00    +0.145 HD
ENDBRANCH  20  24
ENDBRANCH  19  20
ENDBRANCH   8  19
ENDBRANCH  15  17
BRANCH  11   1
ATOM      1  O   UNL     1       1.414   2.457   1.932  0.00  0.00    -0.387 OA
ATOM     31  H   UNL     1       1.508   3.284   2.435  0.00  0.00    +0.210 HD
ENDBRANCH  11   1
BRANCH  13   2
ATOM      2  O   UNL     1       2.742   3.998  -1.108  0.00  0.00    -0.389 OA
ATOM     32  H   UNL     1       3.582   4.465  -1.257  0.00  0.00    +0.210 HD
ENDBRANCH  13   2
TORSDOF 9
