REMARK  Name = 75411642
REMARK  3 active torsions:
REMARK  status: ('A' for Active; 'I' for Inactive)
REMARK    1  A    between atoms: O_6  and  C_10
REMARK    2  A    between atoms: O_6  and  C_18
REMARK    3  A    between atoms: C_25  and  C_27
REMARK                            x       y       z     vdW  Elec       q    Type
REMARK                         _______ _______ _______ _____ _____    ______ ____
ROOT
ATOM      1  S   UNL     1      -3.545   1.270   0.347  0.00  0.00    -0.052 S 
ATOM      5  O   UNL     1      -2.814  -3.615   0.817  0.00  0.00    -0.375 OA
ATOM      7  N   UNL     1      -2.526  -1.047  -0.563  0.00  0.00    -0.304 N 
ATOM      8  N   UNL     1      -1.205   0.952  -0.690  0.00  0.00    -0.225 NA
ATOM     10  C   UNL     1      -0.787  -2.819  -0.353  0.00  0.00    +0.218 C 
ATOM     11  C   UNL     1      -1.549  -1.871  -1.284  0.00  0.00    +0.154 C 
ATOM     12  C   UNL     1      -3.809  -1.633  -0.155  0.00  0.00    +0.135 C 
ATOM     13  C   UNL     1      -1.604  -4.000   0.170  0.00  0.00    +0.206 C 
ATOM     14  C   UNL     1      -3.811  -3.154  -0.089  0.00  0.00    +0.179 C 
ATOM     15  C   UNL     1      -2.310   0.324  -0.364  0.00  0.00    +0.162 A 
ATOM     16  C   UNL     1      -2.535   2.663   0.222  0.00  0.00    +0.041 A 
ATOM     17  C   UNL     1      -1.319   2.294  -0.361  0.00  0.00    +0.080 A 
ATOM     19  C   UNL     1      -2.801   3.986   0.610  0.00  0.00    +0.017 A 
ATOM     20  C   UNL     1      -0.335   3.287  -0.560  0.00  0.00    +0.029 A 
ATOM     22  C   UNL     1      -1.810   4.949   0.402  0.00  0.00    +0.001 A 
ATOM     23  C   UNL     1      -0.592   4.606  -0.175  0.00  0.00    +0.002 A 
ENDROOT
BRANCH  10   6
ATOM      6  O   UNL     1      -0.244  -2.087   0.743  0.00  0.00    -0.469 OA
BRANCH   6  18
ATOM      9  N   UNL     1       1.559  -1.690  -0.660  0.00  0.00    -0.221 NA
ATOM     18  C   UNL     1       0.982  -1.510   0.549  0.00  0.00    +0.215 A 
ATOM     21  C   UNL     1       1.555  -0.787   1.583  0.00  0.00    +0.068 A 
ATOM     24  C   UNL     1       2.801  -0.211   1.361  0.00  0.00    +0.019 A 
ATOM     25  C   UNL     1       3.427  -0.374   0.130  0.00  0.00    +0.073 A 
ATOM     26  C   UNL     1       2.770  -1.116  -0.839  0.00  0.00    +0.127 A 
BRANCH  25  27
ATOM      2  F   UNL     1       5.251   0.923   0.931  0.00  0.00    -0.166 F 
ATOM      3  F   UNL     1       5.726  -0.686  -0.452  0.00  0.00    -0.166 F 
ATOM      4  F   UNL     1       4.764   1.116  -1.179  0.00  0.00    -0.166 F 
ATOM     27  C   UNL     1       4.760   0.229  -0.139  0.00  0.00    +0.419 C 
ENDBRANCH  25  27
ENDBRANCH   6  18
ENDBRANCH  10   6
TORSDOF 3
