REMARK  Name = 75537064
REMARK  4 active torsions:
REMARK  status: ('A' for Active; 'I' for Inactive)
REMARK    1  A    between atoms: N_3  and  C_12
REMARK    2  A    between atoms: N_4  and  C_13
REMARK    3  A    between atoms: C_12  and  C_14
REMARK    4  A    between atoms: C_13  and  C_15
REMARK                            x       y       z     vdW  Elec       q    Type
REMARK                         _______ _______ _______ _____ _____    ______ ____
ROOT
ATOM      1  O   UNL     1       2.058   2.575   0.806  0.00  0.00    -0.252 OA
ATOM      2  N   UNL     1       0.291   1.349  -0.140  0.00  0.00    -0.278 N 
ATOM      3  N   UNL     1      -2.049  -0.206  -0.273  0.00  0.00    -0.295 NA
ATOM      4  N   UNL     1       2.363   1.019  -0.940  0.00  0.00    -0.279 N 
ATOM      6  C   UNL     1       0.109   0.450  -1.260  0.00  0.00    +0.109 C 
ATOM      7  C   UNL     1      -0.794  -0.718  -0.863  0.00  0.00    +0.109 C 
ATOM      8  C   UNL     1       1.534   0.057  -1.645  0.00  0.00    +0.133 C 
ATOM      9  C   UNL     1      -0.867   1.796   0.606  0.00  0.00    +0.125 C 
ATOM     10  C   UNL     1      -1.772   0.605   0.930  0.00  0.00    +0.104 C 
ATOM     11  C   UNL     1       1.624   1.755   0.007  0.00  0.00    +0.305 C 
ENDROOT
BRANCH   3  12
ATOM     12  C   UNL     1      -2.946  -1.314   0.054  0.00  0.00    +0.119 C 
BRANCH  12  14
ATOM     14  C   UNL     1      -4.383  -0.870   0.124  0.00  0.00    -0.033 A 
ATOM     16  C   UNL     1      -4.917  -0.423   1.333  0.00  0.00    +0.005 A 
ATOM     17  C   UNL     1      -5.180  -0.906  -1.020  0.00  0.00    +0.005 A 
ATOM     20  C   UNL     1      -6.248  -0.012   1.397  0.00  0.00    +0.000 A 
ATOM     21  C   UNL     1      -6.511  -0.494  -0.956  0.00  0.00    +0.000 A 
ATOM     23  C   UNL     1      -7.045  -0.048   0.253  0.00  0.00    +0.000 A 
ENDBRANCH  12  14
ENDBRANCH   3  12
BRANCH   4  13
ATOM     13  C   UNL     1       3.798   1.070  -1.118  0.00  0.00    +0.146 C 
BRANCH  13  15
ATOM      5  N   UNL     1       5.643  -2.100  -0.183  0.00  0.00    -0.263 NA
ATOM     15  C   UNL     1       4.503   0.029  -0.290  0.00  0.00    -0.012 A 
ATOM     18  C   UNL     1       4.672   0.197   1.080  0.00  0.00    +0.008 A 
ATOM     19  C   UNL     1       5.002  -1.127  -0.868  0.00  0.00    +0.115 A 
ATOM     22  C   UNL     1       5.327  -0.782   1.819  0.00  0.00    +0.020 A 
ATOM     24  C   UNL     1       5.789  -1.901   1.147  0.00  0.00    +0.111 A 
ENDBRANCH  13  15
ENDBRANCH   4  13
TORSDOF 4
