REMARK  Name = 45361003
REMARK  11 active torsions:
REMARK  status: ('A' for Active; 'I' for Inactive)
REMARK    1  A    between atoms: N_3  and  C_13
REMARK    2  A    between atoms: N_4  and  C_18
REMARK    3  A    between atoms: N_6  and  C_24
REMARK    4  A    between atoms: C_12  and  C_17
REMARK    5  A    between atoms: C_13  and  C_15
REMARK    6  A    between atoms: C_15  and  C_19
REMARK    7  A    between atoms: C_15  and  C_20
REMARK    8  A    between atoms: C_15  and  C_21
REMARK    9  A    between atoms: C_17  and  C_22
REMARK   10  A    between atoms: C_22  and  C_23
REMARK   11  A    between atoms: C_24  and  C_25
REMARK                            x       y       z     vdW  Elec       q    Type
REMARK                         _______ _______ _______ _____ _____    ______ ____
ROOT
ATOM      1  O   UNL     1       3.562  -1.640  -1.234  0.00  0.00    -0.274 OA
ATOM      3  N   UNL     1       4.711   0.433   0.059  0.00  0.00    -0.290 NA
ATOM      4  N   UNL     1       1.117   1.115  -0.039  0.00  0.00    -0.296 NA
ATOM      5  N   UNL     1       1.705  -1.706   0.102  0.00  0.00    -0.312 N 
ATOM      8  C   UNL     1       2.475   1.250   0.533  0.00  0.00    +0.084 C 
ATOM      9  C   UNL     1       3.396  -0.006   0.562  0.00  0.00    +0.160 C 
ATOM     10  C   UNL     1       3.360   2.279  -0.194  0.00  0.00    +0.036 C 
ATOM     11  C   UNL     1       4.765   1.883   0.208  0.00  0.00    +0.087 C 
ATOM     12  C   UNL     1       0.224   0.185   0.706  0.00  0.00    +0.074 C 
ATOM     14  C   UNL     1       2.918  -1.177  -0.293  0.00  0.00    +0.232 C 
ATOM     16  C   UNL     1       0.886  -1.134   1.152  0.00  0.00    +0.123 C 
ATOM     18  C   UNL     1       0.476   2.433  -0.183  0.00  0.00    +0.105 C 
ATOM     30  H   UNL     1       1.341  -2.503  -0.412  0.00  0.00    +0.149 HD
ENDROOT
BRANCH   3  13
ATOM     13  C   UNL     1       5.831  -0.228   0.718  0.00  0.00    +0.091 C 
BRANCH  13  15
ATOM     15  C   UNL     1       7.130  -0.263  -0.126  0.00  0.00    -0.025 C 
ATOM     19  C   UNL     1       8.246  -1.019   0.617  0.00  0.00    +0.012 C 
ATOM     20  C   UNL     1       6.890  -0.929  -1.492  0.00  0.00    +0.012 C 
ATOM     21  C   UNL     1       7.592   1.187  -0.363  0.00  0.00    +0.012 C 
ENDBRANCH  13  15
ENDBRANCH   3  13
BRANCH  12  17
ATOM     17  C   UNL     1      -1.009  -0.180  -0.148  0.00  0.00    +0.029 C 
BRANCH  17  22
ATOM     22  C   UNL     1      -2.169  -0.598   0.736  0.00  0.00    +0.097 C 
BRANCH  22  23
ATOM      2  O   UNL     1      -3.423  -0.918  -1.310  0.00  0.00    -0.276 OA
ATOM      6  N   UNL     1      -4.455  -1.345   0.725  0.00  0.00    -0.311 N 
ATOM     23  C   UNL     1      -3.394  -0.963  -0.083  0.00  0.00    +0.213 C 
ATOM     31  H   UNL     1      -4.345  -1.334   1.735  0.00  0.00    +0.149 HD
BRANCH   6  24
ATOM     24  C   UNL     1      -5.734  -1.738   0.183  0.00  0.00    +0.141 C 
BRANCH  24  25
ATOM      7  N   UNL     1      -7.742   1.036  -1.421  0.00  0.00    -0.263 NA
ATOM     25  C   UNL     1      -6.663  -0.569   0.030  0.00  0.00    -0.012 A 
ATOM     26  C   UNL     1      -7.294  -0.005   1.134  0.00  0.00    +0.008 A 
ATOM     27  C   UNL     1      -6.918  -0.017  -1.214  0.00  0.00    +0.115 A 
ATOM     28  C   UNL     1      -8.148   1.078   0.962  0.00  0.00    +0.020 A 
ATOM     29  C   UNL     1      -8.336   1.557  -0.325  0.00  0.00    +0.111 A 
ENDBRANCH  24  25
ENDBRANCH   6  24
ENDBRANCH  22  23
ENDBRANCH  17  22
ENDBRANCH  12  17
TORSDOF 7
