REMARK  Name = 7156584
REMARK  4 active torsions:
REMARK  status: ('A' for Active; 'I' for Inactive)
REMARK    1  A    between atoms: S_2  and  N_7
REMARK    2  A    between atoms: S_2  and  C_16
REMARK    3  A    between atoms: N_9  and  C_17
REMARK    4  A    between atoms: C_26  and  C_28
REMARK                            x       y       z     vdW  Elec       q    Type
REMARK                         _______ _______ _______ _____ _____    ______ ____
ROOT
ATOM      3  O   UNL     1       1.367  -1.665   0.155  0.00  0.00    -0.273 OA
ATOM      6  O   UNL     1       2.487   2.891  -0.200  0.00  0.00    -0.252 OA
ATOM      7  N   UNL     1      -1.117  -1.012   0.866  0.00  0.00    -0.163 NA
ATOM      8  N   UNL     1       0.393   2.269   0.376  0.00  0.00    -0.294 N 
ATOM      9  N   UNL     1       2.028   0.589  -0.000  0.00  0.00    -0.193 N 
ATOM     10  C   UNL     1      -0.617   1.302   0.685  0.00  0.00    +0.103 C 
ATOM     11  C   UNL     1      -0.369  -0.032   0.016  0.00  0.00    +0.186 C 
ATOM     12  C   UNL     1      -0.714   0.948   2.161  0.00  0.00    +0.041 C 
ATOM     13  C   UNL     1      -1.547  -0.325   2.121  0.00  0.00    +0.112 C 
ATOM     14  C   UNL     1       1.085  -0.468   0.063  0.00  0.00    +0.248 C 
ATOM     15  C   UNL     1       1.704   1.971   0.059  0.00  0.00    +0.313 C 
ATOM     29  H   UNL     1       0.137   3.251   0.423  0.00  0.00    +0.151 HD
ENDROOT
BRANCH   9  17
ATOM     17  C   UNL     1       3.427   0.236  -0.144  0.00  0.00    +0.045 A 
ATOM     20  C   UNL     1       3.773  -0.930  -0.814  0.00  0.00    +0.024 A 
ATOM     21  C   UNL     1       4.401   1.067   0.391  0.00  0.00    +0.024 A 
ATOM     24  C   UNL     1       5.119  -1.270  -0.952  0.00  0.00    +0.005 A 
ATOM     25  C   UNL     1       5.747   0.728   0.253  0.00  0.00    +0.005 A 
ATOM     26  C   UNL     1       6.106  -0.441  -0.419  0.00  0.00    -0.050 A 
ATOM     28  C   UNL     1       7.545  -0.804  -0.566  0.00  0.00    +0.044 C 
ENDBRANCH   9  17
BRANCH   7   2
ATOM      2  S   UNL     1      -2.253  -2.020   0.100  0.00  0.00    +0.062 S 
ATOM      4  O   UNL     1      -2.769  -2.981   1.056  0.00  0.00    -0.153 OA
ATOM      5  O   UNL     1      -1.720  -2.463  -1.175  0.00  0.00    -0.153 OA
BRANCH   2  16
ATOM      1 CL   UNL     1      -6.811   2.102  -1.078  0.00  0.00    -0.084 Cl
ATOM     16  C   UNL     1      -3.541  -0.856  -0.233  0.00  0.00    +0.106 A 
ATOM     18  C   UNL     1      -3.532  -0.162  -1.431  0.00  0.00    +0.030 A 
ATOM     19  C   UNL     1      -4.535  -0.659   0.710  0.00  0.00    +0.030 A 
ATOM     22  C   UNL     1      -4.548   0.757  -1.693  0.00  0.00    +0.022 A 
ATOM     23  C   UNL     1      -5.551   0.260   0.448  0.00  0.00    +0.022 A 
ATOM     27  C   UNL     1      -5.557   0.968  -0.754  0.00  0.00    +0.041 A 
ENDBRANCH   2  16
ENDBRANCH   7   2
TORSDOF 3
