REMARK  Name = 40586329
REMARK  4 active torsions:
REMARK  status: ('A' for Active; 'I' for Inactive)
REMARK    1  A    between atoms: N_6  and  C_30
REMARK    2  A    between atoms: C_14  and  C_15
REMARK    3  A    between atoms: C_23  and  C_25
REMARK    4  A    between atoms: C_31  and  C_32
REMARK                            x       y       z     vdW  Elec       q    Type
REMARK                         _______ _______ _______ _____ _____    ______ ____
ROOT
ATOM      1  O   UNL     1      -3.533  -1.284   2.212  0.00  0.00    -0.275 OA
ATOM      2  O   UNL     1       0.714   1.901   1.560  0.00  0.00    -0.267 OA
ATOM      4  N   UNL     1      -3.935   0.293   0.555  0.00  0.00    -0.300 N 
ATOM      5  N   UNL     1      -1.216   1.940   0.251  0.00  0.00    -0.311 N 
ATOM      7  C   UNL     1      -3.490   2.672   1.172  0.00  0.00    +0.027 C 
ATOM      8  C   UNL     1      -3.293   1.964  -1.174  0.00  0.00    +0.054 C 
ATOM      9  C   UNL     1      -3.782   3.088  -0.264  0.00  0.00    +0.018 C 
ATOM     10  C   UNL     1      -4.221   1.362   1.514  0.00  0.00    +0.113 C 
ATOM     11  C   UNL     1      -4.070   0.670  -0.860  0.00  0.00    +0.117 C 
ATOM     12  C   UNL     1      -1.972   2.549   1.354  0.00  0.00    +0.130 C 
ATOM     13  C   UNL     1      -1.805   1.724  -0.997  0.00  0.00    +0.027 A 
ATOM     15  C   UNL     1      -3.643  -0.989   1.020  0.00  0.00    +0.219 C 
ATOM     18  C   UNL     1      -1.063   1.281  -2.024  0.00  0.00    +0.022 A 
ATOM     21  C   UNL     1       0.151   1.692   0.484  0.00  0.00    +0.259 A 
ATOM     23  C   UNL     1       0.949   1.160  -0.677  0.00  0.00    +0.047 A 
ATOM     24  C   UNL     1       0.332   0.991  -1.856  0.00  0.00    +0.015 A 
ENDROOT
BRANCH  15  14
ATOM     14  C   UNL     1      -3.447  -2.051  -0.018  0.00  0.00    +0.075 C 
ATOM     16  C   UNL     1      -1.980  -2.095  -0.448  0.00  0.00    +0.013 C 
ATOM     17  C   UNL     1      -3.908  -3.397   0.544  0.00  0.00    +0.013 C 
ATOM     19  C   UNL     1      -1.718  -3.234  -1.430  0.00  0.00    +0.001 C 
ATOM     20  C   UNL     1      -3.641  -4.535  -0.437  0.00  0.00    +0.001 C 
ATOM     22  C   UNL     1      -2.177  -4.577  -0.868  0.00  0.00    +0.000 C 
ENDBRANCH  15  14
BRANCH  23  25
ATOM     25  C   UNL     1       2.375   0.822  -0.532  0.00  0.00    -0.013 A 
ATOM     26  C   UNL     1       3.328   1.468  -1.319  0.00  0.00    +0.010 A 
ATOM     27  C   UNL     1       2.773  -0.145   0.392  0.00  0.00    +0.010 A 
ATOM     28  C   UNL     1       4.679   1.148  -1.182  0.00  0.00    +0.024 A 
ATOM     29  C   UNL     1       4.123  -0.465   0.528  0.00  0.00    +0.024 A 
ATOM     30  C   UNL     1       5.076   0.181  -0.259  0.00  0.00    +0.033 A 
BRANCH  30   6
ATOM      3  O   UNL     1       6.443  -1.799   1.552  0.00  0.00    -0.276 OA
ATOM      6  N   UNL     1       6.428  -0.139  -0.122  0.00  0.00    -0.286 N 
ATOM     31  C   UNL     1       7.012  -1.074   0.743  0.00  0.00    +0.214 C 
ATOM     32  C   UNL     1       8.511  -1.122   0.584  0.00  0.00    +0.109 C 
ATOM     33  H   UNL     1       7.059   0.377  -0.731  0.00  0.00    +0.155 HD
ENDBRANCH  30   6
ENDBRANCH  23  25
TORSDOF 3
