REMARK  Name = 56774417
REMARK  4 active torsions:
REMARK  status: ('A' for Active; 'I' for Inactive)
REMARK    1  A    between atoms: N_1  and  C_10
REMARK    2  A    between atoms: N_2  and  C_14
REMARK    3  A    between atoms: C_5  and  C_9
REMARK    4  A    between atoms: C_10  and  C_13
REMARK                            x       y       z     vdW  Elec       q    Type
REMARK                         _______ _______ _______ _____ _____    ______ ____
ROOT
ATOM      1  N   UNL     1      -1.812  -0.219  -0.005  0.00  0.00    -0.296 NA
ATOM      5  C   UNL     1       0.387  -0.505   0.758  0.00  0.00    +0.070 C 
ATOM      6  C   UNL     1      -0.331   0.535   1.635  0.00  0.00    +0.028 C 
ATOM      7  C   UNL     1      -0.494  -0.635  -0.491  0.00  0.00    +0.096 C 
ATOM      8  C   UNL     1      -1.553   0.955   0.829  0.00  0.00    +0.085 C 
ENDROOT
BRANCH   5   9
ATOM      2  N   UNL     1       2.764  -1.148   0.217  0.00  0.00    -0.330 N 
ATOM      3  N   UNL     1       2.334   1.030   0.320  0.00  0.00    -0.232 NA
ATOM      9  C   UNL     1       1.826  -0.177   0.432  0.00  0.00    +0.115 A 
ATOM     11  C   UNL     1       3.956  -0.527  -0.052  0.00  0.00    +0.069 A 
ATOM     12  C   UNL     1       3.662   0.832   0.019  0.00  0.00    +0.089 A 
ATOM     14  C   UNL     1       2.542  -2.576   0.264  0.00  0.00    +0.150 C 
ATOM     15  C   UNL     1       5.228  -1.022  -0.341  0.00  0.00    +0.028 A 
ATOM     16  C   UNL     1       4.686   1.767  -0.211  0.00  0.00    +0.030 A 
ATOM     18  C   UNL     1       6.235  -0.078  -0.567  0.00  0.00    +0.002 A 
ATOM     19  C   UNL     1       5.971   1.292  -0.504  0.00  0.00    +0.002 A 
ENDBRANCH   5   9
BRANCH   1  10
ATOM     10  C   UNL     1      -2.740   0.065  -1.089  0.00  0.00    +0.139 C 
BRANCH  10  13
ATOM      4  N   UNL     1      -4.760   1.266  -0.458  0.00  0.00    -0.259 NA
ATOM     13  C   UNL     1      -4.170   0.060  -0.619  0.00  0.00    +0.055 A 
ATOM     17  C   UNL     1      -4.801  -1.150  -0.380  0.00  0.00    +0.024 A 
ATOM     20  C   UNL     1      -6.123  -1.120   0.052  0.00  0.00    +0.003 A 
ATOM     21  C   UNL     1      -6.044   1.255  -0.037  0.00  0.00    +0.111 A 
ATOM     22  C   UNL     1      -6.763   0.101   0.229  0.00  0.00    +0.020 A 
ENDBRANCH  10  13
ENDBRANCH   1  10
TORSDOF 3
