REMARK  Name = 26742810
REMARK  6 active torsions:
REMARK  status: ('A' for Active; 'I' for Inactive)
REMARK    1  A    between atoms: O_3  and  C_29
REMARK    2  A    between atoms: O_3  and  C_30
REMARK    3  A    between atoms: N_5  and  C_17
REMARK    4  A    between atoms: C_16  and  C_18
REMARK    5  A    between atoms: C_17  and  C_19
REMARK    6  A    between atoms: C_18  and  C_20
REMARK                            x       y       z     vdW  Elec       q    Type
REMARK                         _______ _______ _______ _____ _____    ______ ____
ROOT
ATOM      1  O   UNL     1      -5.227   0.036   0.992  0.00  0.00    -0.276 OA
ATOM      2  O   UNL     1       1.685  -0.907   1.575  0.00  0.00    -0.275 OA
ATOM      4  N   UNL     1       0.000  -2.144   0.561  0.00  0.00    -0.301 N 
ATOM      5  N   UNL     1      -3.976   0.237  -0.952  0.00  0.00    -0.297 N 
ATOM      7  C   UNL     1      -1.981  -2.329  -0.934  0.00  0.00    +0.011 C 
ATOM      8  C   UNL     1      -2.873  -2.406   0.327  0.00  0.00    +0.004 C 
ATOM      9  C   UNL     1      -2.221  -1.695   1.527  0.00  0.00    +0.023 C 
ATOM     10  C   UNL     1      -0.567  -2.845  -0.598  0.00  0.00    +0.111 C 
ATOM     11  C   UNL     1      -1.891  -0.938  -1.589  0.00  0.00    +0.024 C 
ATOM     12  C   UNL     1      -4.327  -1.975   0.094  0.00  0.00    +0.100 C 
ATOM     13  C   UNL     1      -0.810  -2.220   1.777  0.00  0.00    +0.108 C 
ATOM     14  C   UNL     1      -3.241  -0.394  -2.045  0.00  0.00    +0.108 C 
ATOM     15  C   UNL     1      -4.558  -0.476   0.091  0.00  0.00    +0.216 C 
ATOM     16  C   UNL     1       1.219  -1.467   0.579  0.00  0.00    +0.220 C 
ENDROOT
BRANCH   5  17
ATOM     17  C   UNL     1      -4.077   1.690  -0.987  0.00  0.00    +0.144 C 
BRANCH  17  19
ATOM      6  N   UNL     1      -1.809   2.973   1.759  0.00  0.00    -0.263 NA
ATOM     19  C   UNL     1      -2.910   2.349  -0.301  0.00  0.00    -0.012 A 
ATOM     21  C   UNL     1      -1.882   2.932  -1.035  0.00  0.00    +0.008 A 
ATOM     22  C   UNL     1      -2.826   2.396   1.081  0.00  0.00    +0.115 A 
ATOM     25  C   UNL     1      -0.818   3.535  -0.374  0.00  0.00    +0.020 A 
ATOM     28  C   UNL     1      -0.829   3.529   1.012  0.00  0.00    +0.111 A 
ENDBRANCH  17  19
ENDBRANCH   5  17
BRANCH  16  18
ATOM     18  C   UNL     1       1.992  -1.432  -0.715  0.00  0.00    +0.131 C 
BRANCH  18  20
ATOM     20  C   UNL     1       3.291  -0.712  -0.534  0.00  0.00    -0.038 A 
ATOM     23  C   UNL     1       3.359   0.667  -0.740  0.00  0.00    +0.007 A 
ATOM     24  C   UNL     1       4.434  -1.418  -0.158  0.00  0.00    +0.007 A 
ATOM     26  C   UNL     1       4.570   1.338  -0.569  0.00  0.00    +0.046 A 
ATOM     27  C   UNL     1       5.644  -0.746   0.013  0.00  0.00    +0.046 A 
ATOM     29  C   UNL     1       5.712   0.632  -0.193  0.00  0.00    +0.120 A 
BRANCH  29   3
ATOM      3  O   UNL     1       6.893   1.288  -0.025  0.00  0.00    -0.495 OA
ATOM     30  C   UNL     1       8.021   0.504   0.361  0.00  0.00    +0.277 C 
ENDBRANCH  29   3
ENDBRANCH  18  20
ENDBRANCH  16  18
TORSDOF 5
