REMARK  Name = 40777958
REMARK  8 active torsions:
REMARK  status: ('A' for Active; 'I' for Inactive)
REMARK    1  A    between atoms: O_4  and  C_12
REMARK    2  A    between atoms: O_5  and  C_13
REMARK    3  A    between atoms: N_9  and  C_22
REMARK    4  A    between atoms: N_10  and  C_16
REMARK    5  A    between atoms: C_11  and  C_15
REMARK    6  A    between atoms: C_14  and  C_16
REMARK    7  A    between atoms: C_15  and  C_17
REMARK    8  A    between atoms: C_23  and  C_26
REMARK                            x       y       z     vdW  Elec       q    Type
REMARK                         _______ _______ _______ _____ _____    ______ ____
ROOT
ATOM      3  O   UNL     1      -4.037  -0.737  -0.940  0.00  0.00    -0.366 OA
ATOM     11  C   UNL     1      -3.665  -1.845  -0.088  0.00  0.00    +0.159 C 
ATOM     12  C   UNL     1      -4.660  -1.851   1.067  0.00  0.00    +0.175 C 
ATOM     13  C   UNL     1      -5.037  -0.388   1.167  0.00  0.00    +0.176 C 
ATOM     14  C   UNL     1      -5.081   0.016  -0.298  0.00  0.00    +0.167 C 
ENDROOT
BRANCH  12   4
ATOM      4  O   UNL     1      -5.791  -2.628   0.673  0.00  0.00    -0.387 OA
ATOM     35  H   UNL     1      -5.497  -3.552   0.598  0.00  0.00    +0.210 HD
ENDBRANCH  12   4
BRANCH  13   5
ATOM      5  O   UNL     1      -6.273  -0.172   1.813  0.00  0.00    -0.387 OA
ATOM     36  H   UNL     1      -6.212  -0.566   2.700  0.00  0.00    +0.210 HD
ENDBRANCH  13   5
BRANCH  11  15
ATOM     15  C   UNL     1      -2.228  -1.623   0.364  0.00  0.00    +0.130 C 
BRANCH  15  17
ATOM      6  O   UNL     1      -1.722  -2.420  -1.815  0.00  0.00    -0.276 OA
ATOM      8  N   UNL     1       0.081  -1.801  -0.487  0.00  0.00    -0.298 N 
ATOM      9  N   UNL     1       2.900  -1.253  -0.125  0.00  0.00    -0.327 N 
ATOM     17  C   UNL     1      -1.277  -1.985  -0.751  0.00  0.00    +0.218 C 
ATOM     18  C   UNL     1       0.608  -1.284   0.779  0.00  0.00    +0.126 C 
ATOM     19  C   UNL     1       1.065  -2.122  -1.517  0.00  0.00    +0.126 C 
ATOM     20  C   UNL     1       2.070  -1.665   1.010  0.00  0.00    +0.124 C 
ATOM     21  C   UNL     1       2.281  -1.201  -1.452  0.00  0.00    +0.124 C 
BRANCH   9  22
ATOM      1  F   UNL     1       8.252  -0.069   0.538  0.00  0.00    -0.205 F 
ATOM     22  C   UNL     1       4.250  -0.954   0.042  0.00  0.00    +0.030 A 
ATOM     24  C   UNL     1       4.986  -1.590   1.042  0.00  0.00    +0.026 A 
ATOM     25  C   UNL     1       4.866  -0.020  -0.790  0.00  0.00    +0.026 A 
ATOM     27  C   UNL     1       6.338  -1.291   1.210  0.00  0.00    +0.040 A 
ATOM     28  C   UNL     1       6.218   0.279  -0.623  0.00  0.00    +0.040 A 
ATOM     29  C   UNL     1       6.954  -0.357   0.377  0.00  0.00    +0.124 A 
ENDBRANCH   9  22
ENDBRANCH  15  17
ENDBRANCH  11  15
BRANCH  14  16
ATOM     16  C   UNL     1      -4.852   1.500  -0.520  0.00  0.00    +0.138 C 
BRANCH  16  10
ATOM      7  O   UNL     1      -2.375   1.534  -1.971  0.00  0.00    -0.270 OA
ATOM     10  N   UNL     1      -3.572   1.907  -0.019  0.00  0.00    -0.309 N 
ATOM     23  C   UNL     1      -2.417   1.892  -0.797  0.00  0.00    +0.244 C 
ATOM     37  H   UNL     1      -3.546   2.267   0.929  0.00  0.00    +0.149 HD
BRANCH  23  26
ATOM      2  F   UNL     1       2.051   3.805  -0.952  0.00  0.00    -0.205 F 
ATOM     26  C   UNL     1      -1.165   2.320  -0.122  0.00  0.00    +0.039 A 
ATOM     30  C   UNL     1      -0.124   2.872  -0.869  0.00  0.00    +0.051 A 
ATOM     31  C   UNL     1      -1.029   2.168   1.258  0.00  0.00    +0.013 A 
ATOM     32  C   UNL     1       1.052   3.273  -0.235  0.00  0.00    +0.124 A 
ATOM     33  C   UNL     1       0.147   2.569   1.891  0.00  0.00    +0.004 A 
ATOM     34  C   UNL     1       1.188   3.122   1.145  0.00  0.00    +0.038 A 
ENDBRANCH  23  26
ENDBRANCH  16  10
ENDBRANCH  14  16
TORSDOF 8
