REMARK  Name = 11941211
REMARK  10 active torsions:
REMARK  status: ('A' for Active; 'I' for Inactive)
REMARK    1  A    between atoms: O_3  and  C_10
REMARK    2  A    between atoms: O_3  and  C_15
REMARK    3  A    between atoms: N_4  and  C_9
REMARK    4  A    between atoms: N_4  and  C_13
REMARK    5  A    between atoms: C_13  and  C_16
REMARK    6  A    between atoms: C_15  and  C_19
REMARK    7  A    between atoms: C_17  and  C_18
REMARK    8  A    between atoms: C_18  and  C_24
REMARK    9  A    between atoms: C_18  and  C_25
REMARK   10  A    between atoms: C_18  and  C_26
REMARK                            x       y       z     vdW  Elec       q    Type
REMARK                         _______ _______ _______ _____ _____    ______ ____
ROOT
ATOM      4  N   UNL     1      -2.326  -1.113   0.627  0.00  0.00    -0.287 N 
ATOM      5  N   UNL     1      -1.101   0.874   0.395  0.00  0.00    -0.219 NA
ATOM      6  N   UNL     1      -1.913   0.166   2.550  0.00  0.00    -0.223 NA
ATOM     14  C   UNL     1      -1.756   0.022   1.215  0.00  0.00    +0.219 A 
ATOM     17  C   UNL     1      -0.565   1.958   0.995  0.00  0.00    +0.052 A 
ATOM     22  C   UNL     1      -1.352   1.271   3.084  0.00  0.00    +0.116 A 
ATOM     23  C   UNL     1      -0.660   2.211   2.348  0.00  0.00    +0.043 A 
ENDROOT
BRANCH   4   9
ATOM      1  O   UNL     1       0.494  -0.954  -0.672  0.00  0.00    -0.369 OA
ATOM      2  O   UNL     1       0.110  -3.832   0.318  0.00  0.00    -0.369 OA
ATOM      7  C   UNL     1      -0.397  -2.575   0.812  0.00  0.00    +0.172 C 
ATOM      8  C   UNL     1       0.704  -1.551   0.618  0.00  0.00    +0.180 C 
ATOM      9  C   UNL     1      -1.514  -2.083  -0.077  0.00  0.00    +0.133 C 
ATOM     10  C   UNL     1       1.951  -2.403   0.643  0.00  0.00    +0.175 C 
ATOM     11  C   UNL     1      -0.756  -1.412  -1.209  0.00  0.00    +0.185 C 
ATOM     12  C   UNL     1       1.488  -3.666  -0.046  0.00  0.00    +0.194 C 
BRANCH  10   3
ATOM      3  O   UNL     1       3.050  -1.812  -0.013  0.00  0.00    -0.367 OA
BRANCH   3  15
ATOM     15  C   UNL     1       3.483  -0.621   0.640  0.00  0.00    +0.195 C 
BRANCH  15  19
ATOM     19  C   UNL     1       4.650  -0.049  -0.110  0.00  0.00    -0.022 A 
ATOM     27  C   UNL     1       5.942  -0.436   0.228  0.00  0.00    +0.006 A 
ATOM     28  C   UNL     1       4.429   0.863  -1.136  0.00  0.00    +0.006 A 
ATOM     32  C   UNL     1       7.027   0.096  -0.469  0.00  0.00    +0.000 A 
ATOM     33  C   UNL     1       5.514   1.395  -1.833  0.00  0.00    +0.000 A 
ATOM     34  C   UNL     1       6.813   1.011  -1.500  0.00  0.00    +0.000 A 
ENDBRANCH  15  19
ENDBRANCH   3  15
ENDBRANCH  10   3
ENDBRANCH   4   9
BRANCH  17  18
ATOM     18  C   UNL     1       0.166   2.918   0.117  0.00  0.00    +0.005 C 
ATOM     24  C   UNL     1       0.214   2.537  -1.399  0.00  0.00    +0.017 C 
ATOM     25  C   UNL     1      -0.481   4.336   0.170  0.00  0.00    +0.017 C 
ATOM     26  C   UNL     1       1.656   3.063   0.556  0.00  0.00    +0.017 C 
ENDBRANCH  17  18
BRANCH   4  13
ATOM     13  C   UNL     1      -3.765  -1.351   0.726  0.00  0.00    +0.143 C 
BRANCH  13  16
ATOM     16  C   UNL     1      -4.504  -0.549  -0.309  0.00  0.00    -0.030 A 
ATOM     20  C   UNL     1      -4.938   0.734  -0.002  0.00  0.00    +0.005 A 
ATOM     21  C   UNL     1      -4.744  -1.101  -1.562  0.00  0.00    +0.005 A 
ATOM     29  C   UNL     1      -5.624   1.478  -0.963  0.00  0.00    +0.000 A 
ATOM     30  C   UNL     1      -5.429  -0.357  -2.522  0.00  0.00    +0.000 A 
ATOM     31  C   UNL     1      -5.869   0.932  -2.223  0.00  0.00    +0.000 A 
ENDBRANCH  13  16
ENDBRANCH   4  13
TORSDOF 7
