REMARK  Name = 11885161
REMARK  2 active torsions:
REMARK  status: ('A' for Active; 'I' for Inactive)
REMARK    1  A    between atoms: C_16  and  C_19
REMARK    2  A    between atoms: C_17  and  C_20
REMARK                            x       y       z     vdW  Elec       q    Type
REMARK                         _______ _______ _______ _____ _____    ______ ____
ROOT
ATOM      3  O   UNL     1      -1.581   2.121  -1.320  0.00  0.00    -0.267 OA
ATOM      4  O   UNL     1       2.747  -0.154  -2.589  0.00  0.00    -0.270 OA
ATOM      5  N   UNL     1       3.144   0.822  -0.525  0.00  0.00    -0.297 N 
ATOM      6  N   UNL     1       0.283   2.004   0.077  0.00  0.00    -0.311 N 
ATOM      7  C   UNL     1       2.478   3.217  -0.450  0.00  0.00    +0.027 C 
ATOM      8  C   UNL     1       2.298   1.833   1.579  0.00  0.00    +0.054 C 
ATOM      9  C   UNL     1       2.676   3.221   1.062  0.00  0.00    +0.018 C 
ATOM     10  C   UNL     1       3.372   2.147  -1.104  0.00  0.00    +0.113 C 
ATOM     11  C   UNL     1       0.991   2.992  -0.751  0.00  0.00    +0.130 C 
ATOM     12  C   UNL     1       3.225   0.775   0.946  0.00  0.00    +0.117 C 
ATOM     13  C   UNL     1       0.854   1.503   1.250  0.00  0.00    +0.027 A 
ATOM     14  C   UNL     1       0.144   0.698   2.056  0.00  0.00    +0.022 A 
ATOM     15  C   UNL     1      -1.030   1.674  -0.313  0.00  0.00    +0.259 A 
ATOM     16  C   UNL     1       2.798  -0.255  -1.362  0.00  0.00    +0.247 C 
ATOM     17  C   UNL     1      -1.783   0.732   0.586  0.00  0.00    +0.047 A 
ATOM     18  C   UNL     1      -1.193   0.305   1.713  0.00  0.00    +0.015 A 
ENDROOT
BRANCH  17  20
ATOM      1 CL   UNL     1      -7.284  -1.159  -0.819  0.00  0.00    -0.084 Cl
ATOM     20  C   UNL     1      -3.137   0.267   0.240  0.00  0.00    -0.013 A 
ATOM     23  C   UNL     1      -4.253   0.980   0.678  0.00  0.00    +0.010 A 
ATOM     24  C   UNL     1      -3.304  -0.887  -0.526  0.00  0.00    +0.010 A 
ATOM     27  C   UNL     1      -5.536   0.539   0.351  0.00  0.00    +0.020 A 
ATOM     28  C   UNL     1      -4.586  -1.328  -0.854  0.00  0.00    +0.020 A 
ATOM     30  C   UNL     1      -5.702  -0.615  -0.415  0.00  0.00    +0.041 A 
ENDBRANCH  17  20
BRANCH  16  19
ATOM      2  F   UNL     1       1.517  -5.093   1.106  0.00  0.00    -0.205 F 
ATOM     19  C   UNL     1       2.463  -1.517  -0.718  0.00  0.00    +0.037 A 
ATOM     21  C   UNL     1       1.145  -1.784  -0.359  0.00  0.00    +0.016 A 
ATOM     22  C   UNL     1       3.464  -2.451  -0.463  0.00  0.00    +0.016 A 
ATOM     25  C   UNL     1       0.824  -2.994   0.257  0.00  0.00    +0.039 A 
ATOM     26  C   UNL     1       3.144  -3.661   0.153  0.00  0.00    +0.039 A 
ATOM     29  C   UNL     1       1.824  -3.932   0.513  0.00  0.00    +0.123 A 
ENDBRANCH  16  19
TORSDOF 2
