REMARK  Name = 26743127
REMARK  9 active torsions:
REMARK  status: ('A' for Active; 'I' for Inactive)
REMARK    1  A    between atoms: S_1  and  C_20
REMARK    2  A    between atoms: S_1  and  C_24
REMARK    3  A    between atoms: N_6  and  C_19
REMARK    4  A    between atoms: C_8  and  C_14
REMARK    5  A    between atoms: C_9  and  C_13
REMARK    6  A    between atoms: C_13  and  C_15
REMARK    7  A    between atoms: C_14  and  C_16
REMARK    8  A    between atoms: C_18  and  C_20
REMARK    9  A    between atoms: C_19  and  C_21
REMARK                            x       y       z     vdW  Elec       q    Type
REMARK                         _______ _______ _______ _____ _____    ______ ____
ROOT
ATOM      5  N   UNL     1      -0.363  -3.308  -1.674  0.00  0.00    -0.316 NA
ATOM      8  C   UNL     1      -2.658  -1.870  -0.560  0.00  0.00    +0.004 C 
ATOM      9  C   UNL     1      -1.204  -1.489  -0.189  0.00  0.00    +0.012 C 
ATOM     10  C   UNL     1      -2.747  -3.338  -1.001  0.00  0.00    +0.019 C 
ATOM     11  C   UNL     1      -0.262  -1.885  -1.341  0.00  0.00    +0.085 C 
ATOM     12  C   UNL     1      -1.721  -3.659  -2.087  0.00  0.00    +0.081 C 
ATOM     31  H   UNL     1      -0.093  -3.874  -0.872  0.00  0.00    +0.122 HD
ENDROOT
BRANCH   9  13
ATOM     13  C   UNL     1      -0.724  -2.091   1.138  0.00  0.00    +0.064 C 
BRANCH  13  15
ATOM      4  O   UNL     1       1.505   0.167   2.838  0.00  0.00    -0.359 OA
ATOM      7  N   UNL     1       0.236  -0.299   2.517  0.00  0.00    -0.083 NA
ATOM     15  C   UNL     1       0.444  -1.330   1.693  0.00  0.00    +0.084 A 
ATOM     17  C   UNL     1       1.812  -1.560   1.460  0.00  0.00    +0.071 A 
ATOM     18  C   UNL     1       2.435  -0.592   2.203  0.00  0.00    +0.148 A 
BRANCH  18  20
ATOM     20  C   UNL     1       3.840  -0.235   2.432  0.00  0.00    +0.151 C 
BRANCH  20   1
ATOM      1  S   UNL     1       4.369   1.247   1.501  0.00  0.00    -0.117 S 
BRANCH   1  24
ATOM     24  C   UNL     1       3.962   0.763  -0.170  0.00  0.00    +0.008 A 
ATOM     26  C   UNL     1       4.553  -0.369  -0.733  0.00  0.00    +0.015 A 
ATOM     27  C   UNL     1       3.053   1.517  -0.913  0.00  0.00    +0.015 A 
ATOM     28  C   UNL     1       4.235  -0.746  -2.038  0.00  0.00    +0.001 A 
ATOM     29  C   UNL     1       2.735   1.140  -2.217  0.00  0.00    +0.001 A 
ATOM     30  C   UNL     1       3.327   0.008  -2.780  0.00  0.00    +0.000 A 
ENDBRANCH   1  24
ENDBRANCH  20   1
ENDBRANCH  18  20
ENDBRANCH  13  15
ENDBRANCH   9  13
BRANCH   8  14
ATOM     14  C   UNL     1      -3.665  -1.573   0.550  0.00  0.00    +0.099 C 
BRANCH  14  16
ATOM      3  O   UNL     1      -3.420   0.275   2.092  0.00  0.00    -0.276 OA
ATOM      6  N   UNL     1      -3.963   0.705  -0.126  0.00  0.00    -0.311 N 
ATOM     16  C   UNL     1      -3.661  -0.114   0.952  0.00  0.00    +0.214 C 
ATOM     32  H   UNL     1      -4.194   0.293  -1.024  0.00  0.00    +0.149 HD
BRANCH   6  19
ATOM     19  C   UNL     1      -4.031   2.145  -0.029  0.00  0.00    +0.146 C 
BRANCH  19  21
ATOM      2  S   UNL     1      -2.011   2.542  -1.894  0.00  0.00    -0.100 S 
ATOM     21  C   UNL     1      -2.716   2.792  -0.353  0.00  0.00    +0.007 A 
ATOM     22  C   UNL     1      -1.941   3.606   0.444  0.00  0.00    +0.013 A 
ATOM     23  C   UNL     1      -0.753   4.029  -0.219  0.00  0.00    +0.008 A 
ATOM     25  C   UNL     1      -0.665   3.523  -1.497  0.00  0.00    +0.045 A 
ENDBRANCH  19  21
ENDBRANCH   6  19
ENDBRANCH  14  16
ENDBRANCH   8  14
TORSDOF 9
