REMARK  Name = 56775505
REMARK  9 active torsions:
REMARK  status: ('A' for Active; 'I' for Inactive)
REMARK    1  A    between atoms: O_4  and  C_16
REMARK    2  A    between atoms: N_5  and  C_7
REMARK    3  A    between atoms: N_5  and  C_12
REMARK    4  A    between atoms: C_7  and  C_10
REMARK    5  A    between atoms: C_10  and  C_11
REMARK    6  A    between atoms: C_12  and  C_15
REMARK    7  A    between atoms: C_14  and  C_16
REMARK    8  A    between atoms: C_16  and  C_17
REMARK    9  A    between atoms: C_16  and  C_18
REMARK                            x       y       z     vdW  Elec       q    Type
REMARK                         _______ _______ _______ _____ _____    ______ ____
ROOT
ATOM      2  O   UNL     1      -0.388  -3.955   1.060  0.00  0.00    -0.376 OA
ATOM      7  C   UNL     1       0.033  -2.183  -0.053  0.00  0.00    +0.072 C 
ATOM      8  C   UNL     1       0.557  -2.870   1.203  0.00  0.00    +0.184 C 
ATOM      9  C   UNL     1      -0.867  -3.407  -0.189  0.00  0.00    +0.184 C 
ENDROOT
BRANCH   7   5
ATOM      5  N   UNL     1      -0.788  -1.036   0.344  0.00  0.00    -0.302 NA
ATOM     24  H   UNL     1      -0.281  -0.280   0.803  0.00  0.00    +0.123 HD
BRANCH   5  12
ATOM     12  C   UNL     1      -1.490  -0.519  -0.832  0.00  0.00    +0.117 C 
BRANCH  12  15
ATOM      1 CL   UNL     1      -6.491   2.461   0.627  0.00  0.00    -0.084 Cl
ATOM     15  C   UNL     1      -2.732   0.222  -0.470  0.00  0.00    -0.033 A 
ATOM     19  C   UNL     1      -3.947  -0.458  -0.374  0.00  0.00    +0.006 A 
ATOM     20  C   UNL     1      -2.681   1.595  -0.227  0.00  0.00    +0.006 A 
ATOM     21  C   UNL     1      -5.109   0.235  -0.036  0.00  0.00    +0.020 A 
ATOM     22  C   UNL     1      -3.843   2.288   0.111  0.00  0.00    +0.020 A 
ATOM     23  C   UNL     1      -5.057   1.608   0.207  0.00  0.00    +0.041 A 
ENDBRANCH  12  15
ENDBRANCH   5  12
ENDBRANCH   7   5
BRANCH   7  10
ATOM     10  C   UNL     1       0.991  -1.861  -1.159  0.00  0.00    +0.085 C 
BRANCH  10  11
ATOM      3  O   UNL     1       4.010  -0.399   0.185  0.00  0.00    -0.356 OA
ATOM      6  N   UNL     1       3.221  -1.487  -0.167  0.00  0.00    -0.083 NA
ATOM     11  C   UNL     1       2.100  -0.956  -0.663  0.00  0.00    +0.086 A 
ATOM     13  C   UNL     1       2.124   0.450  -0.649  0.00  0.00    +0.074 A 
ATOM     14  C   UNL     1       3.346   0.749  -0.107  0.00  0.00    +0.168 A 
BRANCH  14  16
ATOM     16  C   UNL     1       4.040   2.004   0.203  0.00  0.00    +0.120 C 
ATOM     17  C   UNL     1       4.386   2.150   1.714  0.00  0.00    +0.049 C 
ATOM     18  C   UNL     1       5.349   2.194  -0.619  0.00  0.00    +0.049 C 
BRANCH  16   4
ATOM      4  O   UNL     1       3.238   3.177  -0.107  0.00  0.00    -0.381 OA
ATOM     25  H   UNL     1       3.755   3.969   0.121  0.00  0.00    +0.211 HD
ENDBRANCH  16   4
ENDBRANCH  14  16
ENDBRANCH  10  11
ENDBRANCH   7  10
TORSDOF 7
