REMARK  Name = 45783633
REMARK  10 active torsions:
REMARK  status: ('A' for Active; 'I' for Inactive)
REMARK    1  A    between atoms: O_2  and  C_25
REMARK    2  A    between atoms: O_2  and  C_26
REMARK    3  A    between atoms: N_4  and  C_13
REMARK    4  A    between atoms: N_8  and  C_23
REMARK    5  A    between atoms: C_9  and  C_15
REMARK    6  A    between atoms: C_13  and  C_14
REMARK    7  A    between atoms: C_14  and  C_16
REMARK    8  A    between atoms: C_14  and  C_17
REMARK    9  A    between atoms: C_18  and  C_19
REMARK   10  A    between atoms: C_24  and  C_25
REMARK                            x       y       z     vdW  Elec       q    Type
REMARK                         _______ _______ _______ _____ _____    ______ ____
ROOT
ATOM      1  O   UNL     1      -2.836  -1.224  -1.644  0.00  0.00    -0.336 OA
ATOM      5  N   UNL     1      -1.681   0.386  -0.599  0.00  0.00    -0.190 NA
ATOM      6  N   UNL     1      -1.493  -1.620  -1.683  0.00  0.00    -0.056 NA
ATOM     15  C   UNL     1      -2.858  -0.034  -0.989  0.00  0.00    +0.245 A 
ATOM     18  C   UNL     1      -0.875  -0.620  -1.047  0.00  0.00    +0.204 A 
ENDROOT
BRANCH  18  19
ATOM      7  N   UNL     1       2.693  -1.662  -1.147  0.00  0.00    -0.239 NA
ATOM     19  C   UNL     1       0.544  -0.595  -0.844  0.00  0.00    +0.041 A 
ATOM     20  C   UNL     1       1.155   0.462  -0.179  0.00  0.00    +0.016 A 
ATOM     21  C   UNL     1       1.351  -1.623  -1.305  0.00  0.00    +0.124 A 
ATOM     22  C   UNL     1       2.533   0.459   0.003  0.00  0.00    +0.044 A 
ATOM     23  C   UNL     1       3.251  -0.617  -0.496  0.00  0.00    +0.125 A 
BRANCH  23   8
ATOM      3  O   UNL     1       5.028   1.401   0.855  0.00  0.00    -0.273 OA
ATOM      8  N   UNL     1       4.638  -0.610  -0.307  0.00  0.00    -0.268 N 
ATOM     24  C   UNL     1       5.415   0.360   0.333  0.00  0.00    +0.244 C 
ATOM     27  H   UNL     1       5.118  -1.421  -0.691  0.00  0.00    +0.156 HD
BRANCH  24  25
ATOM     25  C   UNL     1       6.886   0.007   0.324  0.00  0.00    +0.255 C 
BRANCH  25   2
ATOM      2  O   UNL     1       7.605   1.031   0.980  0.00  0.00    -0.374 OA
ATOM     26  C   UNL     1       9.003   0.763   1.010  0.00  0.00    +0.194 C 
ENDBRANCH  25   2
ENDBRANCH  24  25
ENDBRANCH  23   8
ENDBRANCH  18  19
BRANCH  15   9
ATOM      4  N   UNL     1      -4.543   0.868   0.606  0.00  0.00    -0.291 NA
ATOM      9  C   UNL     1      -4.216   0.614  -0.811  0.00  0.00    +0.146 C 
ATOM     10  C   UNL     1      -4.309   1.994  -1.487  0.00  0.00    +0.030 C 
ATOM     11  C   UNL     1      -5.421   2.038   0.625  0.00  0.00    +0.085 C 
ATOM     12  C   UNL     1      -4.752   2.947  -0.386  0.00  0.00    +0.017 C 
BRANCH   4  13
ATOM     13  C   UNL     1      -5.145  -0.281   1.271  0.00  0.00    +0.088 C 
BRANCH  13  14
ATOM     14  C   UNL     1      -4.096  -1.295   1.758  0.00  0.00    -0.003 C 
ATOM     16  C   UNL     1      -3.148  -0.621   2.753  0.00  0.00    +0.008 C 
ATOM     17  C   UNL     1      -4.729  -2.530   2.405  0.00  0.00    +0.008 C 
ENDBRANCH  13  14
ENDBRANCH   4  13
ENDBRANCH  15   9
TORSDOF 7
