REMARK  Name = 51137305
REMARK  6 active torsions:
REMARK  status: ('A' for Active; 'I' for Inactive)
REMARK    1  A    between atoms: O_2  and  C_14
REMARK    2  A    between atoms: O_2  and  C_23
REMARK    3  A    between atoms: N_3  and  C_11
REMARK    4  A    between atoms: C_7  and  C_12
REMARK    5  A    between atoms: C_11  and  C_13
REMARK    6  A    between atoms: C_16  and  C_19
REMARK                            x       y       z     vdW  Elec       q    Type
REMARK                         _______ _______ _______ _____ _____    ______ ____
ROOT
ATOM      3  N   UNL     1      -1.732  -0.352   0.086  0.00  0.00    -0.297 NA
ATOM      7  C   UNL     1       0.187  -1.581   0.637  0.00  0.00    +0.092 C 
ATOM      8  C   UNL     1      -0.269  -0.763   1.858  0.00  0.00    +0.029 C 
ATOM      9  C   UNL     1      -0.560  -0.957  -0.549  0.00  0.00    +0.097 C 
ATOM     10  C   UNL     1      -1.218   0.288   1.297  0.00  0.00    +0.085 C 
ENDROOT
BRANCH   7  12
ATOM      1  O   UNL     1       2.320  -0.444   0.245  0.00  0.00    -0.420 OA
ATOM      4  N   UNL     1       2.487  -2.670   0.400  0.00  0.00    -0.112 NA
ATOM      5  N   UNL     1       3.754  -2.160   0.180  0.00  0.00    -0.107 NA
ATOM     12  C   UNL     1       1.683  -1.633   0.430  0.00  0.00    +0.222 A 
ATOM     16  C   UNL     1       3.608  -0.859   0.096  0.00  0.00    +0.248 A 
BRANCH  16  19
ATOM      6  N   UNL     1       6.469   2.188  -0.555  0.00  0.00    -0.263 NA
ATOM     19  C   UNL     1       4.578   0.174  -0.124  0.00  0.00    +0.041 A 
ATOM     21  C   UNL     1       5.920  -0.151  -0.287  0.00  0.00    +0.033 A 
ATOM     22  C   UNL     1       4.180   1.506  -0.176  0.00  0.00    +0.033 A 
ATOM     24  C   UNL     1       6.818   0.883  -0.498  0.00  0.00    +0.111 A 
ATOM     25  C   UNL     1       5.156   2.466  -0.392  0.00  0.00    +0.111 A 
ENDBRANCH  16  19
ENDBRANCH   7  12
BRANCH   3  11
ATOM     11  C   UNL     1      -2.415   0.589  -0.790  0.00  0.00    +0.123 C 
BRANCH  11  13
ATOM     13  C   UNL     1      -3.820   0.868  -0.327  0.00  0.00    +0.008 A 
ATOM     14  C   UNL     1      -4.838  -0.062  -0.537  0.00  0.00    +0.124 A 
ATOM     15  C   UNL     1      -4.099   2.073   0.319  0.00  0.00    +0.008 A 
ATOM     17  C   UNL     1      -6.135   0.212  -0.102  0.00  0.00    +0.046 A 
ATOM     18  C   UNL     1      -5.395   2.347   0.754  0.00  0.00    +0.001 A 
ATOM     20  C   UNL     1      -6.413   1.417   0.543  0.00  0.00    +0.004 A 
BRANCH  14   2
ATOM      2  O   UNL     1      -4.584  -1.244  -1.167  0.00  0.00    -0.495 OA
ATOM     23  C   UNL     1      -5.683  -2.135  -1.340  0.00  0.00    +0.277 C 
ENDBRANCH  14   2
ENDBRANCH  11  13
ENDBRANCH   3  11
TORSDOF 5
