REMARK  Name = 75536882
REMARK  4 active torsions:
REMARK  status: ('A' for Active; 'I' for Inactive)
REMARK    1  A    between atoms: O_2  and  C_6
REMARK    2  A    between atoms: O_2  and  C_13
REMARK    3  A    between atoms: C_11  and  C_12
REMARK    4  A    between atoms: C_18  and  C_19
REMARK                            x       y       z     vdW  Elec       q    Type
REMARK                         _______ _______ _______ _____ _____    ______ ____
ROOT
ATOM      1  O   UNL     1       4.257   0.221   0.292  0.00  0.00    -0.376 OA
ATOM      3  O   UNL     1       0.446  -2.843  -0.812  0.00  0.00    -0.270 OA
ATOM      4  N   UNL     1       1.515  -1.095   0.327  0.00  0.00    -0.293 N 
ATOM      6  C   UNL     1       2.011   1.309   0.055  0.00  0.00    +0.161 C 
ATOM      7  C   UNL     1       1.454   0.225   0.975  0.00  0.00    +0.142 C 
ATOM      8  C   UNL     1       2.837  -1.722   0.251  0.00  0.00    +0.136 C 
ATOM      9  C   UNL     1       3.538   1.432   0.097  0.00  0.00    +0.193 C 
ATOM     10  C   UNL     1       3.843  -0.872  -0.519  0.00  0.00    +0.179 C 
ATOM     11  C   UNL     1       0.416  -1.755  -0.239  0.00  0.00    +0.247 C 
ENDROOT
BRANCH  11  12
ATOM     12  C   UNL     1      -0.899  -1.108  -0.154  0.00  0.00    +0.037 A 
ATOM     14  C   UNL     1      -1.317  -0.243  -1.166  0.00  0.00    +0.014 A 
ATOM     15  C   UNL     1      -1.730  -1.360   0.937  0.00  0.00    +0.014 A 
ATOM     16  C   UNL     1      -2.567   0.370  -1.086  0.00  0.00    +0.019 A 
ATOM     17  C   UNL     1      -2.981  -0.747   1.016  0.00  0.00    +0.019 A 
ATOM     18  C   UNL     1      -3.399   0.118   0.005  0.00  0.00    +0.052 A 
BRANCH  18  19
ATOM      5  N   UNL     1      -5.720   1.258   0.153  0.00  0.00    -0.191 NA
ATOM     19  C   UNL     1      -4.680   0.747   0.087  0.00  0.00    +0.099 C 
ENDBRANCH  18  19
ENDBRANCH  11  12
BRANCH   6   2
ATOM      2  O   UNL     1       1.437   2.563   0.419  0.00  0.00    -0.376 OA
ATOM     13  C   UNL     1       1.539   3.503  -0.638  0.00  0.00    +0.194 C 
ENDBRANCH   6   2
TORSDOF 3
