REMARK  Name = 45784085
REMARK  3 active torsions:
REMARK  status: ('A' for Active; 'I' for Inactive)
REMARK    1  A    between atoms: N_3  and  C_9
REMARK    2  A    between atoms: C_5  and  C_10
REMARK    3  A    between atoms: C_9  and  C_11
REMARK                            x       y       z     vdW  Elec       q    Type
REMARK                         _______ _______ _______ _____ _____    ______ ____
ROOT
ATOM      3  N   UNL     1      -2.027  -0.258  -0.127  0.00  0.00    -0.297 NA
ATOM      5  C   UNL     1       0.156  -0.888   0.453  0.00  0.00    +0.090 C 
ATOM      6  C   UNL     1      -0.534  -0.245   1.669  0.00  0.00    +0.029 C 
ATOM      7  C   UNL     1      -0.721  -0.495  -0.744  0.00  0.00    +0.097 C 
ATOM      8  C   UNL     1      -1.736   0.493   1.095  0.00  0.00    +0.085 C 
ENDROOT
BRANCH   5  10
ATOM      1 CL   UNL     1       7.202   1.770  -0.524  0.00  0.00    -0.083 Cl
ATOM      2  O   UNL     1       2.500  -1.534   0.295  0.00  0.00    -0.439 OA
ATOM      4  N   UNL     1       2.121   0.691   0.090  0.00  0.00    -0.213 NA
ATOM     10  C   UNL     1       1.607  -0.506   0.271  0.00  0.00    +0.201 A 
ATOM     12  C   UNL     1       3.468   0.444  -0.014  0.00  0.00    +0.111 A 
ATOM     13  C   UNL     1       3.704  -0.917   0.111  0.00  0.00    +0.155 A 
ATOM     16  C   UNL     1       4.557   1.305  -0.214  0.00  0.00    +0.051 A 
ATOM     17  C   UNL     1       4.959  -1.512   0.053  0.00  0.00    +0.050 A 
ATOM     20  C   UNL     1       5.840   0.741  -0.279  0.00  0.00    +0.043 A 
ATOM     21  C   UNL     1       6.034  -0.639  -0.147  0.00  0.00    +0.024 A 
ENDBRANCH   5  10
BRANCH   3   9
ATOM      9  C   UNL     1      -2.938   0.453  -1.011  0.00  0.00    +0.119 C 
BRANCH   9  11
ATOM     11  C   UNL     1      -4.371   0.313  -0.571  0.00  0.00    -0.033 A 
ATOM     14  C   UNL     1      -5.147  -0.743  -1.048  0.00  0.00    +0.005 A 
ATOM     15  C   UNL     1      -4.922   1.239   0.315  0.00  0.00    +0.005 A 
ATOM     18  C   UNL     1      -6.475  -0.873  -0.640  0.00  0.00    +0.000 A 
ATOM     19  C   UNL     1      -6.250   1.110   0.723  0.00  0.00    +0.000 A 
ATOM     22  C   UNL     1      -7.026   0.054   0.245  0.00  0.00    +0.000 A 
ENDBRANCH   9  11
ENDBRANCH   3   9
TORSDOF 3
