REMARK  Name = 45784145
REMARK  10 active torsions:
REMARK  status: ('A' for Active; 'I' for Inactive)
REMARK    1  A    between atoms: N_3  and  C_15
REMARK    2  A    between atoms: C_8  and  C_12
REMARK    3  A    between atoms: C_9  and  C_15
REMARK    4  A    between atoms: C_11  and  C_16
REMARK    5  A    between atoms: C_12  and  C_17
REMARK    6  A    between atoms: C_12  and  C_18
REMARK    7  A    between atoms: C_13  and  C_19
REMARK    8  A    between atoms: C_16  and  C_20
REMARK    9  A    between atoms: C_21  and  C_23
REMARK   10  A    between atoms: C_22  and  C_24
REMARK                            x       y       z     vdW  Elec       q    Type
REMARK                         _______ _______ _______ _____ _____    ______ ____
ROOT
ATOM      8  C   UNL     1       0.889   1.755  -1.215  0.00  0.00    +0.000 C 
ATOM      9  C   UNL     1       2.347   2.276  -1.159  0.00  0.00    +0.032 C 
ATOM     10  C   UNL     1      -0.027   2.630  -0.346  0.00  0.00    +0.012 C 
ATOM     11  C   UNL     1       0.424   2.662   1.127  0.00  0.00    +0.024 C 
ATOM     13  C   UNL     1       1.914   2.907   1.254  0.00  0.00    -0.073 C 
ATOM     14  C   UNL     1       2.756   2.742   0.219  0.00  0.00    -0.022 C 
ATOM     19  C   UNL     1       2.409   3.390   2.589  0.00  0.00    +0.039 C 
ENDROOT
BRANCH   8  12
ATOM     12  C   UNL     1       0.355   1.711  -2.650  0.00  0.00    -0.013 C 
ATOM     17  C   UNL     1      -0.770   0.688  -2.769  0.00  0.00    +0.007 C 
ATOM     18  C   UNL     1      -0.123   3.093  -3.082  0.00  0.00    +0.007 C 
ENDBRANCH   8  12
BRANCH   9  15
ATOM     15  C   UNL     1       3.334   1.211  -1.652  0.00  0.00    +0.112 C 
BRANCH  15   3
ATOM      2  O   UNL     1       2.688  -1.506  -2.319  0.00  0.00    -0.269 OA
ATOM      3  N   UNL     1       3.352   0.088  -0.768  0.00  0.00    -0.310 N 
ATOM     21  C   UNL     1       3.022  -1.204  -1.176  0.00  0.00    +0.262 C 
ATOM     33  H   UNL     1       3.655   0.231   0.191  0.00  0.00    +0.149 HD
BRANCH  21  23
ATOM      6  N   UNL     1       3.420  -1.843   1.107  0.00  0.00    -0.250 NA
ATOM     23  C   UNL     1       3.065  -2.258  -0.130  0.00  0.00    +0.125 A 
ATOM     25  C   UNL     1       2.752  -3.570  -0.448  0.00  0.00    +0.033 A 
ATOM     28  C   UNL     1       2.807  -4.517   0.568  0.00  0.00    +0.004 A 
ATOM     29  C   UNL     1       3.463  -2.792   2.069  0.00  0.00    +0.111 A 
ATOM     30  C   UNL     1       3.169  -4.129   1.853  0.00  0.00    +0.020 A 
ENDBRANCH  21  23
ENDBRANCH  15   3
ENDBRANCH   9  15
BRANCH  11  16
ATOM     16  C   UNL     1       0.013   1.379   1.858  0.00  0.00    +0.105 C 
BRANCH  16  20
ATOM      1  O   UNL     1      -1.887   0.193   0.890  0.00  0.00    -0.420 OA
ATOM      4  N   UNL     1      -2.447   1.730   2.417  0.00  0.00    -0.112 NA
ATOM      5  N   UNL     1      -3.610   1.141   1.957  0.00  0.00    -0.107 NA
ATOM     20  C   UNL     1      -1.467   1.145   1.768  0.00  0.00    +0.218 A 
ATOM     22  C   UNL     1      -3.236   0.251   1.068  0.00  0.00    +0.248 A 
BRANCH  22  24
ATOM      7  N   UNL     1      -5.528  -2.412  -1.286  0.00  0.00    -0.263 NA
ATOM     24  C   UNL     1      -4.013  -0.652   0.270  0.00  0.00    +0.041 A 
ATOM     26  C   UNL     1      -5.399  -0.667   0.382  0.00  0.00    +0.033 A 
ATOM     27  C   UNL     1      -3.384  -1.517  -0.619  0.00  0.00    +0.033 A 
ATOM     31  C   UNL     1      -6.104  -1.557  -0.411  0.00  0.00    +0.111 A 
ATOM     32  C   UNL     1      -4.180  -2.369  -1.367  0.00  0.00    +0.111 A 
ENDBRANCH  22  24
ENDBRANCH  16  20
ENDBRANCH  11  16
TORSDOF 7
