REMARK  Name = 26742412
REMARK  6 active torsions:
REMARK  status: ('A' for Active; 'I' for Inactive)
REMARK    1  A    between atoms: N_5  and  C_15
REMARK    2  A    between atoms: C_9  and  C_16
REMARK    3  A    between atoms: C_10  and  C_15
REMARK    4  A    between atoms: C_18  and  C_21
REMARK    5  A    between atoms: C_19  and  C_22
REMARK    6  A    between atoms: C_20  and  C_23
REMARK                            x       y       z     vdW  Elec       q    Type
REMARK                         _______ _______ _______ _____ _____    ______ ____
ROOT
ATOM      4  N   UNL     1       0.801   2.735   0.734  0.00  0.00    -0.297 NA
ATOM      8  C   UNL     1       0.163   1.946  -1.665  0.00  0.00    +0.002 C 
ATOM      9  C   UNL     1      -1.076   1.896  -0.728  0.00  0.00    +0.055 C 
ATOM     10  C   UNL     1       1.768   1.708   0.263  0.00  0.00    +0.074 C 
ATOM     11  C   UNL     1       1.291   1.080  -1.065  0.00  0.00    +0.024 C 
ATOM     12  C   UNL     1       0.663   3.406  -1.664  0.00  0.00    +0.019 C 
ATOM     13  C   UNL     1      -0.576   2.183   0.717  0.00  0.00    +0.094 C 
ATOM     14  C   UNL     1       0.854   3.876  -0.211  0.00  0.00    +0.085 C 
ENDROOT
BRANCH   9  16
ATOM      6  N   UNL     1      -1.624  -0.296  -1.664  0.00  0.00    -0.237 NA
ATOM      7  N   UNL     1      -3.560  -1.546  -0.958  0.00  0.00    -0.229 NA
ATOM     16  C   UNL     1      -1.979   0.672  -0.794  0.00  0.00    +0.050 A 
ATOM     17  C   UNL     1      -3.094   0.606   0.015  0.00  0.00    +0.055 A 
ATOM     18  C   UNL     1      -3.856  -0.538  -0.111  0.00  0.00    +0.110 A 
ATOM     19  C   UNL     1      -2.447  -1.362  -1.694  0.00  0.00    +0.127 A 
ATOM     22  C   UNL     1      -2.088  -2.455  -2.642  0.00  0.00    +0.088 C 
BRANCH  18  21
ATOM      3  O   UNL     1      -5.701  -1.908   0.449  0.00  0.00    -0.461 OA
ATOM     21  C   UNL     1      -5.046  -0.738   0.672  0.00  0.00    +0.153 A 
ATOM     24  C   UNL     1      -5.698   0.006   1.628  0.00  0.00    +0.051 A 
ATOM     26  C   UNL     1      -6.826  -0.755   2.017  0.00  0.00    +0.042 A 
ATOM     27  C   UNL     1      -6.783  -1.911   1.271  0.00  0.00    +0.196 A 
ENDBRANCH  18  21
ENDBRANCH   9  16
BRANCH  10  15
ATOM     15  C   UNL     1       2.054   0.645   1.326  0.00  0.00    +0.123 C 
BRANCH  15   5
ATOM      2  O   UNL     1       4.883   0.923   1.723  0.00  0.00    -0.270 OA
ATOM      5  N   UNL     1       3.071  -0.258   0.884  0.00  0.00    -0.309 N 
ATOM     20  C   UNL     1       4.428  -0.046   1.121  0.00  0.00    +0.251 C 
ATOM     30  H   UNL     1       2.785  -1.085   0.367  0.00  0.00    +0.149 HD
BRANCH  20  23
ATOM      1  S   UNL     1       4.723  -2.399  -0.290  0.00  0.00    -0.092 S 
ATOM     23  C   UNL     1       5.360  -1.064   0.573  0.00  0.00    +0.074 A 
ATOM     25  C   UNL     1       6.735  -1.109   0.654  0.00  0.00    +0.021 A 
ATOM     28  C   UNL     1       7.272  -2.255  -0.001  0.00  0.00    +0.008 A 
ATOM     29  C   UNL     1       6.288  -3.041  -0.558  0.00  0.00    +0.046 A 
ENDBRANCH  20  23
ENDBRANCH  15   5
ENDBRANCH  10  15
TORSDOF 5
