REMARK  Name = 75536674
REMARK  8 active torsions:
REMARK  status: ('A' for Active; 'I' for Inactive)
REMARK    1  A    between atoms: S_1  and  N_7
REMARK    2  A    between atoms: S_1  and  C_15
REMARK    3  A    between atoms: O_3  and  C_9
REMARK    4  A    between atoms: N_6  and  C_8
REMARK    5  A    between atoms: N_6  and  C_13
REMARK    6  A    between atoms: N_6  and  C_14
REMARK    7  A    between atoms: N_7  and  C_12
REMARK    8  A    between atoms: C_10  and  C_12
REMARK                            x       y       z     vdW  Elec       q    Type
REMARK                         _______ _______ _______ _____ _____    ______ ____
ROOT
ATOM      7  N   UNL     1       0.846   1.418  -0.301  0.00  0.00    -0.187 NA
ATOM     22  H   UNL     1       0.691   1.680  -1.283  0.00  0.00    +0.148 HD
ENDROOT
BRANCH   7   1
ATOM      1  S   UNL     1       2.398   1.639   0.360  0.00  0.00    +0.058 S 
ATOM      4  O   UNL     1       2.287   1.815   1.796  0.00  0.00    -0.153 OA
ATOM      5  O   UNL     1       3.118   2.611  -0.440  0.00  0.00    -0.153 OA
BRANCH   1  15
ATOM     15  C   UNL     1       3.147   0.066   0.061  0.00  0.00    +0.105 A 
ATOM     16  C   UNL     1       3.842  -0.160  -1.127  0.00  0.00    +0.028 A 
ATOM     17  C   UNL     1       3.039  -0.950   1.010  0.00  0.00    +0.028 A 
ATOM     18  C   UNL     1       4.429  -1.403  -1.365  0.00  0.00    +0.002 A 
ATOM     19  C   UNL     1       3.626  -2.192   0.772  0.00  0.00    +0.002 A 
ATOM     20  C   UNL     1       4.322  -2.419  -0.416  0.00  0.00    +0.000 A 
ENDBRANCH   1  15
ENDBRANCH   7   1
BRANCH   7  12
ATOM     12  C   UNL     1      -0.040   0.363   0.228  0.00  0.00    +0.140 C 
BRANCH  12  10
ATOM      2  O   UNL     1      -1.809   0.989  -1.297  0.00  0.00    -0.371 OA
ATOM      8  C   UNL     1      -3.720   0.123  -0.183  0.00  0.00    +0.113 C 
ATOM      9  C   UNL     1      -2.479  -0.234   0.614  0.00  0.00    +0.164 C 
ATOM     10  C   UNL     1      -1.488   0.798   0.091  0.00  0.00    +0.164 C 
ATOM     11  C   UNL     1      -3.121   0.452  -1.541  0.00  0.00    +0.181 C 
BRANCH   8   6
ATOM      6  N   UNL     1      -4.702  -0.947  -0.243  0.00  0.00    -0.301 NA
ATOM     13  C   UNL     1      -5.205  -1.267   1.097  0.00  0.00    +0.105 C 
ATOM     14  C   UNL     1      -5.815  -0.584  -1.125  0.00  0.00    +0.105 C 
ENDBRANCH   8   6
BRANCH   9   3
ATOM      3  O   UNL     1      -2.674  -0.117   2.010  0.00  0.00    -0.388 OA
ATOM     21  H   UNL     1      -2.980   0.785   2.201  0.00  0.00    +0.210 HD
ENDBRANCH   9   3
ENDBRANCH  12  10
ENDBRANCH   7  12
TORSDOF 6
