REMARK  Name = 71693260
REMARK  5 active torsions:
REMARK  status: ('A' for Active; 'I' for Inactive)
REMARK    1  A    between atoms: O_3  and  C_17
REMARK    2  A    between atoms: N_7  and  C_19
REMARK    3  A    between atoms: C_8  and  C_16
REMARK    4  A    between atoms: C_9  and  C_15
REMARK    5  A    between atoms: CA_10  and  C_17
REMARK                            x       y       z     vdW  Elec       q    Type
REMARK                         _______ _______ _______ _____ _____    ______ ____
ROOT
ATOM     15  C   UNL     1      -1.727   0.285   0.069  0.00  0.00    -0.017 A 
ATOM     19  C   UNL     1       0.996   0.568  -0.471  0.00  0.00    +0.033 A 
ATOM     21  C   UNL     1      -0.785  -0.037   1.046  0.00  0.00    +0.008 A 
ATOM     22  C   UNL     1      -1.307   0.748  -1.179  0.00  0.00    +0.008 A 
ATOM     23  C   UNL     1       0.576   0.104   0.776  0.00  0.00    +0.023 A 
ATOM     24  C   UNL     1       0.054   0.889  -1.449  0.00  0.00    +0.023 A 
ENDROOT
BRANCH  15   9
ATOM      1  O   UNL     1      -3.798   1.433   0.289  0.00  0.00    -0.361 OA
ATOM      5  O   UNL     1      -7.254   0.480   0.175  0.00  0.00    -0.273 OA
ATOM      6  N   UNL     1      -5.382  -0.713  -0.409  0.00  0.00    -0.306 N 
ATOM      9  C   UNL     1      -3.203   0.132   0.362  0.00  0.00    +0.171 C 
ATOM     10  CA  UNL     1      -3.941  -0.775  -0.635  0.00  0.00    +0.131 C 
ATOM     18  C   UNL     1      -5.128   1.422   0.762  0.00  0.00    +0.256 C 
ATOM     20  C   UNL     1      -6.029   0.376   0.133  0.00  0.00    +0.239 C 
ATOM     25  H   UNL     1      -5.960  -1.430  -0.836  0.00  0.00    +0.149 HD
BRANCH  10  17
ATOM     17  C   UNL     1      -3.471  -2.226  -0.567  0.00  0.00    +0.181 C 
BRANCH  17   3
ATOM      3  O   UNL     1      -3.698  -2.711   0.744  0.00  0.00    -0.393 OA
ATOM     27  H   UNL     1      -3.393  -3.634   0.765  0.00  0.00    +0.209 HD
ENDBRANCH  17   3
ENDBRANCH  10  17
ENDBRANCH  15   9
BRANCH  19   7
ATOM      4  O   UNL     1       3.399   0.017   1.257  0.00  0.00    -0.275 OA
ATOM      7  N   UNL     1       2.376   0.712  -0.745  0.00  0.00    -0.285 N 
ATOM     16  C   UNL     1       3.440   0.439   0.105  0.00  0.00    +0.220 C 
ATOM     26  H   UNL     1       2.591   1.049  -1.681  0.00  0.00    +0.155 HD
BRANCH  16   8
ATOM      2  O   UNL     1       6.878  -0.997   0.369  0.00  0.00    -0.380 OA
ATOM      8  C   UNL     1       4.754   0.723  -0.563  0.00  0.00    +0.080 C 
ATOM     11  C   UNL     1       5.224  -0.506  -1.341  0.00  0.00    +0.041 C 
ATOM     12  C   UNL     1       5.798   1.181   0.455  0.00  0.00    +0.041 C 
ATOM     13  C   UNL     1       5.838  -1.561  -0.427  0.00  0.00    +0.160 C 
ATOM     14  C   UNL     1       6.389   0.017   1.244  0.00  0.00    +0.160 C 
ENDBRANCH  16   8
ENDBRANCH  19   7
TORSDOF 5
