REMARK  Name = 23786270
REMARK  9 active torsions:
REMARK  status: ('A' for Active; 'I' for Inactive)
REMARK    1  A    between atoms: S_3  and  C_27
REMARK    2  A    between atoms: S_3  and  C_32
REMARK    3  A    between atoms: O_4  and  C_13
REMARK    4  A    between atoms: C_11  and  C_19
REMARK    5  A    between atoms: C_14  and  C_20
REMARK    6  A    between atoms: C_16  and  C_23
REMARK    7  A    between atoms: C_20  and  C_24
REMARK    8  A    between atoms: C_20  and  C_25
REMARK    9  A    between atoms: C_26  and  C_27
REMARK                            x       y       z     vdW  Elec       q    Type
REMARK                         _______ _______ _______ _____ _____    ______ ____
ROOT
ATOM      2  S   UNL     1       2.595   1.832   1.156  0.00  0.00    -0.075 S 
ATOM      9  N   UNL     1       2.364   0.284  -0.902  0.00  0.00    -0.247 NA
ATOM     11  C   UNL     1      -1.427   1.789   0.296  0.00  0.00    -0.022 C 
ATOM     12  C   UNL     1      -1.442   0.342  -0.336  0.00  0.00    +0.033 C 
ATOM     13  C   UNL     1      -2.756   0.083  -1.127  0.00  0.00    +0.123 C 
ATOM     14  C   UNL     1      -4.023   0.392  -0.300  0.00  0.00    +0.029 C 
ATOM     15  C   UNL     1      -2.714   2.010   1.125  0.00  0.00    +0.008 C 
ATOM     16  C   UNL     1      -0.132   0.049  -1.176  0.00  0.00    +0.042 C 
ATOM     17  C   UNL     1      -3.988   1.789   0.321  0.00  0.00    +0.007 C 
ATOM     18  C   UNL     1      -0.215   1.927   1.271  0.00  0.00    +0.051 C 
ATOM     19  C   UNL     1      -1.328   2.896  -0.786  0.00  0.00    +0.012 C 
ATOM     21  C   UNL     1       1.087   0.577  -0.459  0.00  0.00    +0.055 A 
ATOM     22  C   UNL     1       1.029   1.424   0.629  0.00  0.00    +0.014 A 
ATOM     23  C   UNL     1       0.058  -1.440  -1.504  0.00  0.00    +0.014 C 
ATOM     26  C   UNL     1       3.238   0.881  -0.121  0.00  0.00    +0.100 A 
ENDROOT
BRANCH  13   4
ATOM      4  O   UNL     1      -2.820  -1.293  -1.500  0.00  0.00    -0.391 OA
ATOM     38  H   UNL     1      -2.820  -1.826  -0.687  0.00  0.00    +0.210 HD
ENDBRANCH  13   4
BRANCH  14  20
ATOM     20  C   UNL     1      -5.300   0.233  -1.133  0.00  0.00    +0.078 C 
ATOM     24  C   UNL     1      -5.312   1.195  -2.307  0.00  0.00    +0.017 C 
BRANCH  20  25
ATOM      5  O   UNL     1      -6.963   1.634  -0.187  0.00  0.00    -0.275 OA
ATOM      6  O   UNL     1      -8.551  -2.834   1.215  0.00  0.00    -0.377 OA
ATOM     10  N   UNL     1      -7.020  -0.604   0.425  0.00  0.00    -0.297 N 
ATOM     25  C   UNL     1      -6.500   0.493  -0.258  0.00  0.00    +0.219 C 
ATOM     28  C   UNL     1      -8.187  -0.441   1.292  0.00  0.00    +0.136 C 
ATOM     29  C   UNL     1      -6.423  -1.943   0.465  0.00  0.00    +0.136 C 
ATOM     30  C   UNL     1      -9.187  -1.564   1.053  0.00  0.00    +0.179 C 
ATOM     31  C   UNL     1      -7.497  -3.006   0.265  0.00  0.00    +0.179 C 
ENDBRANCH  20  25
ENDBRANCH  14  20
BRANCH  26  27
ATOM     27  C   UNL     1       4.705   0.787  -0.279  0.00  0.00    +0.234 C 
BRANCH  27   3
ATOM      3  S   UNL     1       5.279  -0.594   0.666  0.00  0.00    +0.003 S 
ATOM      7  O   UNL     1       4.708  -1.806   0.108  0.00  0.00    -0.169 OA
ATOM      8  O   UNL     1       5.094  -0.274   2.070  0.00  0.00    -0.169 OA
BRANCH   3  32
ATOM      1 CL   UNL     1      11.425  -0.757  -0.491  0.00  0.00    -0.084 Cl
ATOM     32  C   UNL     1       7.014  -0.640   0.339  0.00  0.00    +0.089 A 
ATOM     33  C   UNL     1       7.876   0.070   1.158  0.00  0.00    +0.028 A 
ATOM     34  C   UNL     1       7.482  -1.386  -0.729  0.00  0.00    +0.028 A 
ATOM     35  C   UNL     1       9.247   0.033   0.900  0.00  0.00    +0.022 A 
ATOM     36  C   UNL     1       8.853  -1.423  -0.987  0.00  0.00    +0.022 A 
ATOM     37  C   UNL     1       9.735  -0.713  -0.172  0.00  0.00    +0.041 A 
ENDBRANCH   3  32
ENDBRANCH  27   3
ENDBRANCH  26  27
TORSDOF 6
