REMARK  Name = 11912954
REMARK  9 active torsions:
REMARK  status: ('A' for Active; 'I' for Inactive)
REMARK    1  A    between atoms: N_3  and  C_9
REMARK    2  A    between atoms: N_3  and  C_13
REMARK    3  A    between atoms: N_4  and  C_10
REMARK    4  A    between atoms: C_13  and  C_15
REMARK    5  A    between atoms: C_16  and  C_17
REMARK    6  A    between atoms: C_16  and  C_22
REMARK    7  A    between atoms: C_16  and  C_23
REMARK    8  A    between atoms: C_16  and  C_24
REMARK    9  A    between atoms: C_27  and  C_28
REMARK                            x       y       z     vdW  Elec       q    Type
REMARK                         _______ _______ _______ _____ _____    ______ ____
ROOT
ATOM      1  O   UNL     1      -2.186  -1.976   1.829  0.00  0.00    -0.370 OA
ATOM      2  O   UNL     1      -2.323  -3.710  -0.737  0.00  0.00    -0.370 OA
ATOM      7  C   UNL     1      -1.423  -2.672  -0.310  0.00  0.00    +0.168 C 
ATOM      8  C   UNL     1      -2.249  -1.640   0.432  0.00  0.00    +0.171 C 
ATOM      9  C   UNL     1      -0.468  -3.204   0.736  0.00  0.00    +0.111 C 
ATOM     10  C   UNL     1      -3.651  -1.847  -0.090  0.00  0.00    +0.130 C 
ATOM     11  C   UNL     1      -1.299  -3.091   2.004  0.00  0.00    +0.181 C 
ATOM     12  C   UNL     1      -3.670  -3.330  -0.414  0.00  0.00    +0.185 C 
ENDROOT
BRANCH  10   4
ATOM      4  N   UNL     1      -3.852  -1.069  -1.294  0.00  0.00    -0.306 N 
ATOM      5  N   UNL     1      -4.430   0.857  -0.084  0.00  0.00    -0.219 NA
ATOM      6  N   UNL     1      -4.385   0.876  -2.493  0.00  0.00    -0.223 NA
ATOM     14  C   UNL     1      -4.234   0.261  -1.290  0.00  0.00    +0.216 A 
ATOM     17  C   UNL     1      -4.801   2.153  -0.117  0.00  0.00    +0.052 A 
ATOM     20  C   UNL     1      -4.982   2.869  -1.283  0.00  0.00    +0.043 A 
ATOM     21  C   UNL     1      -4.758   2.172  -2.453  0.00  0.00    +0.116 A 
ATOM     35  H   UNL     1      -3.658  -1.488  -2.196  0.00  0.00    +0.149 HD
BRANCH  17  16
ATOM     16  C   UNL     1      -5.021   2.823   1.198  0.00  0.00    +0.005 C 
ATOM     22  C   UNL     1      -6.484   3.347   1.328  0.00  0.00    +0.017 C 
ATOM     23  C   UNL     1      -4.066   4.043   1.377  0.00  0.00    +0.017 C 
ATOM     24  C   UNL     1      -4.787   1.923   2.456  0.00  0.00    +0.017 C 
ENDBRANCH  17  16
ENDBRANCH  10   4
BRANCH   9   3
ATOM      3  N   UNL     1       0.710  -2.345   0.839  0.00  0.00    -0.305 NA
ATOM     34  H   UNL     1       1.268  -2.637   1.642  0.00  0.00    +0.123 HD
BRANCH   3  13
ATOM     13  C   UNL     1       1.517  -2.428  -0.368  0.00  0.00    +0.116 C 
BRANCH  13  15
ATOM     15  C   UNL     1       2.736  -1.548  -0.289  0.00  0.00    -0.034 A 
ATOM     18  C   UNL     1       3.917  -2.061   0.229  0.00  0.00    +0.005 A 
ATOM     19  C   UNL     1       2.662  -0.235  -0.735  0.00  0.00    +0.005 A 
ATOM     25  C   UNL     1       5.047  -1.245   0.302  0.00  0.00    +0.009 A 
ATOM     26  C   UNL     1       3.791   0.580  -0.662  0.00  0.00    +0.009 A 
ATOM     27  C   UNL     1       4.983   0.075  -0.143  0.00  0.00    -0.018 A 
BRANCH  27  28
ATOM     28  C   UNL     1       6.155   0.921  -0.068  0.00  0.00    -0.018 A 
ATOM     29  C   UNL     1       6.390   1.686   1.075  0.00  0.00    +0.008 A 
ATOM     30  C   UNL     1       7.049   0.972  -1.137  0.00  0.00    +0.008 A 
ATOM     31  C   UNL     1       7.519   2.501   1.148  0.00  0.00    +0.001 A 
ATOM     32  C   UNL     1       8.178   1.788  -1.064  0.00  0.00    +0.001 A 
ATOM     33  C   UNL     1       8.413   2.552   0.079  0.00  0.00    +0.000 A 
ENDBRANCH  27  28
ENDBRANCH  13  15
ENDBRANCH   3  13
ENDBRANCH   9   3
TORSDOF 6
