REMARK  Name = 45783511
REMARK  6 active torsions:
REMARK  status: ('A' for Active; 'I' for Inactive)
REMARK    1  A    between atoms: O_4  and  C_30
REMARK    2  A    between atoms: N_5  and  C_14
REMARK    3  A    between atoms: C_10  and  C_15
REMARK    4  A    between atoms: C_14  and  C_16
REMARK    5  A    between atoms: C_17  and  C_21
REMARK    6  A    between atoms: C_22  and  C_30
REMARK                            x       y       z     vdW  Elec       q    Type
REMARK                         _______ _______ _______ _____ _____    ______ ____
ROOT
ATOM      1  O   UNL     1      -2.337   1.180  -1.926  0.00  0.00    -0.336 OA
ATOM      6  N   UNL     1      -1.408   1.201   0.113  0.00  0.00    -0.190 NA
ATOM      8  N   UNL     1      -0.968   0.955  -2.119  0.00  0.00    -0.056 NA
ATOM     15  C   UNL     1      -2.510   1.314  -0.585  0.00  0.00    +0.245 A 
ATOM     17  C   UNL     1      -0.489   0.982  -0.872  0.00  0.00    +0.204 A 
ENDROOT
BRANCH  17  21
ATOM      3  O   UNL     1       7.656  -0.308   0.526  0.00  0.00    -0.377 OA
ATOM      7  N   UNL     1       4.921   0.244   0.186  0.00  0.00    -0.311 N 
ATOM      9  N   UNL     1       3.147   0.388  -1.374  0.00  0.00    -0.240 NA
ATOM     19  C   UNL     1       5.352  -0.870   1.037  0.00  0.00    +0.134 C 
ATOM     20  C   UNL     1       5.897   0.671  -0.827  0.00  0.00    +0.134 C 
ATOM     21  C   UNL     1       0.902   0.794  -0.576  0.00  0.00    +0.041 A 
ATOM     24  C   UNL     1       6.745  -0.589   1.588  0.00  0.00    +0.178 C 
ATOM     25  C   UNL     1       7.261   0.871  -0.175  0.00  0.00    +0.178 C 
ATOM     26  C   UNL     1       3.562   0.428  -0.088  0.00  0.00    +0.121 A 
ATOM     27  C   UNL     1       1.367   0.829   0.735  0.00  0.00    +0.016 A 
ATOM     28  C   UNL     1       2.721   0.644   0.992  0.00  0.00    +0.044 A 
ATOM     29  C   UNL     1       1.825   0.572  -1.585  0.00  0.00    +0.124 A 
ENDBRANCH  17  21
BRANCH  15  10
ATOM      5  N   UNL     1      -4.391   0.550   0.855  0.00  0.00    -0.284 NA
ATOM     10  C   UNL     1      -3.925   1.567  -0.109  0.00  0.00    +0.146 C 
ATOM     11  C   UNL     1      -4.072   2.908   0.634  0.00  0.00    +0.030 C 
ATOM     12  C   UNL     1      -4.683   2.550   1.982  0.00  0.00    +0.017 C 
ATOM     13  C   UNL     1      -5.359   1.218   1.725  0.00  0.00    +0.085 C 
BRANCH   5  14
ATOM     14  C   UNL     1      -4.953  -0.633   0.216  0.00  0.00    +0.159 C 
BRANCH  14  16
ATOM      2  O   UNL     1      -3.019  -2.038   0.670  0.00  0.00    -0.461 OA
ATOM     16  C   UNL     1      -3.881  -1.570  -0.271  0.00  0.00    +0.119 A 
ATOM     18  C   UNL     1      -3.567  -2.078  -1.510  0.00  0.00    +0.046 A 
ATOM     22  C   UNL     1      -2.145  -2.855   0.024  0.00  0.00    +0.131 A 
ATOM     23  C   UNL     1      -2.439  -2.913  -1.318  0.00  0.00    +0.047 A 
BRANCH  22  30
ATOM     30  C   UNL     1      -1.108  -3.484   0.854  0.00  0.00    +0.230 C 
BRANCH  30   4
ATOM      4  O   UNL     1      -0.102  -2.528   1.196  0.00  0.00    -0.387 OA
ATOM     31  H   UNL     1       0.557  -2.993   1.740  0.00  0.00    +0.210 HD
ENDBRANCH  30   4
ENDBRANCH  22  30
ENDBRANCH  14  16
ENDBRANCH   5  14
ENDBRANCH  15  10
TORSDOF 6
