REMARK  Name = 45783642
REMARK  9 active torsions:
REMARK  status: ('A' for Active; 'I' for Inactive)
REMARK    1  A    between atoms: O_5  and  C_32
REMARK    2  A    between atoms: O_5  and  C_33
REMARK    3  A    between atoms: N_7  and  C_16
REMARK    4  A    between atoms: N_11  and  C_30
REMARK    5  A    between atoms: C_12  and  C_17
REMARK    6  A    between atoms: C_16  and  C_18
REMARK    7  A    between atoms: C_21  and  C_25
REMARK    8  A    between atoms: C_24  and  C_26
REMARK    9  A    between atoms: C_31  and  C_32
REMARK                            x       y       z     vdW  Elec       q    Type
REMARK                         _______ _______ _______ _____ _____    ______ ____
ROOT
ATOM      4  O   UNL     1      -2.836  -1.572   2.022  0.00  0.00    -0.336 OA
ATOM      8  N   UNL     1      -1.740  -1.347   0.082  0.00  0.00    -0.190 NA
ATOM      9  N   UNL     1      -1.476  -1.501   2.349  0.00  0.00    -0.056 NA
ATOM     17  C   UNL     1      -2.903  -1.474   0.669  0.00  0.00    +0.245 A 
ATOM     21  C   UNL     1      -0.895  -1.368   1.153  0.00  0.00    +0.204 A 
ENDROOT
BRANCH  21  25
ATOM     10  N   UNL     1       2.719  -1.179   2.011  0.00  0.00    -0.239 NA
ATOM     25  C   UNL     1       0.527  -1.257   0.994  0.00  0.00    +0.041 A 
ATOM     27  C   UNL     1       1.098  -1.121  -0.266  0.00  0.00    +0.016 A 
ATOM     28  C   UNL     1       1.373  -1.280   2.091  0.00  0.00    +0.124 A 
ATOM     29  C   UNL     1       2.479  -1.015  -0.390  0.00  0.00    +0.044 A 
ATOM     30  C   UNL     1       3.238  -1.049   0.769  0.00  0.00    +0.125 A 
BRANCH  30  11
ATOM      6  O   UNL     1       4.942  -0.743  -1.692  0.00  0.00    -0.273 OA
ATOM     11  N   UNL     1       4.627  -0.940   0.634  0.00  0.00    -0.268 N 
ATOM     31  C   UNL     1       5.369  -0.799  -0.543  0.00  0.00    +0.244 C 
ATOM     34  H   UNL     1       5.138  -0.971   1.513  0.00  0.00    +0.156 HD
BRANCH  31  32
ATOM     32  C   UNL     1       6.856  -0.723  -0.272  0.00  0.00    +0.255 C 
BRANCH  32   5
ATOM      5  O   UNL     1       7.537  -0.587  -1.502  0.00  0.00    -0.374 OA
ATOM     33  C   UNL     1       8.947  -0.509  -1.322  0.00  0.00    +0.194 C 
ENDBRANCH  32   5
ENDBRANCH  31  32
ENDBRANCH  30  11
ENDBRANCH  21  25
BRANCH  17  12
ATOM      7  N   UNL     1      -4.365  -0.803  -1.229  0.00  0.00    -0.287 NA
ATOM     12  C   UNL     1      -4.287  -1.525   0.056  0.00  0.00    +0.146 C 
ATOM     13  C   UNL     1      -4.739  -2.959  -0.273  0.00  0.00    +0.030 C 
ATOM     14  C   UNL     1      -5.109  -2.931  -1.749  0.00  0.00    +0.017 C 
ATOM     15  C   UNL     1      -5.404  -1.469  -2.015  0.00  0.00    +0.085 C 
BRANCH   7  16
ATOM     16  C   UNL     1      -4.626   0.623  -1.073  0.00  0.00    +0.120 C 
BRANCH  16  18
ATOM     18  C   UNL     1      -3.379   1.384  -0.709  0.00  0.00    -0.033 A 
ATOM     19  C   UNL     1      -3.334   2.124   0.473  0.00  0.00    +0.005 A 
ATOM     20  C   UNL     1      -2.269   1.348  -1.552  0.00  0.00    +0.005 A 
ATOM     22  C   UNL     1      -2.178   2.829   0.810  0.00  0.00    +0.012 A 
ATOM     23  C   UNL     1      -1.113   2.053  -1.215  0.00  0.00    +0.012 A 
ATOM     24  C   UNL     1      -1.068   2.793  -0.033  0.00  0.00    +0.055 A 
BRANCH  24  26
ATOM      1  F   UNL     1       1.271   2.750   0.467  0.00  0.00    -0.166 F 
ATOM      2  F   UNL     1       0.048   4.212   1.514  0.00  0.00    -0.166 F 
ATOM      3  F   UNL     1       0.523   4.490  -0.590  0.00  0.00    -0.166 F 
ATOM     26  C   UNL     1       0.168   3.544   0.330  0.00  0.00    +0.417 C 
ENDBRANCH  24  26
ENDBRANCH  16  18
ENDBRANCH   7  16
ENDBRANCH  17  12
TORSDOF 8
