REMARK  Name = 40778264
REMARK  13 active torsions:
REMARK  status: ('A' for Active; 'I' for Inactive)
REMARK    1  A    between atoms: O_2  and  C_9
REMARK    2  A    between atoms: O_3  and  C_10
REMARK    3  A    between atoms: N_5  and  C_13
REMARK    4  A    between atoms: N_5  and  C_16
REMARK    5  A    between atoms: N_6  and  C_17
REMARK    6  A    between atoms: N_7  and  C_19
REMARK    7  A    between atoms: N_7  and  C_21
REMARK    8  A    between atoms: N_7  and  C_22
REMARK    9  A    between atoms: C_11  and  C_13
REMARK   10  A    between atoms: C_12  and  C_14
REMARK   11  A    between atoms: C_14  and  C_15
REMARK   12  A    between atoms: C_16  and  C_18
REMARK   13  A    between atoms: C_17  and  C_19
REMARK                            x       y       z     vdW  Elec       q    Type
REMARK                         _______ _______ _______ _____ _____    ______ ____
ROOT
ATOM      1  O   UNL     1      -0.626   0.495  -0.845  0.00  0.00    -0.366 OA
ATOM      9  C   UNL     1       1.137   2.041  -0.448  0.00  0.00    +0.175 C 
ATOM     10  C   UNL     1       0.084   2.192   0.629  0.00  0.00    +0.175 C 
ATOM     11  C   UNL     1       0.795   0.677  -1.037  0.00  0.00    +0.163 C 
ATOM     12  C   UNL     1      -1.131   1.578  -0.045  0.00  0.00    +0.158 C 
ENDROOT
BRANCH   9   2
ATOM      2  O   UNL     1       0.949   3.023  -1.467  0.00  0.00    -0.387 OA
ATOM     26  H   UNL     1       1.624   2.866  -2.149  0.00  0.00    +0.210 HD
ENDBRANCH   9   2
BRANCH  10   3
ATOM      3  O   UNL     1      -0.141   3.534   1.007  0.00  0.00    -0.387 OA
ATOM     27  H   UNL     1       0.706   3.894   1.321  0.00  0.00    +0.210 HD
ENDBRANCH  10   3
BRANCH  11  13
ATOM     13  C   UNL     1       1.511  -0.471  -0.337  0.00  0.00    +0.115 C 
BRANCH  13   5
ATOM      5  N   UNL     1       2.956  -0.310  -0.412  0.00  0.00    -0.308 NA
ATOM     28  H   UNL     1       3.240  -0.279  -1.391  0.00  0.00    +0.122 HD
BRANCH   5  16
ATOM     16  C   UNL     1       3.638  -1.403   0.267  0.00  0.00    +0.136 C 
BRANCH  16  18
ATOM      8  N   UNL     1       5.743  -0.825   1.342  0.00  0.00    -0.259 NA
ATOM     18  C   UNL     1       5.135  -1.251   0.212  0.00  0.00    +0.055 A 
ATOM     20  C   UNL     1       5.804  -1.548  -0.964  0.00  0.00    +0.024 A 
ATOM     23  C   UNL     1       7.186  -1.399  -0.982  0.00  0.00    +0.003 A 
ATOM     24  C   UNL     1       7.087  -0.691   1.287  0.00  0.00    +0.111 A 
ATOM     25  C   UNL     1       7.848  -0.962   0.161  0.00  0.00    +0.020 A 
ENDBRANCH  16  18
ENDBRANCH   5  16
ENDBRANCH  13   5
ENDBRANCH  11  13
BRANCH  12  14
ATOM     14  C   UNL     1      -2.163   1.052   0.937  0.00  0.00    +0.130 C 
BRANCH  14  15
ATOM      4  O   UNL     1      -3.739   1.029  -0.897  0.00  0.00    -0.276 OA
ATOM      6  N   UNL     1      -4.426   0.290   1.196  0.00  0.00    -0.314 N 
ATOM     15  C   UNL     1      -3.511   0.800   0.287  0.00  0.00    +0.216 C 
ATOM     29  H   UNL     1      -4.135   0.128   2.156  0.00  0.00    +0.149 HD
BRANCH   6  17
ATOM     17  C   UNL     1      -5.788  -0.039   0.843  0.00  0.00    +0.119 C 
BRANCH  17  19
ATOM     19  C   UNL     1      -5.904  -1.483   0.376  0.00  0.00    +0.102 C 
BRANCH  19   7
ATOM      7  N   UNL     1      -7.288  -1.801   0.053  0.00  0.00    -0.307 NA
ATOM     21  C   UNL     1      -7.510  -3.248   0.102  0.00  0.00    +0.104 C 
ATOM     22  C   UNL     1      -7.644  -1.279  -1.268  0.00  0.00    +0.104 C 
ENDBRANCH  19   7
ENDBRANCH  17  19
ENDBRANCH   6  17
ENDBRANCH  14  15
ENDBRANCH  12  14
TORSDOF 11
