REMARK  Name = 75536620
REMARK  7 active torsions:
REMARK  status: ('A' for Active; 'I' for Inactive)
REMARK    1  A    between atoms: O_2  and  C_7
REMARK    2  A    between atoms: N_4  and  C_6
REMARK    3  A    between atoms: N_4  and  C_11
REMARK    4  A    between atoms: N_5  and  C_10
REMARK    5  A    between atoms: C_8  and  C_10
REMARK    6  A    between atoms: C_11  and  C_12
REMARK    7  A    between atoms: C_13  and  C_16
REMARK                            x       y       z     vdW  Elec       q    Type
REMARK                         _______ _______ _______ _____ _____    ______ ____
ROOT
ATOM      1  O   UNL     1       0.415   0.922  -0.039  0.00  0.00    -0.371 OA
ATOM      6  C   UNL     1      -1.644  -0.211   0.301  0.00  0.00    +0.111 C 
ATOM      7  C   UNL     1      -0.743  -1.072  -0.565  0.00  0.00    +0.164 C 
ATOM      8  C   UNL     1       0.624  -0.485  -0.239  0.00  0.00    +0.165 C 
ATOM      9  C   UNL     1      -0.992   1.153   0.152  0.00  0.00    +0.181 C 
ENDROOT
BRANCH   7   2
ATOM      2  O   UNL     1      -0.820  -2.445  -0.237  0.00  0.00    -0.388 OA
ATOM     26  H   UNL     1      -0.608  -2.547   0.706  0.00  0.00    +0.210 HD
ENDBRANCH   7   2
BRANCH   6   4
ATOM      4  N   UNL     1      -3.037  -0.222  -0.116  0.00  0.00    -0.305 NA
ATOM     25  H   UNL     1      -3.321  -1.183  -0.305  0.00  0.00    +0.123 HD
BRANCH   4  11
ATOM     11  C   UNL     1      -3.900   0.330   0.922  0.00  0.00    +0.116 C 
BRANCH  11  12
ATOM     12  C   UNL     1      -5.345   0.343   0.501  0.00  0.00    -0.034 A 
ATOM     14  C   UNL     1      -5.870   1.453  -0.160  0.00  0.00    +0.005 A 
ATOM     15  C   UNL     1      -6.160  -0.756   0.773  0.00  0.00    +0.005 A 
ATOM     17  C   UNL     1      -7.209   1.465  -0.550  0.00  0.00    +0.000 A 
ATOM     18  C   UNL     1      -7.499  -0.745   0.383  0.00  0.00    +0.000 A 
ATOM     19  C   UNL     1      -8.024   0.366  -0.278  0.00  0.00    +0.000 A 
ENDBRANCH  11  12
ENDBRANCH   4  11
ENDBRANCH   6   4
BRANCH   8  10
ATOM     10  C   UNL     1       1.648  -0.702  -1.339  0.00  0.00    +0.138 C 
BRANCH  10   5
ATOM      3  O   UNL     1       3.792  -2.009   0.053  0.00  0.00    -0.270 OA
ATOM      5  N   UNL     1       2.917  -0.130  -0.990  0.00  0.00    -0.309 N 
ATOM     13  C   UNL     1       3.902  -0.841  -0.311  0.00  0.00    +0.244 C 
ATOM     27  H   UNL     1       3.045   0.854  -1.199  0.00  0.00    +0.149 HD
BRANCH  13  16
ATOM     16  C   UNL     1       5.151  -0.099  -0.001  0.00  0.00    +0.037 A 
ATOM     20  C   UNL     1       5.928  -0.468   1.097  0.00  0.00    +0.013 A 
ATOM     21  C   UNL     1       5.547   0.967  -0.808  0.00  0.00    +0.013 A 
ATOM     22  C   UNL     1       7.101   0.228   1.387  0.00  0.00    +0.001 A 
ATOM     23  C   UNL     1       6.720   1.664  -0.518  0.00  0.00    +0.001 A 
ATOM     24  C   UNL     1       7.497   1.294   0.580  0.00  0.00    +0.000 A 
ENDBRANCH  13  16
ENDBRANCH  10   5
ENDBRANCH   8  10
TORSDOF 7
