REMARK  Name = 51138082
REMARK  10 active torsions:
REMARK  status: ('A' for Active; 'I' for Inactive)
REMARK    1  A    between atoms: N_3  and  C_21
REMARK    2  A    between atoms: N_4  and  C_22
REMARK    3  A    between atoms: C_5  and  C_9
REMARK    4  A    between atoms: C_8  and  C_16
REMARK    5  A    between atoms: C_9  and  C_12
REMARK    6  A    between atoms: C_12  and  C_19
REMARK    7  A    between atoms: C_12  and  C_20
REMARK    8  A    between atoms: C_21  and  C_23
REMARK    9  A    between atoms: C_22  and  C_25
REMARK   10  A    between atoms: C_24  and  C_26
REMARK                            x       y       z     vdW  Elec       q    Type
REMARK                         _______ _______ _______ _____ _____    ______ ____
ROOT
ATOM      2  N   UNL     1      -1.636   0.235   0.489  0.00  0.00    -0.299 NA
ATOM      3  N   UNL     1       3.331  -0.555   0.947  0.00  0.00    -0.335 N 
ATOM      5  C   UNL     1      -0.989   1.338  -0.234  0.00  0.00    +0.085 C 
ATOM      6  C   UNL     1       0.533   1.430  -0.091  0.00  0.00    -0.021 A 
ATOM      7  C   UNL     1       1.378   0.384   0.380  0.00  0.00    +0.008 A 
ATOM      8  C   UNL     1      -1.255  -1.096   0.036  0.00  0.00    +0.145 C 
ATOM     10  C   UNL     1      -0.153  -1.691   0.909  0.00  0.00    +0.065 C 
ATOM     11  C   UNL     1       1.148  -0.966   0.820  0.00  0.00    -0.020 A 
ATOM     13  C   UNL     1       2.760   0.593   0.450  0.00  0.00    +0.050 A 
ATOM     14  C   UNL     1       2.372  -1.500   1.167  0.00  0.00    +0.091 A 
ATOM     15  C   UNL     1       1.185   2.613  -0.525  0.00  0.00    +0.006 A 
ATOM     17  C   UNL     1       3.379   1.782   0.061  0.00  0.00    +0.026 A 
ATOM     18  C   UNL     1       2.565   2.788  -0.443  0.00  0.00    +0.002 A 
ATOM     28  H   UNL     1      -1.506   0.333   1.495  0.00  0.00    +0.123 HD
ENDROOT
BRANCH   8  16
ATOM      1  O   UNL     1      -2.746  -2.548   1.203  0.00  0.00    -0.274 OA
ATOM      4  N   UNL     1      -3.264  -1.915  -0.977  0.00  0.00    -0.303 N 
ATOM     16  C   UNL     1      -2.494  -1.927   0.174  0.00  0.00    +0.231 C 
ATOM     29  H   UNL     1      -2.973  -1.345  -1.766  0.00  0.00    +0.150 HD
BRANCH   4  22
ATOM     22  C   UNL     1      -4.498  -2.655  -1.110  0.00  0.00    +0.193 C 
BRANCH  22  25
ATOM     25  C   UNL     1      -5.643  -1.852  -0.681  0.00  0.00    -0.087 C 
ATOM     27  C   UNL     1      -6.585  -1.196  -0.330  0.00  0.00    +0.005 C 
ENDBRANCH  22  25
ENDBRANCH   4  22
ENDBRANCH   8  16
BRANCH   5   9
ATOM      9  C   UNL     1      -1.707   2.604   0.265  0.00  0.00    +0.026 C 
BRANCH   9  12
ATOM     12  C   UNL     1      -3.095   2.790  -0.356  0.00  0.00    -0.015 C 
ATOM     19  C   UNL     1      -3.706   4.097   0.154  0.00  0.00    +0.007 C 
ATOM     20  C   UNL     1      -4.038   1.625  -0.050  0.00  0.00    +0.007 C 
ENDBRANCH   9  12
ENDBRANCH   5   9
BRANCH   3  21
ATOM     21  C   UNL     1       4.743  -0.758   1.187  0.00  0.00    +0.210 C 
BRANCH  21  23
ATOM     23  C   UNL     1       5.486  -0.997  -0.057  0.00  0.00    -0.081 C 
ATOM     24  C   UNL     1       6.095  -1.192  -1.073  0.00  0.00    -0.104 C 
ATOM     26  C   UNL     1       6.835  -1.429  -2.312  0.00  0.00    +0.106 C 
ENDBRANCH  21  23
ENDBRANCH   3  21
TORSDOF 7
