REMARK  Name = 25389993
REMARK  10 active torsions:
REMARK  status: ('A' for Active; 'I' for Inactive)
REMARK    1  A    between atoms: O_1  and  C_20
REMARK    2  A    between atoms: O_1  and  C_32
REMARK    3  A    between atoms: O_3  and  C_27
REMARK    4  A    between atoms: O_3  and  C_33
REMARK    5  A    between atoms: O_4  and  C_26
REMARK    6  A    between atoms: N_7  and  C_11
REMARK    7  A    between atoms: N_7  and  C_21
REMARK    8  A    between atoms: C_9  and  C_17
REMARK    9  A    between atoms: C_13  and  C_20
REMARK   10  A    between atoms: C_21  and  C_26
REMARK                            x       y       z     vdW  Elec       q    Type
REMARK                         _______ _______ _______ _____ _____    ______ ____
ROOT
ATOM      5  N   UNL     1      -0.185  -0.200   0.125  0.00  0.00    -0.274 NA
ATOM      6  N   UNL     1       2.980   1.812  -0.079  0.00  0.00    -0.356 N 
ATOM      8  C   UNL     1       0.611   1.016   0.477  0.00  0.00    +0.106 C 
ATOM      9  C   UNL     1      -1.595  -0.091   0.578  0.00  0.00    +0.090 C 
ATOM     10  C   UNL     1      -0.019   2.275  -0.137  0.00  0.00    +0.044 C 
ATOM     11  C   UNL     1      -1.458   2.444   0.348  0.00  0.00    +0.057 C 
ATOM     12  C   UNL     1      -2.262   1.188   0.016  0.00  0.00    +0.042 C 
ATOM     13  C   UNL     1       0.496  -1.468   0.504  0.00  0.00    +0.172 C 
ATOM     14  C   UNL     1       2.032   0.834   0.032  0.00  0.00    +0.038 A 
ATOM     15  C   UNL     1       1.859  -1.649  -0.213  0.00  0.00    +0.068 C 
ATOM     16  C   UNL     1       2.623  -0.373  -0.269  0.00  0.00    -0.016 A 
ATOM     18  C   UNL     1       3.979  -0.119  -0.612  0.00  0.00    +0.003 A 
ATOM     19  C   UNL     1       4.176   1.260  -0.486  0.00  0.00    +0.047 A 
ATOM     24  C   UNL     1       5.063  -0.924  -1.015  0.00  0.00    +0.010 A 
ATOM     25  C   UNL     1       5.408   1.872  -0.745  0.00  0.00    +0.026 A 
ATOM     28  C   UNL     1       6.300  -0.324  -1.278  0.00  0.00    +0.001 A 
ATOM     30  C   UNL     1       6.467   1.053  -1.145  0.00  0.00    +0.002 A 
ATOM     34  H   UNL     1       2.835   2.795   0.105  0.00  0.00    +0.166 HD
ENDROOT
BRANCH   9  17
ATOM     17  C   UNL     1      -2.470  -1.279   0.186  0.00  0.00    -0.027 A 
ATOM     22  C   UNL     1      -2.635  -1.610  -1.159  0.00  0.00    +0.050 A 
ATOM     23  C   UNL     1      -3.103  -2.034   1.173  0.00  0.00    +0.005 A 
ATOM     27  C   UNL     1      -3.434  -2.696  -1.517  0.00  0.00    +0.120 A 
ATOM     29  C   UNL     1      -3.901  -3.120   0.815  0.00  0.00    +0.004 A 
ATOM     31  C   UNL     1      -4.067  -3.451  -0.530  0.00  0.00    +0.045 A 
BRANCH  27   3
ATOM      3  O   UNL     1      -3.594  -3.019  -2.829  0.00  0.00    -0.495 OA
ATOM     33  C   UNL     1      -2.918  -2.204  -3.786  0.00  0.00    +0.277 C 
ENDBRANCH  27   3
ENDBRANCH   9  17
BRANCH  13  20
ATOM      2  O   UNL     1       0.286  -0.687   2.776  0.00  0.00    -0.249 OA
ATOM     20  C   UNL     1       0.659  -1.553   1.995  0.00  0.00    +0.325 C 
BRANCH  20   1
ATOM      1  O   UNL     1       1.275  -2.725   2.321  0.00  0.00    -0.467 OA
ATOM     32  C   UNL     1       1.494  -2.937   3.719  0.00  0.00    +0.280 C 
ENDBRANCH  20   1
ENDBRANCH  13  20
BRANCH  11   7
ATOM      7  N   UNL     1      -2.061   3.626  -0.266  0.00  0.00    -0.311 NA
ATOM     35  H   UNL     1      -1.373   4.377  -0.322  0.00  0.00    +0.122 HD
BRANCH   7  21
ATOM     21  C   UNL     1      -3.197   4.090   0.514  0.00  0.00    +0.109 C 
BRANCH  21  26
ATOM     26  C   UNL     1      -3.849   5.293  -0.149  0.00  0.00    +0.171 C 
BRANCH  26   4
ATOM      4  O   UNL     1      -4.962   5.700   0.636  0.00  0.00    -0.394 OA
ATOM     36  H   UNL     1      -5.359   6.468   0.190  0.00  0.00    +0.209 HD
ENDBRANCH  26   4
ENDBRANCH  21  26
ENDBRANCH   7  21
ENDBRANCH  11   7
TORSDOF 8
