REMARK  Name = 38027289
REMARK  10 active torsions:
REMARK  status: ('A' for Active; 'I' for Inactive)
REMARK    1  A    between atoms: N_3  and  C_14
REMARK    2  A    between atoms: N_4  and  C_13
REMARK    3  A    between atoms: C_5  and  C_9
REMARK    4  A    between atoms: C_6  and  C_13
REMARK    5  A    between atoms: C_8  and  C_12
REMARK    6  A    between atoms: C_9  and  C_15
REMARK    7  A    between atoms: C_9  and  C_16
REMARK    8  A    between atoms: C_10  and  C_20
REMARK    9  A    between atoms: C_12  and  C_19
REMARK   10  A    between atoms: C_23  and  C_24
REMARK                            x       y       z     vdW  Elec       q    Type
REMARK                         _______ _______ _______ _____ _____    ______ ____
ROOT
ATOM      5  C   UNL     1      -1.477   1.591  -0.842  0.00  0.00    +0.000 C 
ATOM      6  C   UNL     1      -1.036   2.986  -0.331  0.00  0.00    +0.032 C 
ATOM      7  C   UNL     1      -2.666   1.070  -0.020  0.00  0.00    +0.012 C 
ATOM      8  C   UNL     1      -2.332   0.958   1.480  0.00  0.00    +0.023 C 
ATOM     10  C   UNL     1      -1.645   2.205   1.999  0.00  0.00    -0.073 C 
ATOM     11  C   UNL     1      -1.084   3.106   1.174  0.00  0.00    -0.022 C 
ATOM     20  C   UNL     1      -1.659   2.415   3.487  0.00  0.00    +0.039 C 
ENDROOT
BRANCH   5   9
ATOM      9  C   UNL     1      -1.847   1.620  -2.328  0.00  0.00    -0.013 C 
ATOM     15  C   UNL     1      -1.691   0.233  -2.943  0.00  0.00    +0.007 C 
ATOM     16  C   UNL     1      -3.271   2.136  -2.512  0.00  0.00    +0.007 C 
ENDBRANCH   5   9
BRANCH   8  12
ATOM     12  C   UNL     1      -1.492  -0.291   1.767  0.00  0.00    +0.103 C 
BRANCH  12  19
ATOM      1  O   UNL     1      -3.361  -1.702   1.158  0.00  0.00    -0.276 OA
ATOM      3  N   UNL     1      -1.193  -2.489   0.874  0.00  0.00    -0.312 N 
ATOM     19  C   UNL     1      -2.146  -1.549   1.241  0.00  0.00    +0.214 C 
ATOM     30  H   UNL     1      -0.209  -2.248   0.944  0.00  0.00    +0.149 HD
BRANCH   3  14
ATOM     14  C   UNL     1      -1.531  -3.786   0.341  0.00  0.00    +0.073 C 
ATOM     17  C   UNL     1      -0.450  -4.816   0.640  0.00  0.00    +0.022 C 
ATOM     18  C   UNL     1      -1.577  -3.779  -1.183  0.00  0.00    +0.022 C 
ATOM     21  C   UNL     1       0.607  -4.588  -0.437  0.00  0.00    +0.002 C 
ATOM     22  C   UNL     1      -0.126  -3.961  -1.623  0.00  0.00    +0.002 C 
ENDBRANCH   3  14
ENDBRANCH  12  19
ENDBRANCH   8  12
BRANCH   6  13
ATOM     13  C   UNL     1       0.371   3.337  -0.828  0.00  0.00    +0.112 C 
BRANCH  13   4
ATOM      2  O   UNL     1       2.139   1.586  -2.259  0.00  0.00    -0.270 OA
ATOM      4  N   UNL     1       1.344   2.457  -0.261  0.00  0.00    -0.311 N 
ATOM     23  C   UNL     1       2.166   1.637  -1.032  0.00  0.00    +0.244 C 
ATOM     31  H   UNL     1       1.415   2.440   0.750  0.00  0.00    +0.149 HD
BRANCH  23  24
ATOM     24  C   UNL     1       3.107   0.760  -0.290  0.00  0.00    +0.037 A 
ATOM     25  C   UNL     1       3.541  -0.438  -0.858  0.00  0.00    +0.013 A 
ATOM     26  C   UNL     1       3.559   1.135   0.975  0.00  0.00    +0.013 A 
ATOM     27  C   UNL     1       4.426  -1.261  -0.162  0.00  0.00    +0.001 A 
ATOM     28  C   UNL     1       4.445   0.313   1.672  0.00  0.00    +0.001 A 
ATOM     29  C   UNL     1       4.878  -0.885   1.103  0.00  0.00    +0.000 A 
ENDBRANCH  23  24
ENDBRANCH  13   4
ENDBRANCH   6  13
TORSDOF 7
