REMARK  Name = 11912973
REMARK  7 active torsions:
REMARK  status: ('A' for Active; 'I' for Inactive)
REMARK    1  A    between atoms: S_1  and  N_8
REMARK    2  A    between atoms: S_1  and  C_20
REMARK    3  A    between atoms: N_8  and  C_15
REMARK    4  A    between atoms: N_9  and  C_16
REMARK    5  A    between atoms: N_12  and  C_27
REMARK    6  A    between atoms: C_23  and  C_29
REMARK    7  A    between atoms: C_31  and  C_34
REMARK                            x       y       z     vdW  Elec       q    Type
REMARK                         _______ _______ _______ _____ _____    ______ ____
ROOT
ATOM      2  O   UNL     1      -1.220   2.489   1.206  0.00  0.00    -0.370 OA
ATOM      3  O   UNL     1       1.063   0.627   2.250  0.00  0.00    -0.370 OA
ATOM     13  C   UNL     1       0.753   1.181   0.961  0.00  0.00    +0.170 C 
ATOM     14  C   UNL     1      -0.757   1.183   0.821  0.00  0.00    +0.171 C 
ATOM     15  C   UNL     1       1.131   2.642   0.916  0.00  0.00    +0.133 C 
ATOM     16  C   UNL     1      -1.222   0.148   1.817  0.00  0.00    +0.130 C 
ATOM     17  C   UNL     1      -0.090   3.321   1.506  0.00  0.00    +0.183 C 
ATOM     18  C   UNL     1      -0.153   0.216   2.892  0.00  0.00    +0.185 C 
ENDROOT
BRANCH  16   9
ATOM      9  N   UNL     1      -1.231  -1.162   1.203  0.00  0.00    -0.306 N 
ATOM     10  N   UNL     1      -3.376  -0.848   0.304  0.00  0.00    -0.211 NA
ATOM     11  N   UNL     1      -2.167  -2.900  -0.066  0.00  0.00    -0.223 NA
ATOM     19  C   UNL     1      -2.289  -1.651   0.458  0.00  0.00    +0.216 A 
ATOM     23  C   UNL     1      -4.389  -1.357  -0.428  0.00  0.00    +0.111 A 
ATOM     24  C   UNL     1      -3.217  -3.345  -0.786  0.00  0.00    +0.116 A 
ATOM     28  C   UNL     1      -4.365  -2.611  -1.003  0.00  0.00    +0.051 A 
ATOM     36  H   UNL     1      -0.406  -1.747   1.266  0.00  0.00    +0.149 HD
BRANCH  23  29
ATOM      6  O   UNL     1      -5.413   0.718   0.046  0.00  0.00    -0.461 OA
ATOM     29  C   UNL     1      -5.524  -0.485  -0.572  0.00  0.00    +0.153 A 
ATOM     30  C   UNL     1      -6.734  -0.594  -1.213  0.00  0.00    +0.051 A 
ATOM     32  C   UNL     1      -7.415   0.623  -0.973  0.00  0.00    +0.042 A 
ATOM     33  C   UNL     1      -6.569   1.388  -0.203  0.00  0.00    +0.196 A 
ENDBRANCH  23  29
ENDBRANCH  16   9
BRANCH  15   8
ATOM      8  N   UNL     1       1.305   3.069  -0.493  0.00  0.00    -0.182 NA
ATOM     35  H   UNL     1       0.485   2.970  -1.105  0.00  0.00    +0.148 HD
BRANCH   8   1
ATOM      1  S   UNL     1       2.854   3.077  -1.188  0.00  0.00    +0.059 S 
ATOM      4  O   UNL     1       3.750   3.862  -0.361  0.00  0.00    -0.153 OA
ATOM      5  O   UNL     1       2.729   3.364  -2.604  0.00  0.00    -0.153 OA
BRANCH   1  20
ATOM     20  C   UNL     1       3.327   1.379  -1.046  0.00  0.00    +0.105 A 
ATOM     21  C   UNL     1       3.992   0.957   0.092  0.00  0.00    +0.030 A 
ATOM     22  C   UNL     1       3.023   0.505  -2.074  0.00  0.00    +0.030 A 
ATOM     25  C   UNL     1       4.365  -0.383   0.204  0.00  0.00    +0.025 A 
ATOM     26  C   UNL     1       3.395  -0.834  -1.962  0.00  0.00    +0.025 A 
ATOM     27  C   UNL     1       4.066  -1.278  -0.823  0.00  0.00    +0.033 A 
BRANCH  27  12
ATOM      7  O   UNL     1       5.503  -2.728   1.391  0.00  0.00    -0.276 OA
ATOM     12  N   UNL     1       4.438  -2.618  -0.710  0.00  0.00    -0.286 N 
ATOM     31  C   UNL     1       5.111  -3.243   0.349  0.00  0.00    +0.214 C 
ATOM     34  C   UNL     1       5.326  -4.712   0.085  0.00  0.00    +0.109 C 
ATOM     37  H   UNL     1       4.185  -3.207  -1.500  0.00  0.00    +0.155 HD
ENDBRANCH  27  12
ENDBRANCH   1  20
ENDBRANCH   8   1
ENDBRANCH  15   8
TORSDOF 6
