REMARK  Name = 51137101
REMARK  6 active torsions:
REMARK  status: ('A' for Active; 'I' for Inactive)
REMARK    1  A    between atoms: N_2  and  C_11
REMARK    2  A    between atoms: N_5  and  C_21
REMARK    3  A    between atoms: N_5  and  C_24
REMARK    4  A    between atoms: N_5  and  C_25
REMARK    5  A    between atoms: C_6  and  C_10
REMARK    6  A    between atoms: C_11  and  C_12
REMARK                            x       y       z     vdW  Elec       q    Type
REMARK                         _______ _______ _______ _____ _____    ______ ____
ROOT
ATOM      2  N   UNL     1      -0.972  -0.241  -0.233  0.00  0.00    -0.297 NA
ATOM      6  C   UNL     1       1.204  -0.768   0.464  0.00  0.00    +0.070 C 
ATOM      7  C   UNL     1       0.469  -0.023   1.591  0.00  0.00    +0.028 C 
ATOM      8  C   UNL     1       0.356  -0.512  -0.789  0.00  0.00    +0.096 C 
ATOM      9  C   UNL     1      -0.728   0.632   0.915  0.00  0.00    +0.085 C 
ENDROOT
BRANCH   6  10
ATOM      1  F   UNL     1       8.443  -0.505  -0.077  0.00  0.00    -0.205 F 
ATOM      3  N   UNL     1       3.657  -1.298   0.412  0.00  0.00    -0.341 N 
ATOM      4  N   UNL     1       3.116   0.818   0.000  0.00  0.00    -0.232 NA
ATOM     10  C   UNL     1       2.653  -0.379   0.285  0.00  0.00    +0.113 A 
ATOM     13  C   UNL     1       4.847  -0.651   0.195  0.00  0.00    +0.069 A 
ATOM     14  C   UNL     1       4.482   0.668  -0.060  0.00  0.00    +0.089 A 
ATOM     17  C   UNL     1       6.170  -1.093   0.200  0.00  0.00    +0.066 A 
ATOM     18  C   UNL     1       5.484   1.616  -0.328  0.00  0.00    +0.032 A 
ATOM     22  C   UNL     1       7.154  -0.137  -0.069  0.00  0.00    +0.125 A 
ATOM     23  C   UNL     1       6.820   1.194  -0.328  0.00  0.00    +0.040 A 
ATOM     26  H   UNL     1       3.546  -2.280   0.627  0.00  0.00    +0.167 HD
ENDBRANCH   6  10
BRANCH   2  11
ATOM     11  C   UNL     1      -1.868   0.363  -1.208  0.00  0.00    +0.119 C 
BRANCH  11  12
ATOM     12  C   UNL     1      -3.311   0.239  -0.794  0.00  0.00    -0.033 A 
ATOM     15  C   UNL     1      -3.974  -0.980  -0.932  0.00  0.00    +0.007 A 
ATOM     16  C   UNL     1      -3.984   1.344  -0.273  0.00  0.00    +0.007 A 
ATOM     19  C   UNL     1      -5.310  -1.094  -0.549  0.00  0.00    +0.023 A 
ATOM     20  C   UNL     1      -5.320   1.230   0.110  0.00  0.00    +0.023 A 
ATOM     21  C   UNL     1      -5.983   0.011  -0.028  0.00  0.00    +0.029 A 
BRANCH  21   5
ATOM      5  N   UNL     1      -7.334  -0.104   0.361  0.00  0.00    -0.336 N 
ATOM     24  C   UNL     1      -8.040   1.036   0.910  0.00  0.00    +0.129 C 
ATOM     25  C   UNL     1      -8.032  -1.367   0.223  0.00  0.00    +0.129 C 
ENDBRANCH  21   5
ENDBRANCH  11  12
ENDBRANCH   2  11
TORSDOF 4
