REMARK  Name = 75537011
REMARK  2 active torsions:
REMARK  status: ('A' for Active; 'I' for Inactive)
REMARK    1  A    between atoms: N_3  and  C_7
REMARK    2  A    between atoms: C_9  and  C_18
REMARK                            x       y       z     vdW  Elec       q    Type
REMARK                         _______ _______ _______ _____ _____    ______ ____
ROOT
ATOM      1  O   UNL     1       1.632  -2.675   0.502  0.00  0.00    -0.252 OA
ATOM      2  O   UNL     1      -5.030  -0.743  -0.167  0.00  0.00    -0.275 OA
ATOM      3  N   UNL     1       1.789  -0.346   0.164  0.00  0.00    -0.281 N 
ATOM      4  N   UNL     1      -0.249  -1.279   0.325  0.00  0.00    -0.278 N 
ATOM      5  N   UNL     1      -2.753  -0.438  -0.544  0.00  0.00    -0.298 N 
ATOM      6  C   UNL     1      -0.504   0.149   0.247  0.00  0.00    +0.112 C 
ATOM      8  C   UNL     1       0.862   0.745  -0.082  0.00  0.00    +0.133 C 
ATOM     10  C   UNL     1      -1.594   0.441  -0.781  0.00  0.00    +0.132 C 
ATOM     13  C   UNL     1      -1.359  -2.203   0.475  0.00  0.00    +0.128 C 
ATOM     14  C   UNL     1       1.121  -1.573   0.353  0.00  0.00    +0.305 C 
ATOM     15  C   UNL     1      -2.449  -1.876  -0.544  0.00  0.00    +0.127 C 
ATOM     18  C   UNL     1      -4.066  -0.003  -0.347  0.00  0.00    +0.219 C 
ENDROOT
BRANCH   3   7
ATOM      7  C   UNL     1       3.218  -0.170   0.074  0.00  0.00    +0.078 C 
ATOM     16  C   UNL     1       3.723   0.719   1.213  0.00  0.00    +0.022 C 
ATOM     17  C   UNL     1       3.608   0.401  -1.292  0.00  0.00    +0.022 C 
ATOM     19  C   UNL     1       5.226   0.965   1.112  0.00  0.00    +0.002 C 
ATOM     20  C   UNL     1       5.112   0.647  -1.390  0.00  0.00    +0.002 C 
ATOM     21  C   UNL     1       5.612   1.531  -0.252  0.00  0.00    +0.000 C 
ENDBRANCH   3   7
BRANCH  18   9
ATOM      9  C   UNL     1      -4.306   1.472  -0.357  0.00  0.00    +0.075 C 
ATOM     11  C   UNL     1      -4.104   2.233   0.910  0.00  0.00    +0.013 C 
ATOM     12  C   UNL     1      -5.488   2.003   0.382  0.00  0.00    +0.013 C 
ENDBRANCH  18   9
TORSDOF 2
