REMARK  Name = 75367104
REMARK  9 active torsions:
REMARK  status: ('A' for Active; 'I' for Inactive)
REMARK    1  A    between atoms: O_2  and  C_9
REMARK    2  A    between atoms: N_5  and  C_8
REMARK    3  A    between atoms: N_5  and  C_13
REMARK    4  A    between atoms: N_6  and  C_14
REMARK    5  A    between atoms: C_10  and  C_14
REMARK    6  A    between atoms: C_12  and  C_13
REMARK    7  A    between atoms: C_12  and  C_15
REMARK    8  A    between atoms: C_12  and  C_16
REMARK    9  A    between atoms: C_12  and  C_17
REMARK                            x       y       z     vdW  Elec       q    Type
REMARK                         _______ _______ _______ _____ _____    ______ ____
ROOT
ATOM      1  O   UNL     1       0.395  -0.999  -0.078  0.00  0.00    -0.371 OA
ATOM      8  C   UNL     1       2.455   0.139   0.242  0.00  0.00    +0.111 C 
ATOM      9  C   UNL     1       1.502   1.045  -0.515  0.00  0.00    +0.164 C 
ATOM     10  C   UNL     1       0.160   0.416  -0.165  0.00  0.00    +0.165 C 
ATOM     11  C   UNL     1       1.812  -1.221   0.027  0.00  0.00    +0.181 C 
ENDROOT
BRANCH   9   2
ATOM      2  O   UNL     1       1.579   2.393  -0.093  0.00  0.00    -0.388 OA
ATOM     24  H   UNL     1       1.412   2.423   0.865  0.00  0.00    +0.210 HD
ENDBRANCH   9   2
BRANCH   8   5
ATOM      5  N   UNL     1       3.825   0.201  -0.240  0.00  0.00    -0.308 NA
ATOM     23  H   UNL     1       4.083   1.176  -0.379  0.00  0.00    +0.122 HD
BRANCH   5  13
ATOM     13  C   UNL     1       4.745  -0.411   0.712  0.00  0.00    +0.087 C 
BRANCH  13  12
ATOM     12  C   UNL     1       6.220  -0.444   0.235  0.00  0.00    -0.025 C 
ATOM     15  C   UNL     1       6.706   1.008   0.068  0.00  0.00    +0.012 C 
ATOM     16  C   UNL     1       7.115  -1.147   1.270  0.00  0.00    +0.012 C 
ATOM     17  C   UNL     1       6.351  -1.161  -1.120  0.00  0.00    +0.012 C 
ENDBRANCH  13  12
ENDBRANCH   5  13
ENDBRANCH   8   5
BRANCH  10  14
ATOM     14  C   UNL     1      -0.920   0.694  -1.196  0.00  0.00    +0.140 C 
BRANCH  14   6
ATOM      3  O   UNL     1      -6.893  -1.093   0.327  0.00  0.00    -0.377 OA
ATOM      4  O   UNL     1      -2.942   1.884   0.359  0.00  0.00    -0.253 OA
ATOM      6  N   UNL     1      -2.175   0.077  -0.828  0.00  0.00    -0.297 N 
ATOM      7  N   UNL     1      -4.289   0.001   0.226  0.00  0.00    -0.281 N 
ATOM     18  C   UNL     1      -3.124   0.734  -0.054  0.00  0.00    +0.302 C 
ATOM     19  C   UNL     1      -5.340   0.614   1.042  0.00  0.00    +0.137 C 
ATOM     20  C   UNL     1      -4.521  -1.415  -0.095  0.00  0.00    +0.137 C 
ATOM     21  C   UNL     1      -6.717   0.318   0.469  0.00  0.00    +0.179 C 
ATOM     22  C   UNL     1      -5.945  -1.632  -0.595  0.00  0.00    +0.179 C 
ATOM     25  H   UNL     1      -2.314  -0.870  -1.151  0.00  0.00    +0.150 HD
ENDBRANCH  14   6
ENDBRANCH  10  14
TORSDOF 6
