REMARK  Name = 75536320
REMARK  10 active torsions:
REMARK  status: ('A' for Active; 'I' for Inactive)
REMARK    1  A    between atoms: O_2  and  C_8
REMARK    2  A    between atoms: O_4  and  C_22
REMARK    3  A    between atoms: O_4  and  C_30
REMARK    4  A    between atoms: N_5  and  C_12
REMARK    5  A    between atoms: N_5  and  C_15
REMARK    6  A    between atoms: C_7  and  C_12
REMARK    7  A    between atoms: C_9  and  C_13
REMARK    8  A    between atoms: C_13  and  C_14
REMARK    9  A    between atoms: C_15  and  C_17
REMARK   10  A    between atoms: C_18  and  C_19
REMARK                            x       y       z     vdW  Elec       q    Type
REMARK                         _______ _______ _______ _____ _____    ______ ____
ROOT
ATOM      1  O   UNL     1       3.242  -0.353   0.813  0.00  0.00    -0.369 OA
ATOM      7  C   UNL     1       3.850   0.945   0.773  0.00  0.00    +0.161 C 
ATOM      8  C   UNL     1       5.336   0.854   0.402  0.00  0.00    +0.145 C 
ATOM      9  C   UNL     1       3.373  -1.122  -0.385  0.00  0.00    +0.125 C 
ATOM     10  C   UNL     1       5.574  -0.001  -0.839  0.00  0.00    +0.036 C 
ATOM     11  C   UNL     1       4.846  -1.338  -0.729  0.00  0.00    +0.034 C 
ENDROOT
BRANCH   8   2
ATOM      2  O   UNL     1       6.046   0.254   1.488  0.00  0.00    -0.389 OA
ATOM     32  H   UNL     1       6.990   0.248   1.255  0.00  0.00    +0.210 HD
ENDBRANCH   8   2
BRANCH   7  12
ATOM     12  C   UNL     1       3.066   1.893  -0.132  0.00  0.00    +0.115 C 
BRANCH  12   5
ATOM      5  N   UNL     1       1.671   1.963   0.275  0.00  0.00    -0.309 NA
ATOM     31  H   UNL     1       1.347   1.029   0.530  0.00  0.00    +0.122 HD
BRANCH   5  15
ATOM     15  C   UNL     1       0.836   2.469  -0.807  0.00  0.00    +0.116 C 
BRANCH  15  17
ATOM     17  C   UNL     1      -0.611   2.562  -0.402  0.00  0.00    -0.030 A 
ATOM     20  C   UNL     1      -1.582   1.860  -1.116  0.00  0.00    +0.050 A 
ATOM     21  C   UNL     1      -0.981   3.350   0.688  0.00  0.00    +0.005 A 
ATOM     22  C   UNL     1      -2.922   1.945  -0.740  0.00  0.00    +0.120 A 
ATOM     23  C   UNL     1      -2.321   3.436   1.064  0.00  0.00    +0.004 A 
ATOM     26  C   UNL     1      -3.292   2.733   0.350  0.00  0.00    +0.045 A 
BRANCH  22   4
ATOM      4  O   UNL     1      -3.869   1.260  -1.437  0.00  0.00    -0.495 OA
ATOM     30  C   UNL     1      -3.421   0.473  -2.540  0.00  0.00    +0.277 C 
ENDBRANCH  22   4
ENDBRANCH  15  17
ENDBRANCH   5  15
ENDBRANCH  12   5
ENDBRANCH   7  12
BRANCH   9  13
ATOM     13  C   UNL     1       2.669  -2.454  -0.153  0.00  0.00    +0.090 C 
BRANCH  13  14
ATOM      3  O   UNL     1      -0.775  -2.307  -1.206  0.00  0.00    -0.354 OA
ATOM      6  N   UNL     1       0.580  -2.497  -1.453  0.00  0.00    -0.083 NA
ATOM     14  C   UNL     1       1.174  -2.322  -0.270  0.00  0.00    +0.087 A 
ATOM     16  C   UNL     1       0.255  -2.024   0.751  0.00  0.00    +0.076 A 
ATOM     18  C   UNL     1      -0.955  -2.026   0.110  0.00  0.00    +0.167 A 
BRANCH  18  19
ATOM     19  C   UNL     1      -2.312  -1.806   0.518  0.00  0.00    +0.020 A 
ATOM     24  C   UNL     1      -2.590  -0.949   1.583  0.00  0.00    +0.011 A 
ATOM     25  C   UNL     1      -3.354  -2.450  -0.149  0.00  0.00    +0.011 A 
ATOM     27  C   UNL     1      -3.909  -0.735   1.981  0.00  0.00    +0.001 A 
ATOM     28  C   UNL     1      -4.674  -2.236   0.249  0.00  0.00    +0.001 A 
ATOM     29  C   UNL     1      -4.952  -1.379   1.314  0.00  0.00    +0.000 A 
ENDBRANCH  18  19
ENDBRANCH  13  14
ENDBRANCH   9  13
TORSDOF 9
