REMARK  Name = 45783464
REMARK  12 active torsions:
REMARK  status: ('A' for Active; 'I' for Inactive)
REMARK    1  A    between atoms: O_2  and  C_17
REMARK    2  A    between atoms: O_3  and  C_22
REMARK    3  A    between atoms: O_3  and  C_28
REMARK    4  A    between atoms: O_4  and  C_25
REMARK    5  A    between atoms: O_4  and  C_29
REMARK    6  A    between atoms: O_5  and  C_30
REMARK    7  A    between atoms: O_5  and  C_31
REMARK    8  A    between atoms: N_6  and  C_14
REMARK    9  A    between atoms: C_10  and  C_15
REMARK   10  A    between atoms: C_14  and  C_16
REMARK   11  A    between atoms: C_19  and  C_23
REMARK   12  A    between atoms: C_29  and  C_30
REMARK                            x       y       z     vdW  Elec       q    Type
REMARK                         _______ _______ _______ _____ _____    ______ ____
ROOT
ATOM      6  N   UNL     1      -3.530  -0.666   1.096  0.00  0.00    -0.287 NA
ATOM     10  C   UNL     1      -3.787   0.610   0.400  0.00  0.00    +0.146 C 
ATOM     11  C   UNL     1      -4.485   1.494   1.450  0.00  0.00    +0.030 C 
ATOM     12  C   UNL     1      -4.632   0.611   2.680  0.00  0.00    +0.017 C 
ATOM     13  C   UNL     1      -4.568  -0.795   2.119  0.00  0.00    +0.085 C 
ENDROOT
BRANCH  10  15
ATOM      1  O   UNL     1      -2.666   2.040  -1.235  0.00  0.00    -0.336 OA
ATOM      7  N   UNL     1      -1.289   1.127   0.277  0.00  0.00    -0.189 NA
ATOM      8  N   UNL     1      -1.381   2.498  -1.552  0.00  0.00    -0.054 NA
ATOM     15  C   UNL     1      -2.522   1.240  -0.146  0.00  0.00    +0.245 A 
ATOM     19  C   UNL     1      -0.625   1.916  -0.617  0.00  0.00    +0.221 A 
BRANCH  19  23
ATOM      9  N   UNL     1       1.327   2.910  -1.491  0.00  0.00    -0.252 NA
ATOM     23  C   UNL     1       0.796   2.104  -0.545  0.00  0.00    +0.115 A 
ATOM     24  C   UNL     1       1.535   1.480   0.446  0.00  0.00    +0.077 A 
ATOM     25  C   UNL     1       2.908   1.696   0.469  0.00  0.00    +0.124 A 
ATOM     26  C   UNL     1       2.665   3.098  -1.438  0.00  0.00    +0.115 A 
ATOM     27  C   UNL     1       3.492   2.519  -0.488  0.00  0.00    +0.065 A 
BRANCH  25   4
ATOM      4  O   UNL     1       3.677   1.106   1.423  0.00  0.00    -0.490 OA
BRANCH   4  29
ATOM     29  C   UNL     1       3.235  -0.154   1.926  0.00  0.00    +0.257 C 
BRANCH  29  30
ATOM     30  C   UNL     1       4.444  -0.981   2.322  0.00  0.00    +0.200 C 
BRANCH  30   5
ATOM      5  O   UNL     1       5.255  -1.195   1.174  0.00  0.00    -0.380 OA
ATOM     31  C   UNL     1       6.418  -1.948   1.492  0.00  0.00    +0.194 C 
ENDBRANCH  30   5
ENDBRANCH  29  30
ENDBRANCH   4  29
ENDBRANCH  25   4
ENDBRANCH  19  23
ENDBRANCH  10  15
BRANCH   6  14
ATOM     14  C   UNL     1      -3.499  -1.814   0.199  0.00  0.00    +0.124 C 
BRANCH  14  16
ATOM     16  C   UNL     1      -2.181  -1.929  -0.520  0.00  0.00    +0.008 A 
ATOM     17  C   UNL     1      -0.989  -2.057   0.193  0.00  0.00    +0.125 A 
ATOM     18  C   UNL     1      -2.160  -1.905  -1.915  0.00  0.00    +0.012 A 
ATOM     20  C   UNL     1       0.224  -2.162  -0.489  0.00  0.00    +0.091 A 
ATOM     21  C   UNL     1      -0.948  -2.010  -2.596  0.00  0.00    +0.046 A 
ATOM     22  C   UNL     1       0.244  -2.139  -1.883  0.00  0.00    +0.124 A 
BRANCH  17   2
ATOM      2  O   UNL     1      -0.992  -2.081   1.555  0.00  0.00    -0.506 OA
ATOM     32  H   UNL     1      -0.078  -2.163   1.876  0.00  0.00    +0.292 HD
ENDBRANCH  17   2
BRANCH  22   3
ATOM      3  O   UNL     1       1.427  -2.242  -2.548  0.00  0.00    -0.495 OA
ATOM     28  C   UNL     1       2.607  -2.370  -1.757  0.00  0.00    +0.277 C 
ENDBRANCH  22   3
ENDBRANCH  14  16
ENDBRANCH   6  14
TORSDOF 10
