REMARK  Name = 71694084
REMARK  7 active torsions:
REMARK  status: ('A' for Active; 'I' for Inactive)
REMARK    1  A    between atoms: O_3  and  C_18
REMARK    2  A    between atoms: N_4  and  C_7
REMARK    3  A    between atoms: N_4  and  C_12
REMARK    4  A    between atoms: C_7  and  C_10
REMARK    5  A    between atoms: C_10  and  C_11
REMARK    6  A    between atoms: C_12  and  C_13
REMARK    7  A    between atoms: C_15  and  C_18
REMARK                            x       y       z     vdW  Elec       q    Type
REMARK                         _______ _______ _______ _____ _____    ______ ____
ROOT
ATOM      1  O   UNL     1      -0.266   3.453  -0.946  0.00  0.00    -0.376 OA
ATOM      7  C   UNL     1      -0.245   1.590   0.100  0.00  0.00    +0.072 C 
ATOM      8  C   UNL     1      -0.855   2.149  -1.192  0.00  0.00    +0.184 C 
ATOM      9  C   UNL     1       0.556   2.898   0.115  0.00  0.00    +0.184 C 
ENDROOT
BRANCH   7   4
ATOM      4  N   UNL     1       0.660   0.492  -0.254  0.00  0.00    -0.302 NA
ATOM     21  H   UNL     1       0.203  -0.387  -0.491  0.00  0.00    +0.123 HD
BRANCH   4  12
ATOM     12  C   UNL     1       1.619   0.288   0.825  0.00  0.00    +0.117 C 
BRANCH  12  13
ATOM      6  N   UNL     1       5.235  -1.573  -0.576  0.00  0.00    -0.263 NA
ATOM     13  C   UNL     1       2.885  -0.364   0.334  0.00  0.00    -0.031 A 
ATOM     16  C   UNL     1       2.905  -1.725   0.053  0.00  0.00    +0.024 A 
ATOM     17  C   UNL     1       4.037   0.394   0.161  0.00  0.00    +0.024 A 
ATOM     19  C   UNL     1       4.095  -2.276  -0.396  0.00  0.00    +0.111 A 
ATOM     20  C   UNL     1       5.176  -0.252  -0.292  0.00  0.00    +0.111 A 
ENDBRANCH  12  13
ENDBRANCH   4  12
ENDBRANCH   7   4
BRANCH   7  10
ATOM     10  C   UNL     1      -1.152   1.264   1.258  0.00  0.00    +0.085 C 
BRANCH  10  11
ATOM      2  O   UNL     1      -3.014  -1.749   0.558  0.00  0.00    -0.357 OA
ATOM      5  N   UNL     1      -1.886  -1.078   1.015  0.00  0.00    -0.083 NA
ATOM     11  C   UNL     1      -2.168   0.218   0.857  0.00  0.00    +0.086 A 
ATOM     14  C   UNL     1      -3.446   0.424   0.309  0.00  0.00    +0.073 A 
ATOM     15  C   UNL     1      -3.935  -0.844   0.140  0.00  0.00    +0.163 A 
BRANCH  15  18
ATOM     18  C   UNL     1      -5.197  -1.385  -0.379  0.00  0.00    +0.232 C 
BRANCH  18   3
ATOM      3  O   UNL     1      -5.005  -1.925  -1.689  0.00  0.00    -0.387 OA
ATOM     22  H   UNL     1      -5.866  -2.268  -1.983  0.00  0.00    +0.210 HD
ENDBRANCH  18   3
ENDBRANCH  15  18
ENDBRANCH  10  11
ENDBRANCH   7  10
TORSDOF 7
