REMARK  Name = 75536420
REMARK  9 active torsions:
REMARK  status: ('A' for Active; 'I' for Inactive)
REMARK    1  A    between atoms: O_2  and  C_11
REMARK    2  A    between atoms: N_6  and  C_15
REMARK    3  A    between atoms: N_7  and  C_18
REMARK    4  A    between atoms: C_9  and  C_14
REMARK    5  A    between atoms: C_10  and  C_15
REMARK    6  A    between atoms: C_14  and  C_16
REMARK    7  A    between atoms: C_18  and  C_19
REMARK    8  A    between atoms: C_24  and  C_25
REMARK    9  A    between atoms: C_25  and  C_26
REMARK                            x       y       z     vdW  Elec       q    Type
REMARK                         _______ _______ _______ _____ _____    ______ ____
ROOT
ATOM      1  O   UNL     1       3.162  -0.854   0.740  0.00  0.00    -0.369 OA
ATOM      9  C   UNL     1       2.570  -2.017   0.156  0.00  0.00    +0.125 C 
ATOM     10  C   UNL     1       4.308  -0.341   0.048  0.00  0.00    +0.164 C 
ATOM     11  C   UNL     1       5.388  -1.417  -0.119  0.00  0.00    +0.145 C 
ATOM     12  C   UNL     1       3.583  -3.157   0.078  0.00  0.00    +0.034 C 
ATOM     13  C   UNL     1       4.829  -2.719  -0.687  0.00  0.00    +0.036 C 
ENDROOT
BRANCH  11   2
ATOM      2  O   UNL     1       5.952  -1.707   1.163  0.00  0.00    -0.389 OA
ATOM     32  H   UNL     1       6.664  -2.356   1.031  0.00  0.00    +0.210 HD
ENDBRANCH  11   2
BRANCH   9  14
ATOM     14  C   UNL     1       1.378  -2.408   1.021  0.00  0.00    +0.090 C 
BRANCH  14  16
ATOM      3  O   UNL     1      -1.160   0.150   0.970  0.00  0.00    -0.358 OA
ATOM      8  N   UNL     1       0.013  -0.408   1.461  0.00  0.00    -0.083 NA
ATOM     16  C   UNL     1       0.184  -1.530   0.756  0.00  0.00    +0.086 A 
ATOM     17  C   UNL     1      -0.840  -1.730  -0.186  0.00  0.00    +0.072 A 
ATOM     19  C   UNL     1      -1.659  -0.646  -0.011  0.00  0.00    +0.151 A 
BRANCH  19  18
ATOM     18  C   UNL     1      -2.906  -0.202  -0.644  0.00  0.00    +0.161 C 
BRANCH  18   7
ATOM      4  O   UNL     1      -6.713  -1.875  -0.074  0.00  0.00    -0.377 OA
ATOM      7  N   UNL     1      -3.991  -1.173  -0.525  0.00  0.00    -0.291 NA
ATOM     20  C   UNL     1      -5.027  -0.926  -1.538  0.00  0.00    +0.113 C 
ATOM     21  C   UNL     1      -4.583  -1.134   0.819  0.00  0.00    +0.113 C 
ATOM     22  C   UNL     1      -6.154  -1.944  -1.387  0.00  0.00    +0.175 C 
ATOM     23  C   UNL     1      -5.719  -2.147   0.915  0.00  0.00    +0.175 C 
ENDBRANCH  18   7
ENDBRANCH  19  18
ENDBRANCH  14  16
ENDBRANCH   9  14
BRANCH  10  15
ATOM     15  C   UNL     1       3.907   0.311  -1.274  0.00  0.00    +0.138 C 
BRANCH  15   6
ATOM      5  O   UNL     1       1.239   1.062  -2.050  0.00  0.00    -0.275 OA
ATOM      6  N   UNL     1       3.272   1.575  -1.050  0.00  0.00    -0.312 N 
ATOM     24  C   UNL     1       1.970   1.855  -1.462  0.00  0.00    +0.217 C 
ATOM     33  H   UNL     1       3.822   2.303  -0.603  0.00  0.00    +0.149 HD
BRANCH  24  25
ATOM     25  C   UNL     1       1.549   3.265  -1.093  0.00  0.00    +0.130 C 
BRANCH  25  26
ATOM     26  C   UNL     1       0.351   3.310  -0.182  0.00  0.00    -0.039 A 
ATOM     27  C   UNL     1      -0.934   3.366  -0.722  0.00  0.00    +0.004 A 
ATOM     28  C   UNL     1       0.526   3.297   1.202  0.00  0.00    +0.004 A 
ATOM     29  C   UNL     1      -2.044   3.408   0.122  0.00  0.00    +0.000 A 
ATOM     30  C   UNL     1      -0.584   3.339   2.046  0.00  0.00    +0.000 A 
ATOM     31  C   UNL     1      -1.869   3.395   1.506  0.00  0.00    +0.000 A 
ENDBRANCH  25  26
ENDBRANCH  24  25
ENDBRANCH  15   6
ENDBRANCH  10  15
TORSDOF 9
