REMARK  Name = 11865808
REMARK  10 active torsions:
REMARK  status: ('A' for Active; 'I' for Inactive)
REMARK    1  A    between atoms: O_2  and  C_21
REMARK    2  A    between atoms: O_2  and  C_29
REMARK    3  A    between atoms: N_8  and  C_12
REMARK    4  A    between atoms: N_9  and  C_28
REMARK    5  A    between atoms: N_10  and  C_25
REMARK    6  A    between atoms: C_11  and  C_15
REMARK    7  A    between atoms: C_16  and  C_21
REMARK    8  A    between atoms: C_20  and  C_22
REMARK    9  A    between atoms: C_25  and  C_30
REMARK   10  A    between atoms: C_25  and  C_31
REMARK                            x       y       z     vdW  Elec       q    Type
REMARK                         _______ _______ _______ _____ _____    ______ ____
ROOT
ATOM      3  O   UNL     1       1.548  -1.388  -1.651  0.00  0.00    -0.268 OA
ATOM      6  N   UNL     1       0.089  -1.343   0.135  0.00  0.00    -0.283 N 
ATOM     11  C   UNL     1      -0.223   0.079   0.025  0.00  0.00    +0.183 C 
ATOM     12  C   UNL     1      -1.445   0.286   0.920  0.00  0.00    +0.105 C 
ATOM     13  C   UNL     1      -1.296  -0.808   1.980  0.00  0.00    +0.043 C 
ATOM     14  C   UNL     1      -0.676  -1.969   1.214  0.00  0.00    +0.111 C 
ATOM     20  C   UNL     1       0.937  -1.991  -0.768  0.00  0.00    +0.264 C 
ENDROOT
BRANCH  11  15
ATOM      1  O   UNL     1       1.678   0.337   1.436  0.00  0.00    -0.273 OA
ATOM      7  N   UNL     1       1.208   2.065  -0.029  0.00  0.00    -0.286 N 
ATOM     15  C   UNL     1       0.974   0.829   0.552  0.00  0.00    +0.239 C 
ATOM     16  C   UNL     1       2.221   2.986   0.470  0.00  0.00    +0.185 C 
ATOM     17  C   UNL     1       0.402   2.687  -1.077  0.00  0.00    +0.109 C 
ATOM     18  C   UNL     1       1.838   4.339  -0.119  0.00  0.00    +0.035 C 
ATOM     19  C   UNL     1       1.136   3.973  -1.424  0.00  0.00    +0.021 C 
BRANCH  16  21
ATOM      4  O   UNL     1       3.689   1.519  -0.751  0.00  0.00    -0.249 OA
ATOM     21  C   UNL     1       3.545   2.509  -0.047  0.00  0.00    +0.328 C 
BRANCH  21   2
ATOM      2  O   UNL     1       4.532   3.343   0.389  0.00  0.00    -0.467 OA
ATOM     29  C   UNL     1       5.856   3.002  -0.033  0.00  0.00    +0.280 C 
ENDBRANCH  21   2
ENDBRANCH  16  21
ENDBRANCH  11  15
BRANCH  12   8
ATOM      5  O   UNL     1      -4.008   1.474   1.510  0.00  0.00    -0.253 OA
ATOM      8  N   UNL     1      -2.672   0.123   0.176  0.00  0.00    -0.294 N 
ATOM     10  N   UNL     1      -4.891   0.410  -0.353  0.00  0.00    -0.297 N 
ATOM     23  C   UNL     1      -3.869   0.737   0.535  0.00  0.00    +0.300 C 
ATOM     32  H   UNL     1      -2.681  -0.524  -0.607  0.00  0.00    +0.151 HD
ATOM     33  H   UNL     1      -4.660  -0.144  -1.172  0.00  0.00    +0.150 HD
BRANCH  10  25
ATOM     25  C   UNL     1      -6.238   0.912  -0.215  0.00  0.00    +0.068 C 
ATOM     30  C   UNL     1      -7.239  -0.110  -0.738  0.00  0.00    +0.027 C 
ATOM     31  C   UNL     1      -6.387   2.248  -0.931  0.00  0.00    +0.027 C 
ENDBRANCH  10  25
ENDBRANCH  12   8
BRANCH  20  22
ATOM      9  N   UNL     1       2.047  -4.020   0.186  0.00  0.00    -0.346 N 
ATOM     22  C   UNL     1       1.092  -3.430  -0.597  0.00  0.00    +0.104 A 
ATOM     24  C   UNL     1       0.336  -4.426  -1.169  0.00  0.00    +0.032 A 
ATOM     26  C   UNL     1       1.913  -5.382   0.123  0.00  0.00    +0.086 A 
ATOM     27  C   UNL     1       0.855  -5.663  -0.714  0.00  0.00    +0.020 A 
ATOM     28  C   UNL     1       3.051  -3.329   0.966  0.00  0.00    +0.149 C 
ENDBRANCH  20  22
TORSDOF 6
