REMARK  Name = 38026953
REMARK  10 active torsions:
REMARK  status: ('A' for Active; 'I' for Inactive)
REMARK    1  A    between atoms: N_6  and  C_16
REMARK    2  A    between atoms: C_8  and  C_12
REMARK    3  A    between atoms: C_9  and  C_16
REMARK    4  A    between atoms: C_11  and  C_15
REMARK    5  A    between atoms: C_12  and  C_17
REMARK    6  A    between atoms: C_12  and  C_18
REMARK    7  A    between atoms: C_13  and  C_19
REMARK    8  A    between atoms: C_15  and  C_20
REMARK    9  A    between atoms: C_25  and  C_27
REMARK   10  A    between atoms: C_26  and  C_28
REMARK                            x       y       z     vdW  Elec       q    Type
REMARK                         _______ _______ _______ _____ _____    ______ ____
ROOT
ATOM      8  C   UNL     1      -2.611  -1.772  -0.571  0.00  0.00    +0.000 C 
ATOM      9  C   UNL     1      -3.629  -1.494   0.563  0.00  0.00    +0.032 C 
ATOM     10  C   UNL     1      -1.617  -2.862  -0.144  0.00  0.00    +0.012 C 
ATOM     11  C   UNL     1      -0.838  -2.475   1.127  0.00  0.00    +0.023 C 
ATOM     13  C   UNL     1      -1.754  -1.935   2.206  0.00  0.00    -0.073 C 
ATOM     14  C   UNL     1      -3.003  -1.513   1.937  0.00  0.00    -0.022 C 
ATOM     19  C   UNL     1      -1.218  -1.932   3.611  0.00  0.00    +0.039 C 
ENDROOT
BRANCH   8  12
ATOM     12  C   UNL     1      -3.307  -2.185  -1.872  0.00  0.00    -0.013 C 
ATOM     17  C   UNL     1      -2.419  -1.874  -3.073  0.00  0.00    +0.007 C 
ATOM     18  C   UNL     1      -3.668  -3.666  -1.835  0.00  0.00    +0.007 C 
ENDBRANCH   8  12
BRANCH  11  15
ATOM     15  C   UNL     1       0.281  -1.478   0.807  0.00  0.00    +0.103 C 
BRANCH  15  20
ATOM      2  O   UNL     1       1.343  -3.404  -0.075  0.00  0.00    -0.276 OA
ATOM      4  O   UNL     1       6.208   1.829  -0.274  0.00  0.00    -0.276 OA
ATOM      5  N   UNL     1       2.516  -1.406  -0.239  0.00  0.00    -0.298 N 
ATOM      7  N   UNL     1       5.063  -0.179  -0.050  0.00  0.00    -0.299 N 
ATOM     20  C   UNL     1       1.422  -2.189   0.125  0.00  0.00    +0.216 C 
ATOM     21  C   UNL     1       3.668  -2.021  -0.903  0.00  0.00    +0.126 C 
ATOM     22  C   UNL     1       2.610   0.052  -0.083  0.00  0.00    +0.126 C 
ATOM     23  C   UNL     1       4.970  -1.636  -0.206  0.00  0.00    +0.126 C 
ATOM     24  C   UNL     1       3.912   0.437   0.614  0.00  0.00    +0.126 C 
ATOM     26  C   UNL     1       6.156   0.605  -0.416  0.00  0.00    +0.213 C 
ATOM     28  C   UNL     1       7.331  -0.118  -1.025  0.00  0.00    +0.109 C 
ENDBRANCH  15  20
ENDBRANCH  11  15
BRANCH   9  16
ATOM     16  C   UNL     1      -4.346  -0.157   0.347  0.00  0.00    +0.112 C 
BRANCH  16   6
ATOM      3  O   UNL     1      -3.734   1.775  -1.687  0.00  0.00    -0.270 OA
ATOM      6  N   UNL     1      -3.429   0.934   0.455  0.00  0.00    -0.311 N 
ATOM     25  C   UNL     1      -3.190   1.830  -0.587  0.00  0.00    +0.244 C 
ATOM     34  H   UNL     1      -3.010   1.099   1.364  0.00  0.00    +0.149 HD
BRANCH  25  27
ATOM      1  F   UNL     1       0.758   3.469   1.731  0.00  0.00    -0.205 F 
ATOM     27  C   UNL     1      -2.187   2.894  -0.326  0.00  0.00    +0.039 A 
ATOM     29  C   UNL     1      -1.165   2.678   0.598  0.00  0.00    +0.051 A 
ATOM     30  C   UNL     1      -2.268   4.111  -1.004  0.00  0.00    +0.013 A 
ATOM     31  C   UNL     1      -0.223   3.677   0.844  0.00  0.00    +0.124 A 
ATOM     32  C   UNL     1      -1.326   5.110  -0.759  0.00  0.00    +0.004 A 
ATOM     33  C   UNL     1      -0.304   4.893   0.165  0.00  0.00    +0.038 A 
ENDBRANCH  25  27
ENDBRANCH  16   6
ENDBRANCH   9  16
TORSDOF 6
