REMARK  Name = 11883371
REMARK  9 active torsions:
REMARK  status: ('A' for Active; 'I' for Inactive)
REMARK    1  A    between atoms: O_4  and  C_14
REMARK    2  A    between atoms: O_4  and  C_18
REMARK    3  A    between atoms: O_7  and  C_26
REMARK    4  A    between atoms: O_7  and  C_29
REMARK    5  A    between atoms: O_8  and  C_27
REMARK    6  A    between atoms: O_8  and  C_30
REMARK    7  A    between atoms: N_9  and  C_13
REMARK    8  A    between atoms: N_10  and  C_21
REMARK    9  A    between atoms: C_17  and  C_19
REMARK                            x       y       z     vdW  Elec       q    Type
REMARK                         _______ _______ _______ _____ _____    ______ ____
ROOT
ATOM      2  O   UNL     1      -1.807   0.703  -0.914  0.00  0.00    -0.368 OA
ATOM      3  O   UNL     1      -1.915  -2.340  -1.277  0.00  0.00    -0.368 OA
ATOM     11  C   UNL     1      -2.608  -1.461  -0.367  0.00  0.00    +0.173 C 
ATOM     12  C   UNL     1      -1.629  -0.372   0.024  0.00  0.00    +0.192 C 
ATOM     13  C   UNL     1      -3.704  -0.719  -1.095  0.00  0.00    +0.130 C 
ATOM     14  C   UNL     1      -0.294  -1.055  -0.155  0.00  0.00    +0.235 C 
ATOM     15  C   UNL     1      -2.941   0.422  -1.748  0.00  0.00    +0.185 C 
ATOM     16  C   UNL     1      -0.542  -1.931  -1.362  0.00  0.00    +0.207 C 
ENDROOT
BRANCH  13   9
ATOM      5  O   UNL     1      -6.396  -0.164  -1.727  0.00  0.00    -0.270 OA
ATOM      9  N   UNL     1      -4.701  -0.225  -0.177  0.00  0.00    -0.303 N 
ATOM     17  C   UNL     1      -6.016   0.024  -0.570  0.00  0.00    +0.251 C 
ATOM     31  H   UNL     1      -4.405  -0.023   0.772  0.00  0.00    +0.149 HD
BRANCH  17  19
ATOM      1  S   UNL     1      -8.557   0.824   0.097  0.00  0.00    -0.092 S 
ATOM     19  C   UNL     1      -6.923   0.492   0.487  0.00  0.00    +0.074 A 
ATOM     20  C   UNL     1      -6.654   0.720   1.819  0.00  0.00    +0.021 A 
ATOM     22  C   UNL     1      -7.803   1.173   2.528  0.00  0.00    +0.008 A 
ATOM     23  C   UNL     1      -8.908   1.274   1.711  0.00  0.00    +0.046 A 
ENDBRANCH  17  19
ENDBRANCH  13   9
BRANCH  14   4
ATOM      4  O   UNL     1       0.774  -0.158  -0.361  0.00  0.00    -0.442 OA
BRANCH   4  18
ATOM      6  O   UNL     1       2.231  -1.683   0.522  0.00  0.00    -0.226 OA
ATOM     10  N   UNL     1       2.955   0.406  -0.246  0.00  0.00    -0.251 N 
ATOM     18  C   UNL     1       2.029  -0.583   0.023  0.00  0.00    +0.405 C 
ATOM     32  H   UNL     1       2.591   1.258  -0.667  0.00  0.00    +0.158 HD
BRANCH  10  21
ATOM     21  C   UNL     1       4.348   0.382  -0.010  0.00  0.00    +0.043 A 
ATOM     24  C   UNL     1       5.133   1.484  -0.350  0.00  0.00    +0.069 A 
ATOM     25  C   UNL     1       4.939  -0.744   0.564  0.00  0.00    +0.069 A 
ATOM     26  C   UNL     1       6.314  -0.767   0.798  0.00  0.00    +0.125 A 
ATOM     27  C   UNL     1       6.508   1.461  -0.116  0.00  0.00    +0.125 A 
ATOM     28  C   UNL     1       7.098   0.335   0.458  0.00  0.00    +0.091 A 
BRANCH  26   7
ATOM      7  O   UNL     1       6.891  -1.866   1.357  0.00  0.00    -0.495 OA
ATOM     29  C   UNL     1       8.301  -1.822   1.568  0.00  0.00    +0.277 C 
ENDBRANCH  26   7
BRANCH  27   8
ATOM      8  O   UNL     1       7.273   2.536  -0.448  0.00  0.00    -0.495 OA
ATOM     30  C   UNL     1       6.605   3.654  -1.031  0.00  0.00    +0.277 C 
ENDBRANCH  27   8
ENDBRANCH  10  21
ENDBRANCH   4  18
ENDBRANCH  14   4
TORSDOF 7
