REMARK  Name = 75536937
REMARK  7 active torsions:
REMARK  status: ('A' for Active; 'I' for Inactive)
REMARK    1  A    between atoms: O_2  and  C_6
REMARK    2  A    between atoms: O_2  and  C_17
REMARK    3  A    between atoms: N_3  and  C_8
REMARK    4  A    between atoms: N_4  and  C_14
REMARK    5  A    between atoms: N_4  and  C_18
REMARK    6  A    between atoms: N_4  and  C_19
REMARK    7  A    between atoms: C_8  and  C_11
REMARK                            x       y       z     vdW  Elec       q    Type
REMARK                         _______ _______ _______ _____ _____    ______ ____
ROOT
ATOM      8  C   UNL     1       0.482  -1.342   0.594  0.00  0.00    +0.119 C 
ENDROOT
BRANCH   8   3
ATOM      1  O   UNL     1       3.232   2.255   0.350  0.00  0.00    -0.376 OA
ATOM      3  N   UNL     1       1.445  -0.298   0.241  0.00  0.00    -0.293 NA
ATOM      5  C   UNL     1       2.727  -0.901  -0.139  0.00  0.00    +0.118 C 
ATOM      6  C   UNL     1       3.967   0.007  -0.165  0.00  0.00    +0.157 C 
ATOM      7  C   UNL     1       1.543   0.717   1.292  0.00  0.00    +0.113 C 
ATOM      9  C   UNL     1       3.706   1.411  -0.693  0.00  0.00    +0.192 C 
ATOM     10  C   UNL     1       1.860   2.079   0.673  0.00  0.00    +0.175 C 
BRANCH   6   2
ATOM      2  O   UNL     1       4.948  -0.605  -1.003  0.00  0.00    -0.376 OA
ATOM     17  C   UNL     1       5.643  -1.634  -0.316  0.00  0.00    +0.194 C 
ENDBRANCH   6   2
ENDBRANCH   8   3
BRANCH   8  11
ATOM     11  C   UNL     1      -0.936  -0.908   0.336  0.00  0.00    -0.033 A 
ATOM     12  C   UNL     1      -1.860  -0.885   1.380  0.00  0.00    +0.007 A 
ATOM     13  C   UNL     1      -1.326  -0.528  -0.949  0.00  0.00    +0.007 A 
ATOM     14  C   UNL     1      -3.563  -0.103  -0.144  0.00  0.00    +0.029 A 
ATOM     15  C   UNL     1      -3.174  -0.483   1.141  0.00  0.00    +0.023 A 
ATOM     16  C   UNL     1      -2.639  -0.126  -1.188  0.00  0.00    +0.023 A 
BRANCH  14   4
ATOM      4  N   UNL     1      -4.892   0.305  -0.386  0.00  0.00    -0.336 N 
ATOM     18  C   UNL     1      -5.859   0.333   0.692  0.00  0.00    +0.129 C 
ATOM     19  C   UNL     1      -5.304   0.708  -1.716  0.00  0.00    +0.129 C 
ENDBRANCH  14   4
ENDBRANCH   8  11
TORSDOF 4
