REMARK  Name = 45361519
REMARK  11 active torsions:
REMARK  status: ('A' for Active; 'I' for Inactive)
REMARK    1  A    between atoms: O_2  and  C_10
REMARK    2  A    between atoms: N_5  and  C_14
REMARK    3  A    between atoms: N_6  and  C_24
REMARK    4  A    between atoms: C_7  and  C_17
REMARK    5  A    between atoms: C_9  and  C_19
REMARK    6  A    between atoms: C_13  and  C_18
REMARK    7  A    between atoms: C_18  and  C_20
REMARK    8  A    between atoms: C_18  and  C_21
REMARK    9  A    between atoms: C_22  and  C_23
REMARK   10  A    between atoms: C_23  and  C_25
REMARK   11  A    between atoms: C_24  and  C_26
REMARK                            x       y       z     vdW  Elec       q    Type
REMARK                         _______ _______ _______ _____ _____    ______ ____
ROOT
ATOM      7  C   UNL     1      -1.056   0.575  -2.027  0.00  0.00    -0.027 C 
ATOM      8  C   UNL     1      -0.479   1.356  -0.800  0.00  0.00    +0.028 C 
ATOM      9  C   UNL     1       0.715   0.570  -0.148  0.00  0.00    +0.012 C 
ATOM     10  C   UNL     1      -1.611   1.784   0.178  0.00  0.00    +0.122 C 
ATOM     11  C   UNL     1      -2.151   1.425  -2.712  0.00  0.00    +0.007 C 
ATOM     12  C   UNL     1       0.075   0.346  -3.056  0.00  0.00    +0.009 C 
ATOM     13  C   UNL     1      -2.755   2.545  -0.533  0.00  0.00    +0.029 C 
ATOM     14  C   UNL     1       1.813   0.281  -1.210  0.00  0.00    +0.076 C 
ATOM     15  C   UNL     1      -3.280   1.813  -1.767  0.00  0.00    +0.007 C 
ATOM     16  C   UNL     1       1.274  -0.389  -2.474  0.00  0.00    +0.023 C 
ATOM     17  C   UNL     1      -1.665  -0.793  -1.627  0.00  0.00    +0.011 C 
ATOM     19  C   UNL     1       1.349   1.297   1.050  0.00  0.00    +0.010 C 
ENDROOT
BRANCH  14   5
ATOM      4  O   UNL     1       4.593   0.355  -1.949  0.00  0.00    -0.275 OA
ATOM      5  N   UNL     1       2.875  -0.543  -0.672  0.00  0.00    -0.312 N 
ATOM     22  C   UNL     1       4.190  -0.431  -1.095  0.00  0.00    +0.218 C 
ATOM     37  H   UNL     1       2.619  -1.266  -0.006  0.00  0.00    +0.149 HD
BRANCH  22  23
ATOM     23  C   UNL     1       5.091  -1.406  -0.363  0.00  0.00    +0.130 C 
BRANCH  23  25
ATOM     25  C   UNL     1       6.188  -0.734   0.419  0.00  0.00    -0.039 A 
ATOM     27  C   UNL     1       7.420  -0.479  -0.185  0.00  0.00    +0.004 A 
ATOM     28  C   UNL     1       5.974  -0.365   1.747  0.00  0.00    +0.004 A 
ATOM     31  C   UNL     1       8.436   0.145   0.539  0.00  0.00    +0.000 A 
ATOM     32  C   UNL     1       6.990   0.258   2.471  0.00  0.00    +0.000 A 
ATOM     33  C   UNL     1       8.221   0.513   1.867  0.00  0.00    +0.000 A 
ENDBRANCH  23  25
ENDBRANCH  22  23
ENDBRANCH  14   5
BRANCH  10   2
ATOM      2  O   UNL     1      -1.080   2.672   1.163  0.00  0.00    -0.391 OA
ATOM     38  H   UNL     1      -0.706   3.443   0.703  0.00  0.00    +0.210 HD
ENDBRANCH  10   2
BRANCH  13  18
ATOM     18  C   UNL     1      -3.918   2.843   0.421  0.00  0.00    +0.077 C 
ATOM     20  C   UNL     1      -3.601   4.069   1.270  0.00  0.00    +0.017 C 
BRANCH  18  21
ATOM      3  O   UNL     1      -3.678   1.453   2.389  0.00  0.00    -0.276 OA
ATOM      6  N   UNL     1      -5.105   0.749   0.702  0.00  0.00    -0.311 N 
ATOM     21  C   UNL     1      -4.203   1.623   1.291  0.00  0.00    +0.216 C 
ATOM     39  H   UNL     1      -5.520   0.982  -0.195  0.00  0.00    +0.149 HD
BRANCH   6  24
ATOM     24  C   UNL     1      -5.529  -0.479   1.334  0.00  0.00    +0.139 C 
BRANCH  24  26
ATOM      1  F   UNL     1      -2.198  -4.810  -0.026  0.00  0.00    -0.205 F 
ATOM     26  C   UNL     1      -4.641  -1.634   0.971  0.00  0.00    -0.030 A 
ATOM     29  C   UNL     1      -4.934  -2.415  -0.146  0.00  0.00    +0.008 A 
ATOM     30  C   UNL     1      -3.523  -1.926   1.752  0.00  0.00    +0.008 A 
ATOM     34  C   UNL     1      -4.109  -3.488  -0.483  0.00  0.00    +0.038 A 
ATOM     35  C   UNL     1      -2.698  -2.999   1.416  0.00  0.00    +0.038 A 
ATOM     36  C   UNL     1      -2.991  -3.780   0.298  0.00  0.00    +0.123 A 
ENDBRANCH  24  26
ENDBRANCH   6  24
ENDBRANCH  18  21
ENDBRANCH  13  18
TORSDOF 8
