REMARK  Name = 28960252
REMARK  8 active torsions:
REMARK  status: ('A' for Active; 'I' for Inactive)
REMARK    1  A    between atoms: O_3  and  C_11
REMARK    2  A    between atoms: O_4  and  C_21
REMARK    3  A    between atoms: O_4  and  C_24
REMARK    4  A    between atoms: N_7  and  C_10
REMARK    5  A    between atoms: N_8  and  C_12
REMARK    6  A    between atoms: N_9  and  C_23
REMARK    7  A    between atoms: C_20  and  C_21
REMARK    8  A    between atoms: C_23  and  C_25
REMARK                            x       y       z     vdW  Elec       q    Type
REMARK                         _______ _______ _______ _____ _____    ______ ____
ROOT
ATOM      1  O   UNL     1       0.651  -2.118  -1.623  0.00  0.00    -0.342 OA
ATOM      2  O   UNL     1       0.965  -4.019  -0.332  0.00  0.00    -0.347 OA
ATOM     10  C   UNL     1      -0.130  -2.103   0.658  0.00  0.00    +0.143 C 
ATOM     11  C   UNL     1       1.230  -1.548   1.141  0.00  0.00    +0.159 C 
ATOM     12  C   UNL     1       2.203  -1.219  -0.012  0.00  0.00    +0.136 C 
ATOM     13  C   UNL     1       0.052  -2.946  -0.617  0.00  0.00    +0.270 C 
ATOM     14  C   UNL     1       2.029  -2.141  -1.237  0.00  0.00    +0.170 C 
ATOM     15  C   UNL     1       2.206  -3.617  -0.933  0.00  0.00    +0.196 C 
ENDROOT
BRANCH  12   8
ATOM      6  O   UNL     1       3.572   1.071   1.087  0.00  0.00    -0.253 OA
ATOM      8  N   UNL     1       2.051   0.163  -0.414  0.00  0.00    -0.291 N 
ATOM      9  N   UNL     1       2.419   2.429  -0.400  0.00  0.00    -0.296 N 
ATOM     22  C   UNL     1       2.756   1.207   0.176  0.00  0.00    +0.300 C 
ATOM     27  H   UNL     1       1.342   0.389  -1.105  0.00  0.00    +0.151 HD
ATOM     29  H   UNL     1       1.749   2.441  -1.163  0.00  0.00    +0.151 HD
BRANCH   9  23
ATOM     23  C   UNL     1       3.003   3.680   0.022  0.00  0.00    +0.132 C 
BRANCH  23  25
ATOM     25  C   UNL     1       4.232   3.941  -0.783  0.00  0.00    -0.016 C 
ATOM     26  C   UNL     1       5.449   4.108  -0.253  0.00  0.00    +0.005 C 
ENDBRANCH  23  25
ENDBRANCH   9  23
ENDBRANCH  12   8
BRANCH  10   7
ATOM      7  N   UNL     1      -1.059  -1.003   0.396  0.00  0.00    -0.293 NA
ATOM     16  C   UNL     1      -2.156  -1.452  -0.472  0.00  0.00    +0.086 C 
ATOM     17  C   UNL     1      -1.573  -0.452   1.657  0.00  0.00    +0.086 C 
ATOM     18  C   UNL     1      -3.107  -0.300  -0.801  0.00  0.00    +0.030 C 
ATOM     19  C   UNL     1      -2.504   0.735   1.403  0.00  0.00    +0.030 C 
ATOM     20  C   UNL     1      -3.651   0.349   0.470  0.00  0.00    +0.100 C 
BRANCH  20  21
ATOM      5  O   UNL     1      -4.190   2.694   0.530  0.00  0.00    -0.251 OA
ATOM     21  C   UNL     1      -4.451   1.568   0.128  0.00  0.00    +0.310 C 
BRANCH  21   4
ATOM      4  O   UNL     1      -5.489   1.218  -0.684  0.00  0.00    -0.468 OA
ATOM     24  C   UNL     1      -6.340   2.294  -1.091  0.00  0.00    +0.280 C 
ENDBRANCH  21   4
ENDBRANCH  20  21
ENDBRANCH  10   7
BRANCH  11   3
ATOM      3  O   UNL     1       1.832  -2.539   1.984  0.00  0.00    -0.388 OA
ATOM     28  H   UNL     1       2.659  -2.165   2.332  0.00  0.00    +0.210 HD
ENDBRANCH  11   3
TORSDOF 7
