REMARK  Name = 51137450
REMARK  8 active torsions:
REMARK  status: ('A' for Active; 'I' for Inactive)
REMARK    1  A    between atoms: O_2  and  C_22
REMARK    2  A    between atoms: O_2  and  C_28
REMARK    3  A    between atoms: O_3  and  C_24
REMARK    4  A    between atoms: N_5  and  C_12
REMARK    5  A    between atoms: C_8  and  C_13
REMARK    6  A    between atoms: C_12  and  C_14
REMARK    7  A    between atoms: C_17  and  C_20
REMARK    8  A    between atoms: C_21  and  C_24
REMARK                            x       y       z     vdW  Elec       q    Type
REMARK                         _______ _______ _______ _____ _____    ______ ____
ROOT
ATOM      5  N   UNL     1      -2.094   2.509   0.261  0.00  0.00    -0.297 NA
ATOM      8  C   UNL     1       0.136   2.122   0.878  0.00  0.00    +0.092 C 
ATOM      9  C   UNL     1      -0.142   3.636   0.873  0.00  0.00    +0.029 C 
ATOM     10  C   UNL     1      -1.035   1.510   0.098  0.00  0.00    +0.097 C 
ATOM     11  C   UNL     1      -1.428   3.798   0.072  0.00  0.00    +0.085 C 
ENDROOT
BRANCH   8  13
ATOM      1  O   UNL     1       2.047   0.593   0.837  0.00  0.00    -0.420 OA
ATOM      6  N   UNL     1       2.220   2.307  -0.590  0.00  0.00    -0.112 NA
ATOM      7  N   UNL     1       3.356   1.530  -0.717  0.00  0.00    -0.107 NA
ATOM     13  C   UNL     1       1.484   1.722   0.327  0.00  0.00    +0.222 A 
ATOM     17  C   UNL     1       3.212   0.542   0.135  0.00  0.00    +0.252 A 
BRANCH  17  20
ATOM     20  C   UNL     1       4.076  -0.563   0.433  0.00  0.00    +0.080 A 
ATOM     22  C   UNL     1       4.919  -1.096  -0.542  0.00  0.00    +0.132 A 
ATOM     23  C   UNL     1       4.066  -1.107   1.718  0.00  0.00    +0.017 A 
ATOM     25  C   UNL     1       5.751  -2.172  -0.233  0.00  0.00    +0.046 A 
ATOM     26  C   UNL     1       4.897  -2.183   2.027  0.00  0.00    +0.001 A 
ATOM     27  C   UNL     1       5.740  -2.715   1.052  0.00  0.00    +0.004 A 
BRANCH  22   2
ATOM      2  O   UNL     1       4.950  -0.586  -1.807  0.00  0.00    -0.494 OA
ATOM     28  C   UNL     1       5.846  -1.200  -2.730  0.00  0.00    +0.277 C 
ENDBRANCH  22   2
ENDBRANCH  17  20
ENDBRANCH   8  13
BRANCH   5  12
ATOM     12  C   UNL     1      -3.193   2.311  -0.672  0.00  0.00    +0.119 C 
BRANCH  12  14
ATOM     14  C   UNL     1      -3.869   0.981  -0.468  0.00  0.00    -0.033 A 
ATOM     15  C   UNL     1      -4.435   0.669   0.769  0.00  0.00    +0.006 A 
ATOM     16  C   UNL     1      -3.930   0.062  -1.515  0.00  0.00    +0.006 A 
ATOM     18  C   UNL     1      -5.061  -0.563   0.958  0.00  0.00    +0.015 A 
ATOM     19  C   UNL     1      -4.557  -1.170  -1.326  0.00  0.00    +0.015 A 
ATOM     21  C   UNL     1      -5.122  -1.482  -0.089  0.00  0.00    +0.059 A 
BRANCH  21  24
ATOM      4  O   UNL     1      -6.309  -3.146   1.156  0.00  0.00    -0.245 OA
ATOM     24  C   UNL     1      -5.777  -2.766   0.108  0.00  0.00    +0.337 C 
BRANCH  24   3
ATOM      3  O   UNL     1      -5.748  -3.542  -1.011  0.00  0.00    -0.477 OA
ATOM     29  H   UNL     1      -6.191  -4.405  -0.868  0.00  0.00    +0.295 HD
ENDBRANCH  24   3
ENDBRANCH  21  24
ENDBRANCH  12  14
ENDBRANCH   5  12
TORSDOF 7
