REMARK  Name = 45784359
REMARK  7 active torsions:
REMARK  status: ('A' for Active; 'I' for Inactive)
REMARK    1  A    between atoms: O_5  and  C_27
REMARK    2  A    between atoms: O_5  and  C_29
REMARK    3  A    between atoms: N_7  and  C_13
REMARK    4  A    between atoms: C_9  and  C_14
REMARK    5  A    between atoms: C_13  and  C_15
REMARK    6  A    between atoms: C_20  and  C_27
REMARK    7  A    between atoms: C_24  and  C_28
REMARK                            x       y       z     vdW  Elec       q    Type
REMARK                         _______ _______ _______ _____ _____    ______ ____
ROOT
ATOM      7  N   UNL     1      -1.116  -0.755  -0.299  0.00  0.00    -0.297 NA
ATOM      9  C   UNL     1       0.921  -1.757   0.292  0.00  0.00    +0.090 C 
ATOM     10  C   UNL     1       0.280  -1.119   1.537  0.00  0.00    +0.029 C 
ATOM     11  C   UNL     1       0.167  -1.137  -0.893  0.00  0.00    +0.097 C 
ATOM     12  C   UNL     1      -0.771  -0.161   0.993  0.00  0.00    +0.085 C 
ENDROOT
BRANCH   9  14
ATOM      4  O   UNL     1       2.871  -0.303   0.150  0.00  0.00    -0.439 OA
ATOM      8  N   UNL     1       3.345  -2.519   0.139  0.00  0.00    -0.213 NA
ATOM     14  C   UNL     1       2.419  -1.587   0.191  0.00  0.00    +0.201 A 
ATOM     16  C   UNL     1       4.227  -0.443   0.064  0.00  0.00    +0.169 A 
ATOM     17  C   UNL     1       4.513  -1.800   0.057  0.00  0.00    +0.110 A 
ATOM     20  C   UNL     1       5.178   0.568  -0.007  0.00  0.00    +0.103 A 
ATOM     21  C   UNL     1       5.851  -2.210  -0.027  0.00  0.00    +0.031 A 
ATOM     25  C   UNL     1       6.508   0.142  -0.089  0.00  0.00    +0.019 A 
ATOM     26  C   UNL     1       6.841  -1.218  -0.100  0.00  0.00    +0.003 A 
BRANCH  20  27
ATOM      6  O   UNL     1       3.659   2.404   0.076  0.00  0.00    -0.245 OA
ATOM     27  C   UNL     1       4.821   1.972   0.004  0.00  0.00    +0.343 C 
BRANCH  27   5
ATOM      5  O   UNL     1       5.926   2.778  -0.073  0.00  0.00    -0.464 OA
ATOM     29  C   UNL     1       5.702   4.192  -0.070  0.00  0.00    +0.280 C 
ENDBRANCH  27   5
ENDBRANCH  20  27
ENDBRANCH   9  14
BRANCH   7  13
ATOM     13  C   UNL     1      -1.869   0.159  -1.146  0.00  0.00    +0.119 C 
BRANCH  13  15
ATOM     15  C   UNL     1      -3.325   0.203  -0.766  0.00  0.00    -0.033 A 
ATOM     18  C   UNL     1      -4.173  -0.843  -1.131  0.00  0.00    +0.005 A 
ATOM     19  C   UNL     1      -3.827   1.289  -0.048  0.00  0.00    +0.005 A 
ATOM     22  C   UNL     1      -5.522  -0.803  -0.778  0.00  0.00    +0.012 A 
ATOM     23  C   UNL     1      -5.176   1.329   0.304  0.00  0.00    +0.012 A 
ATOM     24  C   UNL     1      -6.023   0.283  -0.061  0.00  0.00    +0.055 A 
BRANCH  24  28
ATOM      1  F   UNL     1      -7.675   0.384   1.667  0.00  0.00    -0.166 F 
ATOM      2  F   UNL     1      -8.153  -0.773  -0.111  0.00  0.00    -0.166 F 
ATOM      3  F   UNL     1      -8.135   1.400  -0.193  0.00  0.00    -0.166 F 
ATOM     28  C   UNL     1      -7.465   0.325   0.318  0.00  0.00    +0.417 C 
ENDBRANCH  24  28
ENDBRANCH  13  15
ENDBRANCH   7  13
TORSDOF 6
