REMARK  Name = 25313127
REMARK  9 active torsions:
REMARK  status: ('A' for Active; 'I' for Inactive)
REMARK    1  A    between atoms: O_5  and  C_23
REMARK    2  A    between atoms: N_8  and  C_16
REMARK    3  A    between atoms: N_9  and  C_25
REMARK    4  A    between atoms: C_10  and  C_14
REMARK    5  A    between atoms: C_11  and  C_17
REMARK    6  A    between atoms: C_14  and  C_16
REMARK    7  A    between atoms: C_17  and  C_23
REMARK    8  A    between atoms: C_20  and  C_24
REMARK    9  A    between atoms: C_32  and  C_36
REMARK                            x       y       z     vdW  Elec       q    Type
REMARK                         _______ _______ _______ _____ _____    ______ ____
ROOT
ATOM      4  O   UNL     1      -3.783   1.698  -2.495  0.00  0.00    -0.270 OA
ATOM      7  N   UNL     1      -3.806   0.435  -0.526  0.00  0.00    -0.297 N 
ATOM     10  C   UNL     1      -2.751  -1.261   0.952  0.00  0.00    +0.011 C 
ATOM     11  C   UNL     1      -3.805  -2.287   0.462  0.00  0.00    +0.006 C 
ATOM     12  C   UNL     1      -3.313   0.167   0.832  0.00  0.00    +0.112 C 
ATOM     13  C   UNL     1      -4.324  -1.937  -0.943  0.00  0.00    +0.023 C 
ATOM     15  C   UNL     1      -4.825  -0.497  -1.004  0.00  0.00    +0.108 C 
ATOM     20  C   UNL     1      -3.378   1.474  -1.356  0.00  0.00    +0.247 C 
ENDROOT
BRANCH  20  24
ATOM     24  C   UNL     1      -2.353   2.389  -0.842  0.00  0.00    +0.037 A 
ATOM     26  C   UNL     1      -1.002   2.110  -1.046  0.00  0.00    +0.013 A 
ATOM     27  C   UNL     1      -2.730   3.539  -0.148  0.00  0.00    +0.013 A 
ATOM     30  C   UNL     1      -0.028   2.980  -0.556  0.00  0.00    +0.013 A 
ATOM     31  C   UNL     1      -1.756   4.410   0.341  0.00  0.00    +0.013 A 
ATOM     32  C   UNL     1      -0.405   4.130   0.137  0.00  0.00    +0.055 A 
BRANCH  32  36
ATOM      1  F   UNL     1       0.546   6.325   0.153  0.00  0.00    -0.166 F 
ATOM      2  F   UNL     1       1.904   4.642   0.377  0.00  0.00    -0.166 F 
ATOM      3  F   UNL     1       0.598   5.217   2.017  0.00  0.00    -0.166 F 
ATOM     36  C   UNL     1       0.636   5.060   0.661  0.00  0.00    +0.417 C 
ENDBRANCH  32  36
ENDBRANCH  20  24
BRANCH  10  14
ATOM     14  C   UNL     1      -1.401  -1.364   0.231  0.00  0.00    +0.020 C 
BRANCH  14  16
ATOM     16  C   UNL     1      -0.274  -0.841   1.111  0.00  0.00    +0.085 C 
BRANCH  16   8
ATOM      8  N   UNL     1       0.998  -0.933   0.395  0.00  0.00    -0.299 NA
ATOM      9  N   UNL     1       3.803  -1.395   0.113  0.00  0.00    -0.327 N 
ATOM     18  C   UNL     1       1.539  -2.295   0.481  0.00  0.00    +0.103 C 
ATOM     19  C   UNL     1       1.967   0.025   0.943  0.00  0.00    +0.103 C 
ATOM     21  C   UNL     1       2.843  -2.420  -0.311  0.00  0.00    +0.120 C 
ATOM     22  C   UNL     1       3.284  -0.022   0.166  0.00  0.00    +0.120 C 
BRANCH   9  25
ATOM     25  C   UNL     1       5.167  -1.573  -0.143  0.00  0.00    +0.030 A 
ATOM     28  C   UNL     1       5.578  -2.301  -1.260  0.00  0.00    +0.023 A 
ATOM     29  C   UNL     1       6.116  -1.021   0.717  0.00  0.00    +0.023 A 
ATOM     33  C   UNL     1       6.938  -2.476  -1.517  0.00  0.00    +0.002 A 
ATOM     34  C   UNL     1       7.476  -1.196   0.460  0.00  0.00    +0.002 A 
ATOM     35  C   UNL     1       7.886  -1.923  -0.656  0.00  0.00    +0.000 A 
ENDBRANCH   9  25
ENDBRANCH  16   8
ENDBRANCH  14  16
ENDBRANCH  10  14
BRANCH  11  17
ATOM     17  C   UNL     1      -3.306  -3.731   0.508  0.00  0.00    +0.124 C 
BRANCH  17  23
ATOM      6  O   UNL     1      -5.637  -4.441   0.572  0.00  0.00    -0.251 OA
ATOM     23  C   UNL     1      -4.445  -4.710   0.566  0.00  0.00    +0.305 C 
BRANCH  23   5
ATOM      5  O   UNL     1      -3.957  -5.977   0.611  0.00  0.00    -0.481 OA
ATOM     37  H   UNL     1      -4.676  -6.644   0.648  0.00  0.00    +0.295 HD
ENDBRANCH  23   5
ENDBRANCH  17  23
ENDBRANCH  11  17
TORSDOF 9
