REMARK  Name = 11883407
REMARK  7 active torsions:
REMARK  status: ('A' for Active; 'I' for Inactive)
REMARK    1  A    between atoms: O_6  and  C_15
REMARK    2  A    between atoms: O_6  and  C_19
REMARK    3  A    between atoms: N_9  and  C_14
REMARK    4  A    between atoms: N_10  and  C_20
REMARK    5  A    between atoms: N_11  and  C_21
REMARK    6  A    between atoms: C_20  and  C_22
REMARK    7  A    between atoms: C_27  and  C_32
REMARK                            x       y       z     vdW  Elec       q    Type
REMARK                         _______ _______ _______ _____ _____    ______ ____
ROOT
ATOM      4  O   UNL     1      -0.398   1.930   0.988  0.00  0.00    -0.368 OA
ATOM      5  O   UNL     1      -1.607   2.764  -1.704  0.00  0.00    -0.368 OA
ATOM     12  C   UNL     1      -1.988   1.739  -0.761  0.00  0.00    +0.173 C 
ATOM     13  C   UNL     1      -0.704   1.168  -0.192  0.00  0.00    +0.192 C 
ATOM     14  C   UNL     1      -2.669   2.362   0.435  0.00  0.00    +0.131 C 
ATOM     15  C   UNL     1       0.288   1.428  -1.299  0.00  0.00    +0.235 C 
ATOM     16  C   UNL     1      -1.489   2.817   1.278  0.00  0.00    +0.185 C 
ATOM     17  C   UNL     1      -0.179   2.761  -1.840  0.00  0.00    +0.207 C 
ENDROOT
BRANCH  14   9
ATOM      7  O   UNL     1      -5.496   1.883   0.104  0.00  0.00    -0.253 OA
ATOM      9  N   UNL     1      -3.475   1.395   1.140  0.00  0.00    -0.292 N 
ATOM     10  N   UNL     1      -5.372   0.232   1.729  0.00  0.00    -0.295 N 
ATOM     18  C   UNL     1      -4.841   1.231   0.916  0.00  0.00    +0.300 C 
ATOM     34  H   UNL     1      -3.016   0.760   1.786  0.00  0.00    +0.151 HD
ATOM     35  H   UNL     1      -4.749  -0.270   2.355  0.00  0.00    +0.151 HD
BRANCH  10  20
ATOM     20  C   UNL     1      -6.766  -0.143   1.700  0.00  0.00    +0.141 C 
BRANCH  20  22
ATOM     22  C   UNL     1      -7.033  -1.236   0.705  0.00  0.00    -0.030 A 
ATOM     25  C   UNL     1      -7.362  -0.914  -0.612  0.00  0.00    +0.005 A 
ATOM     26  C   UNL     1      -6.952  -2.572   1.098  0.00  0.00    +0.005 A 
ATOM     30  C   UNL     1      -7.609  -1.929  -1.536  0.00  0.00    +0.000 A 
ATOM     31  C   UNL     1      -7.200  -3.587   0.173  0.00  0.00    +0.000 A 
ATOM     33  C   UNL     1      -7.529  -3.265  -1.144  0.00  0.00    +0.000 A 
ENDBRANCH  20  22
ENDBRANCH  10  20
ENDBRANCH  14   9
BRANCH  15   6
ATOM      6  O   UNL     1       1.626   1.475  -0.857  0.00  0.00    -0.442 OA
BRANCH   6  19
ATOM      8  O   UNL     1       1.863  -0.750  -1.329  0.00  0.00    -0.226 OA
ATOM     11  N   UNL     1       3.626   0.515  -0.451  0.00  0.00    -0.251 N 
ATOM     19  C   UNL     1       2.344   0.298  -0.916  0.00  0.00    +0.405 C 
ATOM     36  H   UNL     1       3.840   1.462  -0.148  0.00  0.00    +0.158 HD
BRANCH  11  21
ATOM     21  C   UNL     1       4.682  -0.419  -0.341  0.00  0.00    +0.037 A 
ATOM     23  C   UNL     1       5.921  -0.016   0.156  0.00  0.00    +0.035 A 
ATOM     24  C   UNL     1       4.484  -1.744  -0.731  0.00  0.00    +0.023 A 
ATOM     27  C   UNL     1       6.962  -0.937   0.265  0.00  0.00    +0.057 A 
ATOM     28  C   UNL     1       5.526  -2.665  -0.623  0.00  0.00    +0.002 A 
ATOM     29  C   UNL     1       6.765  -2.262  -0.125  0.00  0.00    +0.012 A 
BRANCH  27  32
ATOM      1  F   UNL     1       8.877   0.482   0.062  0.00  0.00    -0.166 F 
ATOM      2  F   UNL     1       9.210  -1.512   0.847  0.00  0.00    -0.166 F 
ATOM      3  F   UNL     1       8.208  -0.019   2.070  0.00  0.00    -0.166 F 
ATOM     32  C   UNL     1       8.287  -0.507   0.797  0.00  0.00    +0.417 C 
ENDBRANCH  27  32
ENDBRANCH  11  21
ENDBRANCH   6  19
ENDBRANCH  15   6
TORSDOF 7
