REMARK  Name = 7135055
REMARK  15 active torsions:
REMARK  status: ('A' for Active; 'I' for Inactive)
REMARK    1  A    between atoms: O_2  and  C_14
REMARK    2  A    between atoms: O_3  and  C_19
REMARK    3  A    between atoms: N_7  and  C_25
REMARK    4  A    between atoms: C_9  and  C_17
REMARK    5  A    between atoms: C_11  and  C_19
REMARK    6  A    between atoms: C_11  and  C_20
REMARK    7  A    between atoms: C_12  and  C_22
REMARK    8  A    between atoms: C_22  and  C_23
REMARK    9  A    between atoms: C_25  and  C_27
REMARK   10  A    between atoms: C_25  and  C_28
REMARK   11  A    between atoms: C_26  and  C_29
REMARK   12  A    between atoms: C_32  and  C_35
REMARK   13  A    between atoms: C_35  and  C_36
REMARK   14  A    between atoms: C_35  and  C_37
REMARK   15  A    between atoms: C_35  and  C_38
REMARK                            x       y       z     vdW  Elec       q    Type
REMARK                         _______ _______ _______ _____ _____    ______ ____
ROOT
ATOM      1  S   UNL     1      -0.246   2.444   0.166  0.00  0.00    -0.057 S 
ATOM      5  O   UNL     1       2.567  -1.255  -0.112  0.00  0.00    -0.270 OA
ATOM      6  N   UNL     1      -0.169  -0.134  -0.030  0.00  0.00    -0.229 NA
ATOM      8  N   UNL     1       1.949   1.013   0.062  0.00  0.00    -0.261 N 
ATOM      9  C   UNL     1      -4.005  -0.149   0.364  0.00  0.00    -0.019 C 
ATOM     10  C   UNL     1      -4.161   1.272  -0.338  0.00  0.00    +0.011 C 
ATOM     11  C   UNL     1      -5.608   1.899  -0.369  0.00  0.00    +0.021 C 
ATOM     12  C   UNL     1      -2.608  -0.775  -0.095  0.00  0.00    +0.054 C 
ATOM     13  C   UNL     1      -5.142  -1.088  -0.114  0.00  0.00    +0.010 C 
ATOM     14  C   UNL     1      -6.626   0.815  -0.823  0.00  0.00    +0.123 C 
ATOM     15  C   UNL     1      -3.058   2.264   0.134  0.00  0.00    +0.049 C 
ATOM     16  C   UNL     1      -6.532  -0.474  -0.015  0.00  0.00    +0.032 C 
ATOM     17  C   UNL     1      -4.047  -0.064   1.910  0.00  0.00    +0.012 C 
ATOM     18  C   UNL     1      -1.499   0.241   0.006  0.00  0.00    +0.058 A 
ATOM     20  C   UNL     1      -5.643   3.038  -1.427  0.00  0.00    +0.016 C 
ATOM     21  C   UNL     1      -1.723   1.600   0.090  0.00  0.00    +0.015 A 
ATOM     24  C   UNL     1       0.581   0.943   0.055  0.00  0.00    +0.165 A 
ATOM     26  C   UNL     1       2.846  -0.065  -0.019  0.00  0.00    +0.250 C 
ATOM     42  H   UNL     1       2.306   1.963   0.093  0.00  0.00    +0.157 HD
ENDROOT
BRANCH  26  29
ATOM     29  C   UNL     1       4.286   0.305  -0.020  0.00  0.00    +0.037 A 
ATOM     30  C   UNL     1       4.704   1.485   0.596  0.00  0.00    +0.013 A 
ATOM     31  C   UNL     1       5.220  -0.528  -0.636  0.00  0.00    +0.013 A 
ATOM     32  C   UNL     1       6.989   0.998  -0.020  0.00  0.00    -0.042 A 
ATOM     33  C   UNL     1       6.055   1.831   0.596  0.00  0.00    +0.005 A 
ATOM     34  C   UNL     1       6.571  -0.182  -0.637  0.00  0.00    +0.005 A 
BRANCH  32  35
ATOM     35  C   UNL     1       8.433   1.368  -0.022  0.00  0.00    -0.013 C 
ATOM     36  C   UNL     1       8.975   1.526  -1.477  0.00  0.00    +0.015 C 
ATOM     37  C   UNL     1       9.297   0.279   0.686  0.00  0.00    +0.015 C 
ATOM     38  C   UNL     1       8.783   2.712   0.700  0.00  0.00    +0.015 C 
ENDBRANCH  32  35
ENDBRANCH  26  29
BRANCH  14   2
ATOM      2  O   UNL     1      -7.961   1.313  -0.739  0.00  0.00    -0.391 OA
ATOM     39  H   UNL     1      -8.556   0.620  -1.075  0.00  0.00    +0.210 HD
ENDBRANCH  14   2
BRANCH  11  19
ATOM     19  C   UNL     1      -6.053   2.551   0.958  0.00  0.00    +0.165 C 
BRANCH  19   3
ATOM      3  O   UNL     1      -7.350   3.071   0.770  0.00  0.00    -0.394 OA
ATOM     40  H   UNL     1      -7.619   3.489   1.606  0.00  0.00    +0.209 HD
ENDBRANCH  19   3
ENDBRANCH  11  19
BRANCH  12  22
ATOM     22  C   UNL     1      -2.235  -2.087   0.608  0.00  0.00    +0.106 C 
BRANCH  22  23
ATOM      4  O   UNL     1      -0.938  -2.628  -1.362  0.00  0.00    -0.276 OA
ATOM      7  N   UNL     1      -0.989  -4.117   0.422  0.00  0.00    -0.313 N 
ATOM     23  C   UNL     1      -1.322  -2.944  -0.238  0.00  0.00    +0.214 C 
ATOM     41  H   UNL     1      -1.314  -4.253   1.376  0.00  0.00    +0.149 HD
BRANCH   7  25
ATOM     25  C   UNL     1      -0.131  -5.129  -0.149  0.00  0.00    +0.067 C 
ATOM     27  C   UNL     1      -0.538  -6.511   0.347  0.00  0.00    +0.027 C 
ATOM     28  C   UNL     1       1.329  -4.836   0.172  0.00  0.00    +0.027 C 
ENDBRANCH   7  25
ENDBRANCH  22  23
ENDBRANCH  12  22
TORSDOF 8
