REMARK  Name = 40780380
REMARK  10 active torsions:
REMARK  status: ('A' for Active; 'I' for Inactive)
REMARK    1  A    between atoms: N_1  and  C_7
REMARK    2  A    between atoms: N_1  and  C_13
REMARK    3  A    between atoms: N_2  and  C_16
REMARK    4  A    between atoms: C_5  and  C_8
REMARK    5  A    between atoms: C_11  and  C_14
REMARK    6  A    between atoms: C_12  and  C_15
REMARK    7  A    between atoms: C_13  and  C_17
REMARK    8  A    between atoms: C_20  and  C_21
REMARK    9  A    between atoms: C_21  and  C_25
REMARK   10  A    between atoms: C_21  and  C_26
REMARK                            x       y       z     vdW  Elec       q    Type
REMARK                         _______ _______ _______ _____ _____    ______ ____
ROOT
ATOM      2  N   UNL     1       2.598  -0.578   0.023  0.00  0.00    -0.236 N 
ATOM      3  N   UNL     1       2.375  -1.862  -0.304  0.00  0.00    -0.171 NA
ATOM      8  C   UNL     1       0.425  -0.763   0.153  0.00  0.00    +0.003 A 
ATOM     11  C   UNL     1       1.463   0.124   0.306  0.00  0.00    +0.046 A 
ATOM     12  C   UNL     1       1.046  -1.969  -0.223  0.00  0.00    +0.064 A 
ATOM     14  C   UNL     1       1.466   1.550   0.691  0.00  0.00    +0.066 C 
ATOM     15  C   UNL     1       0.404  -3.263  -0.516  0.00  0.00    +0.068 C 
ENDROOT
BRANCH   2  16
ATOM     16  C   UNL     1       3.904  -0.087   0.046  0.00  0.00    +0.066 A 
ATOM     18  C   UNL     1       4.246   0.944   0.922  0.00  0.00    +0.028 A 
ATOM     19  C   UNL     1       4.865  -0.624  -0.810  0.00  0.00    +0.028 A 
ATOM     20  C   UNL     1       6.513   0.899   0.086  0.00  0.00    -0.045 A 
ATOM     22  C   UNL     1       5.551   1.437   0.942  0.00  0.00    +0.006 A 
ATOM     23  C   UNL     1       6.170  -0.131  -0.790  0.00  0.00    +0.006 A 
BRANCH  20  21
ATOM     21  C   UNL     1       7.907   1.428   0.107  0.00  0.00    +0.013 C 
ATOM     25  C   UNL     1       8.936   0.358   0.522  0.00  0.00    +0.012 C 
ATOM     26  C   UNL     1       8.320   2.056  -1.237  0.00  0.00    +0.012 C 
ENDBRANCH  20  21
ENDBRANCH   2  16
BRANCH   8   5
ATOM      5  C   UNL     1      -1.050  -0.499   0.347  0.00  0.00    +0.047 C 
ATOM      6  C   UNL     1      -1.886  -0.755  -0.921  0.00  0.00    +0.035 C 
ATOM      7  C   UNL     1      -3.245  -1.290  -0.439  0.00  0.00    +0.078 C 
ATOM      9  C   UNL     1      -1.719  -1.390   1.353  0.00  0.00    -0.021 C 
ATOM     10  C   UNL     1      -2.914  -1.811   0.925  0.00  0.00    -0.012 C 
BRANCH   7   1
ATOM      1  N   UNL     1      -4.256  -0.242  -0.379  0.00  0.00    -0.304 NA
ATOM     30  H   UNL     1      -4.225   0.308  -1.238  0.00  0.00    +0.123 HD
BRANCH   1  13
ATOM     13  C   UNL     1      -5.590  -0.809  -0.230  0.00  0.00    +0.137 C 
BRANCH  13  17
ATOM      4  N   UNL     1      -6.736   1.103  -1.204  0.00  0.00    -0.259 NA
ATOM     17  C   UNL     1      -6.649   0.259  -0.152  0.00  0.00    +0.055 A 
ATOM     24  C   UNL     1      -7.465   0.325   0.965  0.00  0.00    +0.024 A 
ATOM     27  C   UNL     1      -8.434   1.322   1.005  0.00  0.00    +0.003 A 
ATOM     28  C   UNL     1      -7.689   2.059  -1.130  0.00  0.00    +0.111 A 
ATOM     29  C   UNL     1      -8.554   2.209  -0.058  0.00  0.00    +0.020 A 
ENDBRANCH  13  17
ENDBRANCH   1  13
ENDBRANCH   7   1
ENDBRANCH   8   5
TORSDOF 6
