REMARK  Name = 25338204
REMARK  4 active torsions:
REMARK  status: ('A' for Active; 'I' for Inactive)
REMARK    1  A    between atoms: O_3  and  C_9
REMARK    2  A    between atoms: N_5  and  C_8
REMARK    3  A    between atoms: N_6  and  C_10
REMARK    4  A    between atoms: N_7  and  C_20
REMARK                            x       y       z     vdW  Elec       q    Type
REMARK                         _______ _______ _______ _____ _____    ______ ____
ROOT
ATOM      1  O   UNL     1      -2.499   0.943   1.598  0.00  0.00    -0.342 OA
ATOM      2  O   UNL     1      -3.956   2.048   0.170  0.00  0.00    -0.347 OA
ATOM      8  C   UNL     1      -2.784   0.094  -0.641  0.00  0.00    +0.143 C 
ATOM      9  C   UNL     1      -1.618   0.975  -1.145  0.00  0.00    +0.159 C 
ATOM     10  C   UNL     1      -0.898   1.745  -0.017  0.00  0.00    +0.136 C 
ATOM     11  C   UNL     1      -3.477   0.752   0.566  0.00  0.00    +0.270 C 
ATOM     12  C   UNL     1      -1.832   2.127   1.150  0.00  0.00    +0.170 C 
ATOM     13  C   UNL     1      -3.021   2.976   0.741  0.00  0.00    +0.196 C 
ENDROOT
BRANCH  10   6
ATOM      4  O   UNL     1       1.783   1.760  -1.025  0.00  0.00    -0.252 OA
ATOM      6  N   UNL     1       0.218   0.971   0.482  0.00  0.00    -0.291 N 
ATOM      7  N   UNL     1       2.366   0.184   0.614  0.00  0.00    -0.269 N 
ATOM     19  C   UNL     1       1.499   1.039  -0.071  0.00  0.00    +0.304 C 
ATOM     26  H   UNL     1       0.042   0.292   1.217  0.00  0.00    +0.151 HD
ATOM     28  H   UNL     1       1.970  -0.347   1.385  0.00  0.00    +0.156 HD
BRANCH   7  20
ATOM     20  C   UNL     1       3.741  -0.038   0.366  0.00  0.00    +0.035 A 
ATOM     21  C   UNL     1       4.455  -0.938   1.159  0.00  0.00    +0.023 A 
ATOM     22  C   UNL     1       4.383   0.641  -0.668  0.00  0.00    +0.023 A 
ATOM     23  C   UNL     1       5.811  -1.157   0.916  0.00  0.00    +0.002 A 
ATOM     24  C   UNL     1       5.739   0.422  -0.912  0.00  0.00    +0.002 A 
ATOM     25  C   UNL     1       6.453  -0.477  -0.119  0.00  0.00    +0.000 A 
ENDBRANCH   7  20
ENDBRANCH  10   6
BRANCH   8   5
ATOM      5  N   UNL     1      -2.288  -1.230  -0.266  0.00  0.00    -0.293 NA
ATOM     14  C   UNL     1      -2.090  -2.063  -1.461  0.00  0.00    +0.085 C 
ATOM     15  C   UNL     1      -3.209  -1.874   0.682  0.00  0.00    +0.085 C 
ATOM     16  C   UNL     1      -1.525  -3.435  -1.090  0.00  0.00    +0.015 C 
ATOM     17  C   UNL     1      -2.681  -3.240   1.123  0.00  0.00    +0.015 C 
ATOM     18  C   UNL     1      -2.413  -4.144  -0.075  0.00  0.00    +0.002 C 
ENDBRANCH   8   5
BRANCH   9   3
ATOM      3  O   UNL     1      -2.157   1.921  -2.078  0.00  0.00    -0.388 OA
ATOM     27  H   UNL     1      -1.414   2.433  -2.439  0.00  0.00    +0.210 HD
ENDBRANCH   9   3
TORSDOF 4
