REMARK  Name = 45784261
REMARK  3 active torsions:
REMARK  status: ('A' for Active; 'I' for Inactive)
REMARK    1  A    between atoms: N_4  and  C_7
REMARK    2  A    between atoms: C_10  and  C_15
REMARK    3  A    between atoms: C_20  and  C_22
REMARK                            x       y       z     vdW  Elec       q    Type
REMARK                         _______ _______ _______ _____ _____    ______ ____
ROOT
ATOM      5  N   UNL     1      -0.574   0.617  -1.140  0.00  0.00    -0.342 N 
ATOM      6  N   UNL     1       0.059   0.184   0.946  0.00  0.00    -0.232 NA
ATOM     15  C   UNL     1       0.463   0.545  -0.252  0.00  0.00    +0.113 A 
ATOM     16  C   UNL     1      -1.722   0.281  -0.471  0.00  0.00    +0.067 A 
ATOM     17  C   UNL     1      -1.301   0.015   0.829  0.00  0.00    +0.089 A 
ATOM     18  C   UNL     1      -3.054   0.189  -0.879  0.00  0.00    +0.040 A 
ATOM     19  C   UNL     1      -2.250  -0.367   1.792  0.00  0.00    +0.030 A 
ATOM     20  C   UNL     1      -3.985  -0.192   0.092  0.00  0.00    +0.057 A 
ATOM     21  C   UNL     1      -3.593  -0.465   1.405  0.00  0.00    +0.014 A 
ATOM     23  H   UNL     1      -0.509   0.873  -2.116  0.00  0.00    +0.167 HD
ENDROOT
BRANCH  15  10
ATOM      4  N   UNL     1       4.122   0.330  -0.229  0.00  0.00    -0.299 NA
ATOM     10  C   UNL     1       1.881   0.857  -0.671  0.00  0.00    +0.070 C 
ATOM     11  C   UNL     1       2.837  -0.328  -0.480  0.00  0.00    +0.096 C 
ATOM     13  C   UNL     1       3.810   1.424   0.691  0.00  0.00    +0.085 C 
ATOM     14  C   UNL     1       2.541   2.017   0.094  0.00  0.00    +0.028 C 
BRANCH   4   7
ATOM      7  C   UNL     1       5.076  -0.606   0.379  0.00  0.00    +0.057 C 
ATOM      8  C   UNL     1       6.504  -0.034   0.268  0.00  0.00    +0.019 C 
ATOM      9  C   UNL     1       5.500  -1.663  -0.662  0.00  0.00    +0.019 C 
ATOM     12  C   UNL     1       6.950  -1.440  -0.183  0.00  0.00    +0.003 C 
ENDBRANCH   4   7
ENDBRANCH  15  10
BRANCH  20  22
ATOM      1  F   UNL     1      -6.210  -0.688   0.766  0.00  0.00    -0.166 F 
ATOM      2  F   UNL     1      -5.966   0.858  -0.743  0.00  0.00    -0.166 F 
ATOM      3  F   UNL     1      -5.660  -1.225  -1.268  0.00  0.00    -0.166 F 
ATOM     22  C   UNL     1      -5.426  -0.309  -0.283  0.00  0.00    +0.417 C 
ENDBRANCH  20  22
TORSDOF 3
