REMARK  Name = 26743454
REMARK  7 active torsions:
REMARK  status: ('A' for Active; 'I' for Inactive)
REMARK    1  A    between atoms: S_1  and  C_19
REMARK    2  A    between atoms: S_1  and  C_21
REMARK    3  A    between atoms: O_3  and  C_13
REMARK    4  A    between atoms: N_7  and  C_15
REMARK    5  A    between atoms: C_11  and  C_16
REMARK    6  A    between atoms: C_15  and  C_17
REMARK    7  A    between atoms: C_18  and  C_19
REMARK                            x       y       z     vdW  Elec       q    Type
REMARK                         _______ _______ _______ _____ _____    ______ ____
ROOT
ATOM      4  O   UNL     1      -1.840   0.016  -2.260  0.00  0.00    -0.336 OA
ATOM      8  N   UNL     1      -0.949   1.156  -0.550  0.00  0.00    -0.193 NA
ATOM      9  N   UNL     1      -0.454   0.004  -2.464  0.00  0.00    -0.060 NA
ATOM     16  C   UNL     1      -2.045   0.714  -1.113  0.00  0.00    +0.245 A 
ATOM     18  C   UNL     1       0.001   0.696  -1.415  0.00  0.00    +0.193 A 
ENDROOT
BRANCH  16  11
ATOM      7  N   UNL     1      -3.717   0.340   0.693  0.00  0.00    -0.283 NA
ATOM     11  C   UNL     1      -3.483   0.870  -0.665  0.00  0.00    +0.149 C 
ATOM     12  C   UNL     1      -3.929   2.343  -0.595  0.00  0.00    +0.061 C 
ATOM     13  C   UNL     1      -4.439   2.533   0.828  0.00  0.00    +0.130 C 
ATOM     14  C   UNL     1      -4.808   1.128   1.263  0.00  0.00    +0.117 C 
BRANCH  13   3
ATOM      3  O   UNL     1      -5.556   3.400   0.849  0.00  0.00    -0.390 OA
ATOM     30  H   UNL     1      -5.269   4.256   0.489  0.00  0.00    +0.210 HD
ENDBRANCH  13   3
BRANCH   7  15
ATOM     15  C   UNL     1      -4.005  -1.089   0.710  0.00  0.00    +0.140 C 
BRANCH  15  17
ATOM     10  N   UNL     1      -2.685  -2.765  -0.459  0.00  0.00    -0.259 NA
ATOM     17  C   UNL     1      -2.752  -1.915   0.590  0.00  0.00    +0.055 A 
ATOM     20  C   UNL     1      -1.750  -1.768   1.536  0.00  0.00    +0.024 A 
ATOM     22  C   UNL     1      -0.605  -2.545   1.395  0.00  0.00    +0.003 A 
ATOM     23  C   UNL     1      -1.557  -3.503  -0.562  0.00  0.00    +0.111 A 
ATOM     24  C   UNL     1      -0.499  -3.431   0.330  0.00  0.00    +0.020 A 
ENDBRANCH  15  17
ENDBRANCH   7  15
ENDBRANCH  16  11
BRANCH  18  19
ATOM     19  C   UNL     1       1.432   0.943  -1.209  0.00  0.00    +0.251 C 
BRANCH  19   1
ATOM      1  S   UNL     1       2.001  -0.091   0.113  0.00  0.00    +0.004 S 
ATOM      5  O   UNL     1       1.827  -1.470  -0.305  0.00  0.00    -0.169 OA
ATOM      6  O   UNL     1       1.416   0.382   1.353  0.00  0.00    -0.169 OA
BRANCH   1  21
ATOM      2  F   UNL     1       7.785   1.022   0.384  0.00  0.00    -0.205 F 
ATOM     21  C   UNL     1       3.734   0.242   0.195  0.00  0.00    +0.089 A 
ATOM     25  C   UNL     1       4.210   1.266   1.015  0.00  0.00    +0.030 A 
ATOM     26  C   UNL     1       4.627  -0.518  -0.561  0.00  0.00    +0.030 A 
ATOM     27  C   UNL     1       5.578   1.529   1.079  0.00  0.00    +0.040 A 
ATOM     28  C   UNL     1       5.995  -0.255  -0.497  0.00  0.00    +0.040 A 
ATOM     29  C   UNL     1       6.471   0.769   0.323  0.00  0.00    +0.124 A 
ENDBRANCH   1  21
ENDBRANCH  19   1
ENDBRANCH  18  19
TORSDOF 7
