REMARK  Name = 26743694
REMARK  7 active torsions:
REMARK  status: ('A' for Active; 'I' for Inactive)
REMARK    1  A    between atoms: S_1  and  C_22
REMARK    2  A    between atoms: S_1  and  C_24
REMARK    3  A    between atoms: O_2  and  C_12
REMARK    4  A    between atoms: N_6  and  C_14
REMARK    5  A    between atoms: C_10  and  C_15
REMARK    6  A    between atoms: C_14  and  C_16
REMARK    7  A    between atoms: C_19  and  C_23
REMARK                            x       y       z     vdW  Elec       q    Type
REMARK                         _______ _______ _______ _____ _____    ______ ____
ROOT
ATOM      6  N   UNL     1       3.247  -0.685   0.080  0.00  0.00    -0.285 NA
ATOM     10  C   UNL     1       2.892   0.659   0.580  0.00  0.00    +0.149 C 
ATOM     11  C   UNL     1       4.054   1.565   0.132  0.00  0.00    +0.061 C 
ATOM     12  C   UNL     1       5.032   0.633  -0.571  0.00  0.00    +0.130 C 
ATOM     13  C   UNL     1       4.706  -0.729   0.011  0.00  0.00    +0.116 C 
ENDROOT
BRANCH  10  15
ATOM      3  O   UNL     1       1.397   1.189  -1.279  0.00  0.00    -0.336 OA
ATOM      7  N   UNL     1       0.490   1.510   0.744  0.00  0.00    -0.189 NA
ATOM      8  N   UNL     1       0.094   1.651  -1.505  0.00  0.00    -0.054 NA
ATOM     15  C   UNL     1       1.548   1.135   0.070  0.00  0.00    +0.245 A 
ATOM     19  C   UNL     1      -0.376   1.817  -0.265  0.00  0.00    +0.220 A 
BRANCH  19  23
ATOM      9  N   UNL     1      -2.459   2.556  -1.089  0.00  0.00    -0.252 NA
ATOM     23  C   UNL     1      -1.705   2.288  -0.000  0.00  0.00    +0.111 A 
ATOM     25  C   UNL     1      -2.144   2.442   1.305  0.00  0.00    +0.031 A 
ATOM     26  C   UNL     1      -3.442   2.901   1.505  0.00  0.00    +0.004 A 
ATOM     27  C   UNL     1      -3.714   3.001  -0.856  0.00  0.00    +0.111 A 
ATOM     28  C   UNL     1      -4.248   3.188   0.409  0.00  0.00    +0.020 A 
ENDBRANCH  19  23
ENDBRANCH  10  15
BRANCH  12   2
ATOM      2  O   UNL     1       6.368   1.013  -0.302  0.00  0.00    -0.390 OA
ATOM     29  H   UNL     1       6.486   1.920  -0.633  0.00  0.00    +0.210 HD
ENDBRANCH  12   2
BRANCH   6  14
ATOM     14  C   UNL     1       2.703  -1.763   0.895  0.00  0.00    +0.120 C 
BRANCH  14  16
ATOM     16  C   UNL     1       1.251  -2.020   0.590  0.00  0.00    -0.033 A 
ATOM     17  C   UNL     1       0.297  -1.913   1.602  0.00  0.00    +0.007 A 
ATOM     18  C   UNL     1       0.860  -2.364  -0.704  0.00  0.00    +0.007 A 
ATOM     20  C   UNL     1      -1.048  -2.150   1.320  0.00  0.00    +0.027 A 
ATOM     21  C   UNL     1      -0.485  -2.601  -0.986  0.00  0.00    +0.027 A 
ATOM     22  C   UNL     1      -1.439  -2.494   0.026  0.00  0.00    +0.088 A 
BRANCH  22   1
ATOM      1  S   UNL     1      -3.123  -2.792  -0.327  0.00  0.00    -0.006 S 
ATOM      4  O   UNL     1      -3.215  -3.647  -1.502  0.00  0.00    -0.170 OA
ATOM      5  O   UNL     1      -3.777  -3.192   0.911  0.00  0.00    -0.170 OA
ATOM     24  C   UNL     1      -3.765  -1.200  -0.794  0.00  0.00    +0.200 C 
ENDBRANCH  22   1
ENDBRANCH  14  16
ENDBRANCH   6  14
TORSDOF 6
