REMARK  Name = 23757127
REMARK  14 active torsions:
REMARK  status: ('A' for Active; 'I' for Inactive)
REMARK    1  A    between atoms: O_1  and  C_15
REMARK    2  A    between atoms: O_1  and  C_24
REMARK    3  A    between atoms: O_2  and  C_16
REMARK    4  A    between atoms: O_3  and  C_20
REMARK    5  A    between atoms: O_6  and  C_36
REMARK    6  A    between atoms: O_6  and  C_38
REMARK    7  A    between atoms: N_7  and  C_25
REMARK    8  A    between atoms: N_8  and  C_26
REMARK    9  A    between atoms: C_9  and  C_19
REMARK   10  A    between atoms: C_11  and  C_20
REMARK   11  A    between atoms: C_11  and  C_21
REMARK   12  A    between atoms: C_12  and  C_22
REMARK   13  A    between atoms: C_22  and  C_23
REMARK   14  A    between atoms: C_25  and  C_27
REMARK                            x       y       z     vdW  Elec       q    Type
REMARK                         _______ _______ _______ _____ _____    ______ ____
ROOT
ATOM      9  C   UNL     1      -0.617   0.953  -0.443  0.00  0.00    -0.023 C 
ATOM     10  C   UNL     1      -0.902   2.392   0.118  0.00  0.00    +0.007 C 
ATOM     11  C   UNL     1       0.370   3.217   0.575  0.00  0.00    +0.031 C 
ATOM     12  C   UNL     1      -2.008   0.226  -0.670  0.00  0.00    +0.032 C 
ATOM     13  C   UNL     1       0.206   0.143   0.612  0.00  0.00    +0.011 C 
ATOM     14  C   UNL     1      -1.863   3.187  -0.792  0.00  0.00    +0.007 C 
ATOM     15  C   UNL     1       1.468   2.285   1.182  0.00  0.00    +0.186 C 
ATOM     16  C   UNL     1      -3.019   1.043  -1.509  0.00  0.00    +0.119 C 
ATOM     17  C   UNL     1       0.882   0.979   1.703  0.00  0.00    +0.046 C 
ATOM     18  C   UNL     1      -3.193   2.458  -0.970  0.00  0.00    +0.032 C 
ATOM     19  C   UNL     1       0.189   0.989  -1.764  0.00  0.00    +0.012 C 
ATOM     21  C   UNL     1      -0.084   4.175   1.715  0.00  0.00    +0.017 C 
ENDROOT
BRANCH  16   2
ATOM      2  O   UNL     1      -2.643   1.129  -2.879  0.00  0.00    -0.391 OA
ATOM     39  H   UNL     1      -3.344   1.610  -3.350  0.00  0.00    +0.210 HD
ENDBRANCH  16   2
BRANCH  15   1
ATOM      1  O   UNL     1       2.502   1.956   0.257  0.00  0.00    -0.446 OA
BRANCH   1  24
ATOM      5  O   UNL     1       3.860   1.129   1.901  0.00  0.00    -0.226 OA
ATOM      8  N   UNL     1       3.999   0.391  -0.316  0.00  0.00    -0.251 N 
ATOM     24  C   UNL     1       3.503   1.145   0.730  0.00  0.00    +0.405 C 
ATOM     42  H   UNL     1       3.568   0.545  -1.225  0.00  0.00    +0.158 HD
BRANCH   8  26
ATOM     26  C   UNL     1       5.034  -0.572  -0.281  0.00  0.00    +0.037 A 
ATOM     28  C   UNL     1       5.671  -0.841   0.920  0.00  0.00    +0.027 A 
ATOM     29  C   UNL     1       5.391  -1.227  -1.448  0.00  0.00    +0.027 A 
ATOM     32  C   UNL     1       6.692  -1.790   0.954  0.00  0.00    +0.047 A 
ATOM     33  C   UNL     1       6.412  -2.177  -1.414  0.00  0.00    +0.047 A 
ATOM     36  C   UNL     1       7.062  -2.459  -0.212  0.00  0.00    +0.120 A 
BRANCH  36   6
ATOM      6  O   UNL     1       8.059  -3.384  -0.179  0.00  0.00    -0.495 OA
ATOM     38  C   UNL     1       8.682  -3.623   1.083  0.00  0.00    +0.277 C 
ENDBRANCH  36   6
ENDBRANCH   8  26
ENDBRANCH   1  24
ENDBRANCH  15   1
BRANCH  11  20
ATOM     20  C   UNL     1       0.945   4.120  -0.537  0.00  0.00    +0.166 C 
BRANCH  20   3
ATOM      3  O   UNL     1       2.059   4.805  -0.007  0.00  0.00    -0.394 OA
ATOM     40  H   UNL     1       2.412   5.373  -0.712  0.00  0.00    +0.209 HD
ENDBRANCH  20   3
ENDBRANCH  11  20
BRANCH  12  22
ATOM     22  C   UNL     1      -1.890  -1.206  -1.221  0.00  0.00    +0.102 C 
BRANCH  22  23
ATOM      4  O   UNL     1      -3.950  -1.818  -2.333  0.00  0.00    -0.276 OA
ATOM      7  N   UNL     1      -3.549  -2.561  -0.168  0.00  0.00    -0.311 N 
ATOM     23  C   UNL     1      -3.238  -1.879  -1.335  0.00  0.00    +0.214 C 
ATOM     41  H   UNL     1      -2.906  -2.527   0.618  0.00  0.00    +0.149 HD
BRANCH   7  25
ATOM     25  C   UNL     1      -4.779  -3.298   0.012  0.00  0.00    +0.139 C 
BRANCH  25  27
ATOM     27  C   UNL     1      -5.869  -2.440   0.588  0.00  0.00    -0.030 A 
ATOM     30  C   UNL     1      -6.021  -2.355   1.967  0.00  0.00    +0.005 A 
ATOM     31  C   UNL     1      -6.715  -1.739  -0.264  0.00  0.00    +0.005 A 
ATOM     34  C   UNL     1      -7.033  -1.558   2.502  0.00  0.00    +0.000 A 
ATOM     35  C   UNL     1      -7.727  -0.942   0.271  0.00  0.00    +0.000 A 
ATOM     37  C   UNL     1      -7.886  -0.852   1.654  0.00  0.00    +0.000 A 
ENDBRANCH  25  27
ENDBRANCH   7  25
ENDBRANCH  22  23
ENDBRANCH  12  22
TORSDOF 11
