REMARK  Name = 75536905
REMARK  4 active torsions:
REMARK  status: ('A' for Active; 'I' for Inactive)
REMARK    1  A    between atoms: O_5  and  C_10
REMARK    2  A    between atoms: O_5  and  C_17
REMARK    3  A    between atoms: C_15  and  C_16
REMARK    4  A    between atoms: C_20  and  C_24
REMARK                            x       y       z     vdW  Elec       q    Type
REMARK                         _______ _______ _______ _____ _____    ______ ____
ROOT
ATOM      4  O   UNL     1      -2.859  -2.607  -1.044  0.00  0.00    -0.375 OA
ATOM      6  O   UNL     1       1.639  -3.514   0.456  0.00  0.00    -0.270 OA
ATOM      7  N   UNL     1      -0.184  -2.042   0.489  0.00  0.00    -0.292 N 
ATOM     10  C   UNL     1      -2.137  -0.493  -0.061  0.00  0.00    +0.218 C 
ATOM     11  C   UNL     1      -0.685  -0.666   0.393  0.00  0.00    +0.155 C 
ATOM     12  C   UNL     1      -1.156  -3.127   0.636  0.00  0.00    +0.136 C 
ATOM     13  C   UNL     1      -2.466  -1.269  -1.335  0.00  0.00    +0.206 C 
ATOM     14  C   UNL     1      -1.788  -3.481  -0.703  0.00  0.00    +0.179 C 
ATOM     15  C   UNL     1       1.179  -2.374   0.411  0.00  0.00    +0.247 C 
ENDROOT
BRANCH  15  16
ATOM     16  C   UNL     1       2.155  -1.284   0.264  0.00  0.00    +0.037 A 
ATOM     18  C   UNL     1       2.708  -0.684   1.396  0.00  0.00    +0.013 A 
ATOM     19  C   UNL     1       2.529  -0.849  -1.008  0.00  0.00    +0.013 A 
ATOM     20  C   UNL     1       4.006   0.785  -0.016  0.00  0.00    +0.055 A 
ATOM     21  C   UNL     1       3.633   0.350   1.256  0.00  0.00    +0.013 A 
ATOM     22  C   UNL     1       3.454   0.186  -1.148  0.00  0.00    +0.013 A 
BRANCH  20  24
ATOM      1  F   UNL     1       4.505   2.978  -0.830  0.00  0.00    -0.166 F 
ATOM      2  F   UNL     1       6.120   1.531  -0.852  0.00  0.00    -0.166 F 
ATOM      3  F   UNL     1       5.437   2.366   1.036  0.00  0.00    -0.166 F 
ATOM     24  C   UNL     1       4.995   1.891  -0.165  0.00  0.00    +0.417 C 
ENDBRANCH  20  24
ENDBRANCH  15  16
BRANCH  10   5
ATOM      5  O   UNL     1      -2.330   0.901  -0.303  0.00  0.00    -0.468 OA
BRANCH   5  17
ATOM      8  N   UNL     1      -4.517   0.541   0.398  0.00  0.00    -0.219 NA
ATOM      9  N   UNL     1      -5.068   3.259  -0.023  0.00  0.00    -0.256 NA
ATOM     17  C   UNL     1      -3.579   1.398  -0.052  0.00  0.00    +0.234 A 
ATOM     23  C   UNL     1      -3.849   2.733  -0.259  0.00  0.00    +0.177 A 
ATOM     25  C   UNL     1      -5.735   1.067   0.634  0.00  0.00    +0.134 A 
ATOM     26  C   UNL     1      -6.006   2.402   0.427  0.00  0.00    +0.130 A 
ENDBRANCH   5  17
ENDBRANCH  10   5
TORSDOF 4
