REMARK  Name = 45783278
REMARK  8 active torsions:
REMARK  status: ('A' for Active; 'I' for Inactive)
REMARK    1  A    between atoms: O_2  and  C_27
REMARK    2  A    between atoms: O_2  and  C_28
REMARK    3  A    between atoms: N_3  and  C_13
REMARK    4  A    between atoms: N_7  and  C_26
REMARK    5  A    between atoms: C_9  and  C_14
REMARK    6  A    between atoms: C_13  and  C_15
REMARK    7  A    between atoms: C_16  and  C_18
REMARK    8  A    between atoms: C_26  and  C_27
REMARK                            x       y       z     vdW  Elec       q    Type
REMARK                         _______ _______ _______ _____ _____    ______ ____
ROOT
ATOM      1  O   UNL     1      -2.603   2.232   0.129  0.00  0.00    -0.336 OA
ATOM      4  N   UNL     1      -1.056   0.695   0.638  0.00  0.00    -0.190 NA
ATOM      5  N   UNL     1      -1.363   2.824  -0.140  0.00  0.00    -0.056 NA
ATOM     14  C   UNL     1      -2.332   0.981   0.583  0.00  0.00    +0.245 A 
ATOM     16  C   UNL     1      -0.501   1.856   0.184  0.00  0.00    +0.202 A 
ENDROOT
BRANCH  16  18
ATOM      7  N   UNL     1       3.990   0.111   0.654  0.00  0.00    -0.327 N 
ATOM      8  N   UNL     1       3.688   2.330  -0.159  0.00  0.00    -0.240 NA
ATOM     18  C   UNL     1       0.920   2.017   0.069  0.00  0.00    +0.027 A 
ATOM     22  C   UNL     1       1.771   0.976   0.421  0.00  0.00    +0.055 A 
ATOM     23  C   UNL     1       1.451   3.215  -0.397  0.00  0.00    +0.031 A 
ATOM     24  C   UNL     1       3.135   1.181   0.290  0.00  0.00    +0.119 A 
ATOM     25  C   UNL     1       2.829   3.320  -0.491  0.00  0.00    +0.113 A 
ATOM     29  H   UNL     1       4.986   0.272   0.549  0.00  0.00    +0.148 HD
BRANCH   7  26
ATOM     26  C   UNL     1       3.498  -1.137   1.138  0.00  0.00    +0.131 C 
BRANCH  26  27
ATOM     27  C   UNL     1       4.659  -2.059   1.472  0.00  0.00    +0.178 C 
BRANCH  27   2
ATOM      2  O   UNL     1       5.415  -2.313   0.295  0.00  0.00    -0.381 OA
ATOM     28  C   UNL     1       6.511  -3.179   0.557  0.00  0.00    +0.194 C 
ENDBRANCH  27   2
ENDBRANCH  26  27
ENDBRANCH   7  26
ENDBRANCH  16  18
BRANCH  14   9
ATOM      3  N   UNL     1      -3.251  -1.321   0.805  0.00  0.00    -0.286 NA
ATOM      9  C   UNL     1      -3.525   0.122   0.949  0.00  0.00    +0.146 C 
ATOM     10  C   UNL     1      -3.954   0.294   2.417  0.00  0.00    +0.030 C 
ATOM     11  C   UNL     1      -3.949  -1.112   3.001  0.00  0.00    +0.017 C 
ATOM     12  C   UNL     1      -4.098  -2.003   1.784  0.00  0.00    +0.085 C 
BRANCH   3  13
ATOM     13  C   UNL     1      -3.471  -1.816  -0.548  0.00  0.00    +0.140 C 
BRANCH  13  15
ATOM      6  N   UNL     1      -2.593  -0.755  -2.554  0.00  0.00    -0.259 NA
ATOM     15  C   UNL     1      -2.315  -1.495  -1.458  0.00  0.00    +0.055 A 
ATOM     17  C   UNL     1      -1.050  -1.960  -1.137  0.00  0.00    +0.024 A 
ATOM     19  C   UNL     1      -0.003  -1.647  -1.998  0.00  0.00    +0.003 A 
ATOM     20  C   UNL     1      -1.551  -0.470  -3.367  0.00  0.00    +0.111 A 
ATOM     21  C   UNL     1      -0.251  -0.888  -3.136  0.00  0.00    +0.020 A 
ENDBRANCH  13  15
ENDBRANCH   3  13
ENDBRANCH  14   9
TORSDOF 7
