REMARK  Name = 26763540
REMARK  9 active torsions:
REMARK  status: ('A' for Active; 'I' for Inactive)
REMARK    1  A    between atoms: O_2  and  C_15
REMARK    2  A    between atoms: O_3  and  C_20
REMARK    3  A    between atoms: N_8  and  C_26
REMARK    4  A    between atoms: C_10  and  C_18
REMARK    5  A    between atoms: C_12  and  C_20
REMARK    6  A    between atoms: C_12  and  C_21
REMARK    7  A    between atoms: C_13  and  C_23
REMARK    8  A    between atoms: C_23  and  C_24
REMARK    9  A    between atoms: C_29  and  C_30
REMARK                            x       y       z     vdW  Elec       q    Type
REMARK                         _______ _______ _______ _____ _____    ______ ____
ROOT
ATOM      1  S   UNL     1       0.516   2.756   0.181  0.00  0.00    -0.057 S 
ATOM      5  O   UNL     1       4.016  -0.335  -0.142  0.00  0.00    -0.266 OA
ATOM      7  N   UNL     1       1.060   0.237  -0.039  0.00  0.00    -0.229 NA
ATOM      9  N   UNL     1       2.934   1.750   0.055  0.00  0.00    -0.258 N 
ATOM     10  C   UNL     1      -2.706  -0.480   0.371  0.00  0.00    -0.019 C 
ATOM     11  C   UNL     1      -3.123   0.894  -0.317  0.00  0.00    +0.011 C 
ATOM     12  C   UNL     1      -4.660   1.247  -0.339  0.00  0.00    +0.021 C 
ATOM     13  C   UNL     1      -1.221  -0.838  -0.098  0.00  0.00    +0.054 C 
ATOM     14  C   UNL     1      -3.656  -1.607  -0.112  0.00  0.00    +0.010 C 
ATOM     15  C   UNL     1      -5.466  -0.001  -0.798  0.00  0.00    +0.123 C 
ATOM     16  C   UNL     1      -2.216   2.066   0.160  0.00  0.00    +0.049 C 
ATOM     17  C   UNL     1      -5.133  -1.258  -0.002  0.00  0.00    +0.032 C 
ATOM     18  C   UNL     1      -2.756  -0.417   1.917  0.00  0.00    +0.012 C 
ATOM     19  C   UNL     1      -0.316   0.363   0.007  0.00  0.00    +0.058 A 
ATOM     21  C   UNL     1      -4.907   2.369  -1.386  0.00  0.00    +0.016 C 
ATOM     22  C   UNL     1      -0.783   1.657   0.104  0.00  0.00    +0.015 A 
ATOM     25  C   UNL     1       1.602   1.432   0.052  0.00  0.00    +0.165 A 
ATOM     29  C   UNL     1       4.053   0.886  -0.039  0.00  0.00    +0.285 C 
ATOM     37  H   UNL     1       3.126   2.746   0.132  0.00  0.00    +0.157 HD
ENDROOT
BRANCH  29  30
ATOM      6  O   UNL     1       5.433   2.895   0.057  0.00  0.00    -0.458 OA
ATOM     30  C   UNL     1       5.388   1.540  -0.036  0.00  0.00    +0.189 A 
ATOM     31  C   UNL     1       6.660   1.019  -0.111  0.00  0.00    +0.054 A 
ATOM     32  C   UNL     1       7.541   2.125  -0.061  0.00  0.00    +0.042 A 
ATOM     33  C   UNL     1       6.746   3.243   0.041  0.00  0.00    +0.196 A 
ENDBRANCH  29  30
BRANCH  15   2
ATOM      2  O   UNL     1      -6.869   0.244  -0.704  0.00  0.00    -0.391 OA
ATOM     34  H   UNL     1      -7.329  -0.542  -1.044  0.00  0.00    +0.210 HD
ENDBRANCH  15   2
BRANCH  12  20
ATOM     20  C   UNL     1      -5.209   1.797   0.996  0.00  0.00    +0.165 C 
BRANCH  20   3
ATOM      3  O   UNL     1      -6.581   2.074   0.818  0.00  0.00    -0.394 OA
ATOM     35  H   UNL     1      -6.917   2.428   1.659  0.00  0.00    +0.209 HD
ENDBRANCH  20   3
ENDBRANCH  12  20
BRANCH  13  23
ATOM     23  C   UNL     1      -0.611  -2.064   0.594  0.00  0.00    +0.106 C 
BRANCH  23  24
ATOM      4  O   UNL     1       0.722  -2.375  -1.404  0.00  0.00    -0.276 OA
ATOM      8  N   UNL     1       0.941  -3.868   0.360  0.00  0.00    -0.312 N 
ATOM     24  C   UNL     1       0.410  -2.756  -0.279  0.00  0.00    +0.214 C 
ATOM     36  H   UNL     1       0.621  -4.116   1.293  0.00  0.00    +0.149 HD
BRANCH   8  26
ATOM     26  C   UNL     1       1.934  -4.706  -0.248  0.00  0.00    +0.073 C 
ATOM     27  C   UNL     1       3.392  -4.356  -0.182  0.00  0.00    +0.024 C 
ATOM     28  C   UNL     1       2.868  -5.535   0.585  0.00  0.00    +0.024 C 
ENDBRANCH   8  26
ENDBRANCH  23  24
ENDBRANCH  13  23
TORSDOF 7
