REMARK  Name = 51137977
REMARK  9 active torsions:
REMARK  status: ('A' for Active; 'I' for Inactive)
REMARK    1  A    between atoms: O_2  and  C_28
REMARK    2  A    between atoms: O_2  and  C_29
REMARK    3  A    between atoms: N_5  and  C_23
REMARK    4  A    between atoms: C_7  and  C_11
REMARK    5  A    between atoms: C_8  and  C_14
REMARK    6  A    between atoms: C_11  and  C_17
REMARK    7  A    between atoms: C_17  and  C_25
REMARK    8  A    between atoms: C_17  and  C_26
REMARK    9  A    between atoms: C_23  and  C_28
REMARK                            x       y       z     vdW  Elec       q    Type
REMARK                         _______ _______ _______ _____ _____    ______ ____
ROOT
ATOM      3  N   UNL     1       1.563   1.163   0.663  0.00  0.00    -0.299 NA
ATOM      6  N   UNL     1       3.588  -3.463   0.655  0.00  0.00    -0.360 N 
ATOM      7  C   UNL     1       2.323   1.063  -0.590  0.00  0.00    +0.085 C 
ATOM      8  C   UNL     1       0.554   0.129   0.846  0.00  0.00    +0.145 C 
ATOM      9  C   UNL     1       1.074  -1.016   1.712  0.00  0.00    +0.065 C 
ATOM     10  C   UNL     1       3.190  -0.190  -0.749  0.00  0.00    -0.021 A 
ATOM     12  C   UNL     1       3.061  -1.380   0.024  0.00  0.00    +0.008 A 
ATOM     13  C   UNL     1       2.182  -1.793   1.084  0.00  0.00    -0.020 A 
ATOM     20  C   UNL     1       3.910  -2.463  -0.232  0.00  0.00    +0.047 A 
ATOM     21  C   UNL     1       2.548  -3.074   1.446  0.00  0.00    +0.087 A 
ATOM     22  C   UNL     1       4.151  -0.222  -1.791  0.00  0.00    +0.006 A 
ATOM     24  C   UNL     1       4.883  -2.458  -1.233  0.00  0.00    +0.026 A 
ATOM     27  C   UNL     1       4.981  -1.318  -2.020  0.00  0.00    +0.002 A 
ATOM     30  H   UNL     1       2.189   1.212   1.466  0.00  0.00    +0.123 HD
ATOM     31  H   UNL     1       4.046  -4.363   0.700  0.00  0.00    +0.165 HD
ENDROOT
BRANCH   8  14
ATOM      1  O   UNL     1      -0.336   1.741   2.324  0.00  0.00    -0.274 OA
ATOM      4  N   UNL     1      -1.859   0.324   1.291  0.00  0.00    -0.298 N 
ATOM      5  N   UNL     1      -4.526  -0.017   0.302  0.00  0.00    -0.297 NA
ATOM     14  C   UNL     1      -0.578   0.807   1.556  0.00  0.00    +0.233 C 
ATOM     15  C   UNL     1      -2.176  -0.783   0.384  0.00  0.00    +0.123 C 
ATOM     16  C   UNL     1      -3.002   0.839   2.043  0.00  0.00    +0.123 C 
ATOM     18  C   UNL     1      -3.373  -0.441  -0.506  0.00  0.00    +0.103 C 
ATOM     19  C   UNL     1      -4.178   1.154   1.120  0.00  0.00    +0.103 C 
BRANCH   5  23
ATOM     23  C   UNL     1      -5.673   0.278  -0.556  0.00  0.00    +0.112 C 
BRANCH  23  28
ATOM     28  C   UNL     1      -6.404  -1.001  -0.933  0.00  0.00    +0.174 C 
BRANCH  28   2
ATOM      2  O   UNL     1      -7.518  -0.665  -1.750  0.00  0.00    -0.382 OA
ATOM     29  C   UNL     1      -8.235  -1.824  -2.155  0.00  0.00    +0.194 C 
ENDBRANCH  28   2
ENDBRANCH  23  28
ENDBRANCH   5  23
ENDBRANCH   8  14
BRANCH   7  11
ATOM     11  C   UNL     1       3.147   2.362  -0.649  0.00  0.00    +0.026 C 
BRANCH  11  17
ATOM     17  C   UNL     1       2.314   3.581  -1.056  0.00  0.00    -0.015 C 
ATOM     25  C   UNL     1       3.225   4.809  -1.142  0.00  0.00    +0.007 C 
ATOM     26  C   UNL     1       1.163   3.859  -0.088  0.00  0.00    +0.007 C 
ENDBRANCH  11  17
ENDBRANCH   7  11
TORSDOF 6
