REMARK  Name = 51136656
REMARK  8 active torsions:
REMARK  status: ('A' for Active; 'I' for Inactive)
REMARK    1  A    between atoms: O_3  and  C_18
REMARK    2  A    between atoms: O_5  and  C_26
REMARK    3  A    between atoms: O_5  and  C_32
REMARK    4  A    between atoms: C_8  and  C_13
REMARK    5  A    between atoms: C_9  and  C_14
REMARK    6  A    between atoms: C_13  and  C_15
REMARK    7  A    between atoms: C_14  and  C_18
REMARK    8  A    between atoms: C_16  and  C_22
REMARK                            x       y       z     vdW  Elec       q    Type
REMARK                         _______ _______ _______ _____ _____    ______ ____
ROOT
ATOM      2  O   UNL     1       0.827   3.472   1.665  0.00  0.00    -0.270 OA
ATOM      6  N   UNL     1       1.868   2.041   0.135  0.00  0.00    -0.297 N 
ATOM      8  C   UNL     1       2.310  -0.257  -0.702  0.00  0.00    +0.016 C 
ATOM      9  C   UNL     1       3.713  -0.184  -0.048  0.00  0.00    +0.006 C 
ATOM     10  C   UNL     1       3.730   0.784   1.147  0.00  0.00    +0.023 C 
ATOM     11  C   UNL     1       1.814   1.161  -1.041  0.00  0.00    +0.112 C 
ATOM     12  C   UNL     1       3.187   2.156   0.756  0.00  0.00    +0.108 C 
ATOM     16  C   UNL     1       0.787   2.739   0.678  0.00  0.00    +0.247 C 
ENDROOT
BRANCH  16  22
ATOM      1  F   UNL     1      -3.887   1.464   0.812  0.00  0.00    -0.205 F 
ATOM     22  C   UNL     1      -0.521   2.599   0.029  0.00  0.00    +0.040 A 
ATOM     27  C   UNL     1      -1.604   2.088   0.744  0.00  0.00    +0.051 A 
ATOM     28  C   UNL     1      -0.681   2.977  -1.304  0.00  0.00    +0.013 A 
ATOM     29  C   UNL     1      -2.847   1.954   0.126  0.00  0.00    +0.124 A 
ATOM     30  C   UNL     1      -1.925   2.843  -1.923  0.00  0.00    +0.004 A 
ATOM     31  C   UNL     1      -3.007   2.332  -1.207  0.00  0.00    +0.038 A 
ENDBRANCH  16  22
BRANCH   8  13
ATOM     13  C   UNL     1       1.266  -0.998   0.144  0.00  0.00    +0.061 C 
BRANCH  13  15
ATOM      7  N   UNL     1       0.394  -1.728  -1.972  0.00  0.00    -0.287 NA
ATOM     15  C   UNL     1       0.130  -1.462  -0.735  0.00  0.00    +0.044 C 
ATOM     17  C   UNL     1      -1.228  -1.583  -0.144  0.00  0.00    -0.001 A 
ATOM     19  C   UNL     1      -2.303  -1.632  -1.040  0.00  0.00    -0.033 A 
ATOM     20  C   UNL     1      -2.021  -1.546  -2.510  0.00  0.00    +0.059 C 
ATOM     21  C   UNL     1      -0.697  -2.236  -2.810  0.00  0.00    +0.146 C 
ATOM     23  C   UNL     1      -1.450  -1.633   1.233  0.00  0.00    +0.013 A 
ATOM     24  C   UNL     1      -3.609  -1.706  -0.547  0.00  0.00    +0.050 A 
ATOM     25  C   UNL     1      -2.756  -1.722   1.716  0.00  0.00    +0.046 A 
ATOM     26  C   UNL     1      -3.833  -1.755   0.829  0.00  0.00    +0.120 A 
BRANCH  26   5
ATOM      5  O   UNL     1      -5.105  -1.834   1.308  0.00  0.00    -0.495 OA
ATOM     32  C   UNL     1      -5.263  -1.879   2.725  0.00  0.00    +0.277 C 
ENDBRANCH  26   5
ENDBRANCH  13  15
ENDBRANCH   8  13
BRANCH   9  14
ATOM     14  C   UNL     1       4.258  -1.552   0.359  0.00  0.00    +0.124 C 
BRANCH  14  18
ATOM      4  O   UNL     1       6.495  -0.587   0.276  0.00  0.00    -0.251 OA
ATOM     18  C   UNL     1       5.758  -1.542   0.470  0.00  0.00    +0.305 C 
BRANCH  18   3
ATOM      3  O   UNL     1       6.199  -2.775   0.828  0.00  0.00    -0.481 OA
ATOM     33  H   UNL     1       7.176  -2.804   0.910  0.00  0.00    +0.295 HD
ENDBRANCH  18   3
ENDBRANCH  14  18
ENDBRANCH   9  14
TORSDOF 7
