REMARK  Name = 40777419
REMARK  8 active torsions:
REMARK  status: ('A' for Active; 'I' for Inactive)
REMARK    1  A    between atoms: O_3  and  C_29
REMARK    2  A    between atoms: O_3  and  C_30
REMARK    3  A    between atoms: N_5  and  C_14
REMARK    4  A    between atoms: C_7  and  C_11
REMARK    5  A    between atoms: C_8  and  C_13
REMARK    6  A    between atoms: C_11  and  C_17
REMARK    7  A    between atoms: C_13  and  C_21
REMARK    8  A    between atoms: C_23  and  C_24
REMARK                            x       y       z     vdW  Elec       q    Type
REMARK                         _______ _______ _______ _____ _____    ______ ____
ROOT
ATOM      4  N   UNL     1      -1.199   1.567   1.734  0.00  0.00    -0.316 NA
ATOM      7  C   UNL     1      -2.131  -1.012   0.645  0.00  0.00    +0.004 C 
ATOM      8  C   UNL     1      -0.648  -0.572   0.600  0.00  0.00    +0.012 C 
ATOM      9  C   UNL     1      -2.837  -0.281   1.799  0.00  0.00    +0.019 C 
ATOM     10  C   UNL     1      -0.510   0.960   0.595  0.00  0.00    +0.085 C 
ATOM     12  C   UNL     1      -2.621   1.231   1.751  0.00  0.00    +0.081 C 
ATOM     31  H   UNL     1      -1.093   2.580   1.691  0.00  0.00    +0.122 HD
ENDROOT
BRANCH   7  11
ATOM     11  C   UNL     1      -2.883  -0.803  -0.674  0.00  0.00    +0.099 C 
BRANCH  11  17
ATOM      1  O   UNL     1      -4.649  -2.425  -0.355  0.00  0.00    -0.276 OA
ATOM      5  N   UNL     1      -5.200  -0.216  -0.823  0.00  0.00    -0.312 N 
ATOM     17  C   UNL     1      -4.322  -1.266  -0.593  0.00  0.00    +0.214 C 
ATOM     32  H   UNL     1      -4.828   0.721  -0.944  0.00  0.00    +0.149 HD
BRANCH   5  14
ATOM     14  C   UNL     1      -6.638  -0.372  -0.808  0.00  0.00    +0.073 C 
ATOM     15  C   UNL     1      -7.196  -0.192   0.607  0.00  0.00    +0.022 C 
ATOM     16  C   UNL     1      -7.306   0.591  -1.796  0.00  0.00    +0.022 C 
ATOM     18  C   UNL     1      -7.144   1.263   1.076  0.00  0.00    +0.002 C 
ATOM     19  C   UNL     1      -7.254   2.043  -1.323  0.00  0.00    +0.002 C 
ATOM     20  C   UNL     1      -7.825   2.199   0.082  0.00  0.00    +0.000 C 
ENDBRANCH   5  14
ENDBRANCH  11  17
ENDBRANCH   7  11
BRANCH   8  13
ATOM     13  C   UNL     1       0.124  -1.185  -0.569  0.00  0.00    +0.064 C 
BRANCH  13  21
ATOM      2  O   UNL     1       3.515  -1.928   0.387  0.00  0.00    -0.354 OA
ATOM      6  N   UNL     1       2.165  -2.244   0.301  0.00  0.00    -0.083 NA
ATOM     21  C   UNL     1       1.602  -1.193  -0.304  0.00  0.00    +0.085 A 
ATOM     22  C   UNL     1       2.539  -0.194  -0.619  0.00  0.00    +0.076 A 
ATOM     23  C   UNL     1       3.726  -0.705  -0.164  0.00  0.00    +0.167 A 
BRANCH  23  24
ATOM     24  C   UNL     1       5.083  -0.242  -0.147  0.00  0.00    +0.020 A 
ATOM     25  C   UNL     1       5.402   1.003  -0.690  0.00  0.00    +0.015 A 
ATOM     26  C   UNL     1       6.084  -1.036   0.412  0.00  0.00    +0.015 A 
ATOM     27  C   UNL     1       6.721   1.454  -0.674  0.00  0.00    +0.046 A 
ATOM     28  C   UNL     1       7.404  -0.585   0.428  0.00  0.00    +0.046 A 
ATOM     29  C   UNL     1       7.723   0.659  -0.115  0.00  0.00    +0.120 A 
BRANCH  29   3
ATOM      3  O   UNL     1       9.010   1.101  -0.096  0.00  0.00    -0.495 OA
ATOM     30  C   UNL     1       9.265   2.384  -0.666  0.00  0.00    +0.277 C 
ENDBRANCH  29   3
ENDBRANCH  23  24
ENDBRANCH  13  21
ENDBRANCH   8  13
TORSDOF 7
