REMARK  Name = 40779453
REMARK  7 active torsions:
REMARK  status: ('A' for Active; 'I' for Inactive)
REMARK    1  A    between atoms: N_3  and  C_17
REMARK    2  A    between atoms: N_4  and  C_14
REMARK    3  A    between atoms: C_7  and  C_13
REMARK    4  A    between atoms: C_8  and  C_14
REMARK    5  A    between atoms: C_16  and  C_19
REMARK    6  A    between atoms: C_18  and  C_20
REMARK    7  A    between atoms: C_31  and  C_35
REMARK                            x       y       z     vdW  Elec       q    Type
REMARK                         _______ _______ _______ _____ _____    ______ ____
ROOT
ATOM      2  N   UNL     1      -2.322  -3.616   1.461  0.00  0.00    -0.297 NA
ATOM      6  C   UNL     1      -1.541  -3.392  -1.013  0.00  0.00    +0.002 C 
ATOM      7  C   UNL     1      -0.318  -3.564  -0.070  0.00  0.00    +0.055 C 
ATOM      8  C   UNL     1      -2.966  -2.435   0.830  0.00  0.00    +0.074 C 
ATOM      9  C   UNL     1      -2.362  -2.165  -0.565  0.00  0.00    +0.024 C 
ATOM     10  C   UNL     1      -2.435  -4.634  -0.813  0.00  0.00    +0.019 C 
ATOM     11  C   UNL     1      -0.845  -3.488   1.391  0.00  0.00    +0.094 C 
ATOM     12  C   UNL     1      -2.719  -4.818   0.689  0.00  0.00    +0.085 C 
ENDROOT
BRANCH   7  13
ATOM      3  N   UNL     1       1.921  -3.007  -1.127  0.00  0.00    -0.270 N 
ATOM      5  N   UNL     1       2.896  -2.083  -1.186  0.00  0.00    -0.171 NA
ATOM     13  C   UNL     1       0.894  -2.671  -0.295  0.00  0.00    +0.044 A 
ATOM     15  C   UNL     1       1.220  -1.443   0.227  0.00  0.00    +0.053 A 
ATOM     16  C   UNL     1       2.462  -1.131  -0.357  0.00  0.00    +0.093 A 
ATOM     17  C   UNL     1       2.045  -4.214  -1.910  0.00  0.00    +0.172 C 
BRANCH  16  19
ATOM     19  C   UNL     1       3.242   0.059  -0.137  0.00  0.00    +0.003 A 
ATOM     21  C   UNL     1       4.633   0.009  -0.233  0.00  0.00    +0.018 A 
ATOM     22  C   UNL     1       2.608   1.260   0.171  0.00  0.00    +0.011 A 
ATOM     23  C   UNL     1       5.408   1.161  -0.022  0.00  0.00    -0.017 A 
ATOM     26  C   UNL     1       3.362   2.414   0.384  0.00  0.00    +0.009 A 
ATOM     27  C   UNL     1       4.763   2.381   0.291  0.00  0.00    -0.018 A 
ATOM     30  C   UNL     1       6.809   1.128  -0.114  0.00  0.00    +0.008 A 
ATOM     32  C   UNL     1       5.538   3.533   0.503  0.00  0.00    +0.008 A 
ATOM     33  C   UNL     1       7.563   2.283   0.099  0.00  0.00    +0.001 A 
ATOM     34  C   UNL     1       6.929   3.482   0.407  0.00  0.00    +0.001 A 
ENDBRANCH  16  19
ENDBRANCH   7  13
BRANCH   8  14
ATOM     14  C   UNL     1      -2.913  -1.195   1.724  0.00  0.00    +0.123 C 
BRANCH  14   4
ATOM      1  O   UNL     1      -1.866   1.375   0.986  0.00  0.00    -0.270 OA
ATOM      4  N   UNL     1      -3.642  -0.112   1.139  0.00  0.00    -0.310 N 
ATOM     18  C   UNL     1      -3.052   1.108   0.810  0.00  0.00    +0.244 C 
ATOM     36  H   UNL     1      -4.644  -0.234   1.047  0.00  0.00    +0.149 HD
BRANCH  18  20
ATOM     20  C   UNL     1      -3.950   2.141   0.234  0.00  0.00    +0.037 A 
ATOM     24  C   UNL     1      -3.650   3.494   0.391  0.00  0.00    +0.013 A 
ATOM     25  C   UNL     1      -5.095   1.757  -0.465  0.00  0.00    +0.013 A 
ATOM     28  C   UNL     1      -4.495   4.463  -0.150  0.00  0.00    +0.004 A 
ATOM     29  C   UNL     1      -5.940   2.726  -1.006  0.00  0.00    +0.004 A 
ATOM     31  C   UNL     1      -5.640   4.079  -0.849  0.00  0.00    -0.050 A 
ATOM     35  C   UNL     1      -6.542   5.116  -1.427  0.00  0.00    +0.044 C 
ENDBRANCH  18  20
ENDBRANCH  14   4
ENDBRANCH   8  14
TORSDOF 5
