REMARK  Name = 28962073
REMARK  8 active torsions:
REMARK  status: ('A' for Active; 'I' for Inactive)
REMARK    1  A    between atoms: O_3  and  C_11
REMARK    2  A    between atoms: O_4  and  C_18
REMARK    3  A    between atoms: N_5  and  C_9
REMARK    4  A    between atoms: N_7  and  C_15
REMARK    5  A    between atoms: N_7  and  C_20
REMARK    6  A    between atoms: C_10  and  C_15
REMARK    7  A    between atoms: C_12  and  C_18
REMARK    8  A    between atoms: C_20  and  C_22
REMARK                            x       y       z     vdW  Elec       q    Type
REMARK                         _______ _______ _______ _____ _____    ______ ____
ROOT
ATOM      2  O   UNL     1       1.638   2.571   0.751  0.00  0.00    -0.366 OA
ATOM      9  C   UNL     1      -0.672   2.004   0.656  0.00  0.00    +0.118 C 
ATOM     10  C   UNL     1       0.741   1.443   0.860  0.00  0.00    +0.152 C 
ATOM     11  C   UNL     1      -0.428   3.250  -0.182  0.00  0.00    +0.165 C 
ATOM     12  C   UNL     1       0.875   3.750   0.429  0.00  0.00    +0.174 C 
ENDROOT
BRANCH   9   5
ATOM      5  N   UNL     1      -1.658   1.081   0.122  0.00  0.00    -0.292 NA
ATOM      6  N   UNL     1      -4.088  -0.421   0.114  0.00  0.00    -0.313 N 
ATOM      8  N   UNL     1      -5.097  -2.498  -0.406  0.00  0.00    -0.240 NA
ATOM     13  C   UNL     1      -1.820  -0.072   1.015  0.00  0.00    +0.104 C 
ATOM     14  C   UNL     1      -2.949   1.756  -0.061  0.00  0.00    +0.104 C 
ATOM     16  C   UNL     1      -2.815  -1.080   0.435  0.00  0.00    +0.122 C 
ATOM     17  C   UNL     1      -3.982   0.809  -0.676  0.00  0.00    +0.122 C 
ATOM     19  C   UNL     1      -5.233  -1.218   0.008  0.00  0.00    +0.121 A 
ATOM     21  C   UNL     1      -6.445  -0.634   0.339  0.00  0.00    +0.043 A 
ATOM     23  C   UNL     1      -7.592  -1.414   0.239  0.00  0.00    +0.005 A 
ATOM     24  C   UNL     1      -6.234  -3.225  -0.491  0.00  0.00    +0.113 A 
ATOM     27  C   UNL     1      -7.493  -2.735  -0.183  0.00  0.00    +0.020 A 
ENDBRANCH   9   5
BRANCH  11   3
ATOM      3  O   UNL     1      -0.240   2.926  -1.554  0.00  0.00    -0.388 OA
ATOM     31  H   UNL     1      -0.197   3.761  -2.050  0.00  0.00    +0.210 HD
ENDBRANCH  11   3
BRANCH  10  15
ATOM     15  C   UNL     1       1.212   0.394  -0.142  0.00  0.00    +0.114 C 
BRANCH  15   7
ATOM      7  N   UNL     1       2.554  -0.069   0.180  0.00  0.00    -0.310 NA
ATOM     32  H   UNL     1       3.196   0.724   0.169  0.00  0.00    +0.122 HD
BRANCH   7  20
ATOM     20  C   UNL     1       2.999  -1.079  -0.771  0.00  0.00    +0.116 C 
BRANCH  20  22
ATOM      1  F   UNL     1       8.173  -2.960   0.433  0.00  0.00    -0.205 F 
ATOM     22  C   UNL     1       4.381  -1.581  -0.449  0.00  0.00    -0.033 A 
ATOM     25  C   UNL     1       5.498  -0.949  -0.996  0.00  0.00    +0.008 A 
ATOM     26  C   UNL     1       4.546  -2.679   0.397  0.00  0.00    +0.008 A 
ATOM     28  C   UNL     1       6.779  -1.415  -0.698  0.00  0.00    +0.038 A 
ATOM     29  C   UNL     1       5.826  -3.144   0.695  0.00  0.00    +0.038 A 
ATOM     30  C   UNL     1       6.943  -2.512   0.148  0.00  0.00    +0.123 A 
ENDBRANCH  20  22
ENDBRANCH   7  20
ENDBRANCH  15   7
ENDBRANCH  10  15
BRANCH  12  18
ATOM     18  C   UNL     1       1.707   4.657  -0.459  0.00  0.00    +0.190 C 
BRANCH  18   4
ATOM      4  O   UNL     1       2.874   5.046   0.248  0.00  0.00    -0.392 OA
ATOM     33  H   UNL     1       3.385   5.627  -0.341  0.00  0.00    +0.210 HD
ENDBRANCH  18   4
ENDBRANCH  12  18
TORSDOF 8
