REMARK  Name = 56773973
REMARK  6 active torsions:
REMARK  status: ('A' for Active; 'I' for Inactive)
REMARK    1  A    between atoms: O_2  and  C_31
REMARK    2  A    between atoms: N_4  and  C_13
REMARK    3  A    between atoms: C_9  and  C_14
REMARK    4  A    between atoms: C_13  and  C_19
REMARK    5  A    between atoms: C_21  and  C_22
REMARK    6  A    between atoms: C_29  and  C_31
REMARK                            x       y       z     vdW  Elec       q    Type
REMARK                         _______ _______ _______ _____ _____    ______ ____
ROOT
ATOM      4  N   UNL     1      -3.584  -0.681  -1.225  0.00  0.00    -0.287 NA
ATOM      9  C   UNL     1      -3.688  -1.203   0.152  0.00  0.00    +0.146 C 
ATOM     10  C   UNL     1      -4.181  -2.652  -0.016  0.00  0.00    +0.030 C 
ATOM     11  C   UNL     1      -4.383  -2.833  -1.514  0.00  0.00    +0.017 C 
ATOM     12  C   UNL     1      -4.565  -1.417  -2.022  0.00  0.00    +0.085 C 
ENDROOT
BRANCH   9  14
ATOM      1  O   UNL     1      -2.469  -1.012   2.262  0.00  0.00    -0.336 OA
ATOM      6  N   UNL     1      -1.154  -1.122   0.452  0.00  0.00    -0.190 NA
ATOM      7  N   UNL     1      -1.152  -0.944   2.733  0.00  0.00    -0.056 NA
ATOM     14  C   UNL     1      -2.380  -1.115   0.910  0.00  0.00    +0.245 A 
ATOM     21  C   UNL     1      -0.435  -1.015   1.607  0.00  0.00    +0.202 A 
BRANCH  21  22
ATOM      5  N   UNL     1       3.755  -1.104  -0.750  0.00  0.00    -0.315 N 
ATOM      8  N   UNL     1       3.794  -0.919   1.592  0.00  0.00    -0.240 NA
ATOM     15  C   UNL     1       4.233  -0.966  -3.048  0.00  0.00    +0.020 C 
ATOM     16  C   UNL     1       5.459  -1.493  -2.323  0.00  0.00    +0.020 C 
ATOM     17  C   UNL     1       3.104  -1.222  -2.052  0.00  0.00    +0.106 C 
ATOM     18  C   UNL     1       5.210  -1.078  -0.874  0.00  0.00    +0.106 C 
ATOM     20  C   UNL     1       3.079  -1.025   0.449  0.00  0.00    +0.122 A 
ATOM     22  C   UNL     1       0.999  -0.984   1.602  0.00  0.00    +0.027 A 
ATOM     25  C   UNL     1       1.695  -1.061   0.400  0.00  0.00    +0.055 A 
ATOM     26  C   UNL     1       1.699  -0.874   2.798  0.00  0.00    +0.031 A 
ATOM     30  C   UNL     1       3.083  -0.846   2.740  0.00  0.00    +0.113 A 
ENDBRANCH  21  22
ENDBRANCH   9  14
BRANCH   4  13
ATOM     13  C   UNL     1      -3.780   0.761  -1.308  0.00  0.00    +0.120 C 
BRANCH  13  19
ATOM     19  C   UNL     1      -2.540   1.519  -0.914  0.00  0.00    -0.033 A 
ATOM     23  C   UNL     1      -2.584   2.426   0.144  0.00  0.00    +0.006 A 
ATOM     24  C   UNL     1      -1.347   1.315  -1.608  0.00  0.00    +0.006 A 
ATOM     27  C   UNL     1      -1.436   3.129   0.509  0.00  0.00    +0.015 A 
ATOM     28  C   UNL     1      -0.199   2.017  -1.243  0.00  0.00    +0.015 A 
ATOM     29  C   UNL     1      -0.243   2.924  -0.184  0.00  0.00    +0.059 A 
BRANCH  29  31
ATOM      3  O   UNL     1       1.029   4.480   1.114  0.00  0.00    -0.245 OA
ATOM     31  C   UNL     1       0.955   3.656   0.197  0.00  0.00    +0.337 C 
BRANCH  31   2
ATOM      2  O   UNL     1       2.027   3.339  -0.579  0.00  0.00    -0.477 OA
ATOM     32  H   UNL     1       2.830   3.836  -0.314  0.00  0.00    +0.295 HD
ENDBRANCH  31   2
ENDBRANCH  29  31
ENDBRANCH  13  19
ENDBRANCH   4  13
TORSDOF 6
