REMARK  Name = 45784012
REMARK  5 active torsions:
REMARK  status: ('A' for Active; 'I' for Inactive)
REMARK    1  A    between atoms: O_2  and  C_14
REMARK    2  A    between atoms: O_2  and  C_20
REMARK    3  A    between atoms: C_6  and  C_10
REMARK    4  A    between atoms: C_11  and  C_14
REMARK    5  A    between atoms: C_17  and  C_19
REMARK                            x       y       z     vdW  Elec       q    Type
REMARK                         _______ _______ _______ _____ _____    ______ ____
ROOT
ATOM      4  N   UNL     1       2.007  -1.592   0.028  0.00  0.00    -0.342 N 
ATOM      5  N   UNL     1       0.772   0.222  -0.321  0.00  0.00    -0.232 NA
ATOM     10  C   UNL     1       0.756  -1.085  -0.184  0.00  0.00    +0.113 A 
ATOM     12  C   UNL     1       2.890  -0.542   0.027  0.00  0.00    +0.066 A 
ATOM     13  C   UNL     1       2.094   0.579  -0.192  0.00  0.00    +0.089 A 
ATOM     15  C   UNL     1       4.274  -0.479   0.195  0.00  0.00    +0.031 A 
ATOM     16  C   UNL     1       2.698   1.847  -0.251  0.00  0.00    +0.030 A 
ATOM     17  C   UNL     1       4.858   0.791   0.134  0.00  0.00    -0.048 A 
ATOM     18  C   UNL     1       4.086   1.934  -0.085  0.00  0.00    +0.005 A 
ATOM     19  C   UNL     1       6.335   0.924   0.306  0.00  0.00    +0.044 C 
ATOM     21  H   UNL     1       2.243  -2.566   0.162  0.00  0.00    +0.167 HD
ENDROOT
BRANCH  10   6
ATOM      1  O   UNL     1      -3.831   0.265  -1.686  0.00  0.00    -0.273 OA
ATOM      3  N   UNL     1      -2.497  -0.765  -0.107  0.00  0.00    -0.299 N 
ATOM      6  C   UNL     1      -0.463  -1.989  -0.243  0.00  0.00    +0.074 C 
ATOM      7  C   UNL     1      -1.089  -2.186   1.147  0.00  0.00    +0.032 C 
ATOM      8  C   UNL     1      -1.657  -1.480  -1.060  0.00  0.00    +0.119 C 
ATOM      9  C   UNL     1      -2.089  -1.042   1.266  0.00  0.00    +0.108 C 
ATOM     11  C   UNL     1      -3.527   0.065  -0.509  0.00  0.00    +0.241 C 
BRANCH  11  14
ATOM     14  C   UNL     1      -4.294   0.734   0.602  0.00  0.00    +0.255 C 
BRANCH  14   2
ATOM      2  O   UNL     1      -5.261   1.552  -0.011  0.00  0.00    -0.374 OA
ATOM     20  C   UNL     1      -6.061   2.247   0.944  0.00  0.00    +0.194 C 
ENDBRANCH  14   2
ENDBRANCH  11  14
ENDBRANCH  10   6
TORSDOF 3
