REMARK  Name = 45783297
REMARK  4 active torsions:
REMARK  status: ('A' for Active; 'I' for Inactive)
REMARK    1  A    between atoms: N_3  and  C_13
REMARK    2  A    between atoms: C_9  and  C_14
REMARK    3  A    between atoms: C_13  and  C_15
REMARK    4  A    between atoms: C_16  and  C_21
REMARK                            x       y       z     vdW  Elec       q    Type
REMARK                         _______ _______ _______ _____ _____    ______ ____
ROOT
ATOM      1  O   UNL     1      -2.606   2.361   0.067  0.00  0.00    -0.336 OA
ATOM      4  N   UNL     1      -1.170   0.727   0.600  0.00  0.00    -0.190 NA
ATOM      6  N   UNL     1      -1.334   2.829  -0.287  0.00  0.00    -0.056 NA
ATOM     14  C   UNL     1      -2.419   1.117   0.581  0.00  0.00    +0.245 A 
ATOM     16  C   UNL     1      -0.542   1.810   0.058  0.00  0.00    +0.202 A 
ENDROOT
BRANCH  16  21
ATOM      2  O   UNL     1       5.501  -2.436   0.989  0.00  0.00    -0.377 OA
ATOM      5  N   UNL     1       3.795  -0.272   0.437  0.00  0.00    -0.311 N 
ATOM      8  N   UNL     1       3.652   1.903  -0.485  0.00  0.00    -0.240 NA
ATOM     17  C   UNL     1       3.551  -1.583  -0.176  0.00  0.00    +0.134 C 
ATOM     18  C   UNL     1       5.176  -0.035   0.878  0.00  0.00    +0.134 C 
ATOM     21  C   UNL     1       0.881   1.842  -0.125  0.00  0.00    +0.027 A 
ATOM     22  C   UNL     1       3.027   0.832   0.052  0.00  0.00    +0.122 A 
ATOM     23  C   UNL     1       4.122  -2.681   0.714  0.00  0.00    +0.178 C 
ATOM     24  C   UNL     1       5.660  -1.216   1.712  0.00  0.00    +0.178 C 
ATOM     25  C   UNL     1       1.658   0.752   0.251  0.00  0.00    +0.055 A 
ATOM     27  C   UNL     1       1.488   2.962  -0.681  0.00  0.00    +0.031 A 
ATOM     28  C   UNL     1       2.864   2.943  -0.838  0.00  0.00    +0.113 A 
ENDBRANCH  16  21
BRANCH  14   9
ATOM      3  N   UNL     1      -3.516  -1.082   0.973  0.00  0.00    -0.287 NA
ATOM      9  C   UNL     1      -3.662   0.386   1.044  0.00  0.00    +0.146 C 
ATOM     10  C   UNL     1      -4.006   0.673   2.517  0.00  0.00    +0.030 C 
ATOM     11  C   UNL     1      -4.093  -0.694   3.180  0.00  0.00    +0.017 C 
ATOM     12  C   UNL     1      -4.370  -1.634   2.024  0.00  0.00    +0.085 C 
BRANCH   3  13
ATOM     13  C   UNL     1      -3.838  -1.628  -0.339  0.00  0.00    +0.121 C 
BRANCH  13  15
ATOM      7  N   UNL     1      -0.390  -1.877  -1.883  0.00  0.00    -0.263 NA
ATOM     15  C   UNL     1      -2.702  -1.457  -1.312  0.00  0.00    -0.015 A 
ATOM     19  C   UNL     1      -2.874  -0.753  -2.498  0.00  0.00    +0.008 A 
ATOM     20  C   UNL     1      -1.451  -1.995  -1.053  0.00  0.00    +0.115 A 
ATOM     26  C   UNL     1      -1.806  -0.609  -3.377  0.00  0.00    +0.020 A 
ATOM     29  C   UNL     1      -0.596  -1.185  -3.026  0.00  0.00    +0.111 A 
ENDBRANCH  13  15
ENDBRANCH   3  13
ENDBRANCH  14   9
TORSDOF 4
