REMARK  Name = 38029949
REMARK  11 active torsions:
REMARK  status: ('A' for Active; 'I' for Inactive)
REMARK    1  A    between atoms: O_2  and  C_25
REMARK    2  A    between atoms: O_2  and  C_30
REMARK    3  A    between atoms: N_4  and  C_24
REMARK    4  A    between atoms: C_6  and  C_10
REMARK    5  A    between atoms: C_8  and  C_14
REMARK    6  A    between atoms: C_9  and  C_13
REMARK    7  A    between atoms: C_10  and  C_15
REMARK    8  A    between atoms: C_10  and  C_16
REMARK    9  A    between atoms: C_11  and  C_18
REMARK   10  A    between atoms: C_13  and  C_17
REMARK   11  A    between atoms: C_14  and  C_23
REMARK                            x       y       z     vdW  Elec       q    Type
REMARK                         _______ _______ _______ _____ _____    ______ ____
ROOT
ATOM      1  O   UNL     1      -0.900  -2.257  -1.527  0.00  0.00    -0.276 OA
ATOM      3  N   UNL     1       0.717  -1.529  -0.030  0.00  0.00    -0.298 N 
ATOM      4  N   UNL     1       3.160  -0.122   0.106  0.00  0.00    -0.324 N 
ATOM     17  C   UNL     1      -0.594  -1.736  -0.452  0.00  0.00    +0.216 C 
ATOM     19  C   UNL     1       1.122  -0.916   1.237  0.00  0.00    +0.126 C 
ATOM     20  C   UNL     1       1.837  -1.957  -0.864  0.00  0.00    +0.126 C 
ATOM     21  C   UNL     1       2.054   0.270   0.990  0.00  0.00    +0.124 C 
ATOM     22  C   UNL     1       2.777  -0.789  -1.149  0.00  0.00    +0.124 C 
ENDROOT
BRANCH   4  24
ATOM     24  C   UNL     1       4.347   0.620   0.112  0.00  0.00    +0.072 A 
ATOM     25  C   UNL     1       5.567   0.009  -0.175  0.00  0.00    +0.141 A 
ATOM     26  C   UNL     1       4.301   1.982   0.409  0.00  0.00    +0.027 A 
ATOM     27  C   UNL     1       6.742   0.761  -0.165  0.00  0.00    +0.047 A 
ATOM     28  C   UNL     1       5.476   2.734   0.419  0.00  0.00    +0.002 A 
ATOM     29  C   UNL     1       6.697   2.123   0.132  0.00  0.00    +0.004 A 
BRANCH  25   2
ATOM      2  O   UNL     1       5.634  -1.320  -0.467  0.00  0.00    -0.493 OA
ATOM     30  C   UNL     1       5.824  -2.215   0.627  0.00  0.00    +0.277 C 
ENDBRANCH  25   2
ENDBRANCH   4  24
BRANCH  17  13
ATOM     13  C   UNL     1      -1.683  -1.284   0.487  0.00  0.00    +0.103 C 
BRANCH  13   9
ATOM      6  C   UNL     1      -3.830   0.790  -0.713  0.00  0.00    -0.000 C 
ATOM      7  C   UNL     1      -3.380  -0.574  -1.257  0.00  0.00    +0.012 C 
ATOM      8  C   UNL     1      -5.088   0.629   0.176  0.00  0.00    +0.029 C 
ATOM      9  C   UNL     1      -3.056  -1.573  -0.130  0.00  0.00    +0.023 C 
ATOM     11  C   UNL     1      -4.136  -1.592   0.933  0.00  0.00    -0.073 C 
ATOM     12  C   UNL     1      -5.043  -0.606   1.046  0.00  0.00    -0.023 C 
ATOM     18  C   UNL     1      -4.176  -2.793   1.835  0.00  0.00    +0.039 C 
BRANCH   6  10
ATOM     10  C   UNL     1      -4.076   1.757  -1.875  0.00  0.00    -0.013 C 
ATOM     15  C   UNL     1      -2.758   2.359  -2.354  0.00  0.00    +0.007 C 
ATOM     16  C   UNL     1      -4.791   1.044  -3.019  0.00  0.00    +0.007 C 
ENDBRANCH   6  10
BRANCH   8  14
ATOM     14  C   UNL     1      -5.306   1.865   1.056  0.00  0.00    +0.126 C 
BRANCH  14  23
ATOM      5  N   UNL     1      -3.268   2.249   2.661  0.00  0.00    -0.197 NA
ATOM     23  C   UNL     1      -4.167   2.074   1.949  0.00  0.00    +0.063 C 
ENDBRANCH  14  23
ENDBRANCH   8  14
ENDBRANCH  13   9
ENDBRANCH  17  13
TORSDOF 7
