REMARK  Name = 11912309
REMARK  9 active torsions:
REMARK  status: ('A' for Active; 'I' for Inactive)
REMARK    1  A    between atoms: O_4  and  C_21
REMARK    2  A    between atoms: O_4  and  C_25
REMARK    3  A    between atoms: N_6  and  C_18
REMARK    4  A    between atoms: C_7  and  C_13
REMARK    5  A    between atoms: C_8  and  C_12
REMARK    6  A    between atoms: C_12  and  C_14
REMARK    7  A    between atoms: C_13  and  C_16
REMARK    8  A    between atoms: C_15  and  C_17
REMARK    9  A    between atoms: C_18  and  C_21
REMARK                            x       y       z     vdW  Elec       q    Type
REMARK                         _______ _______ _______ _____ _____    ______ ____
ROOT
ATOM      2  O   UNL     1      -3.014  -2.698  -0.531  0.00  0.00    -0.270 OA
ATOM      5  N   UNL     1      -1.433  -1.288   0.461  0.00  0.00    -0.297 N 
ATOM      7  C   UNL     1       1.310  -0.386   0.234  0.00  0.00    +0.004 C 
ATOM      8  C   UNL     1       0.141   0.629   0.297  0.00  0.00    +0.010 C 
ATOM      9  C   UNL     1       0.854  -1.739  -0.338  0.00  0.00    +0.023 C 
ATOM     10  C   UNL     1      -1.054   0.007   1.044  0.00  0.00    +0.112 C 
ATOM     11  C   UNL     1      -0.358  -2.278   0.416  0.00  0.00    +0.108 C 
ATOM     15  C   UNL     1      -2.695  -1.617  -0.037  0.00  0.00    +0.247 C 
ENDROOT
BRANCH  15  17
ATOM      1  F   UNL     1      -6.712   2.272   0.201  0.00  0.00    -0.205 F 
ATOM     17  C   UNL     1      -3.749  -0.598   0.025  0.00  0.00    +0.037 A 
ATOM     19  C   UNL     1      -4.144  -0.078   1.258  0.00  0.00    +0.016 A 
ATOM     20  C   UNL     1      -4.355  -0.148  -1.148  0.00  0.00    +0.016 A 
ATOM     22  C   UNL     1      -5.145   0.892   1.317  0.00  0.00    +0.039 A 
ATOM     23  C   UNL     1      -5.356   0.821  -1.089  0.00  0.00    +0.039 A 
ATOM     24  C   UNL     1      -5.751   1.341   0.144  0.00  0.00    +0.123 A 
ENDBRANCH  15  17
BRANCH   8  12
ATOM     12  C   UNL     1      -0.303   1.154  -1.074  0.00  0.00    +0.002 C 
ATOM     14  C   UNL     1      -1.375   2.214  -0.933  0.00  0.00    +0.004 C 
ENDBRANCH   8  12
BRANCH   7  13
ATOM     13  C   UNL     1       2.523   0.141  -0.532  0.00  0.00    +0.099 C 
BRANCH  13  16
ATOM      3  O   UNL     1       3.851  -1.458   0.706  0.00  0.00    -0.276 OA
ATOM      6  N   UNL     1       4.883  -0.089  -0.864  0.00  0.00    -0.313 N 
ATOM     16  C   UNL     1       3.800  -0.572  -0.143  0.00  0.00    +0.213 C 
ATOM     26  H   UNL     1       4.737   0.657  -1.538  0.00  0.00    +0.149 HD
BRANCH   6  18
ATOM     18  C   UNL     1       6.229  -0.587  -0.696  0.00  0.00    +0.132 C 
BRANCH  18  21
ATOM     21  C   UNL     1       6.982   0.190   0.368  0.00  0.00    +0.178 C 
BRANCH  21   4
ATOM      4  O   UNL     1       7.083   1.553  -0.026  0.00  0.00    -0.381 OA
ATOM     25  C   UNL     1       7.787   2.323   0.939  0.00  0.00    +0.194 C 
ENDBRANCH  21   4
ENDBRANCH  18  21
ENDBRANCH   6  18
ENDBRANCH  13  16
ENDBRANCH   7  13
TORSDOF 7
