REMARK  Name = 38028914
REMARK  11 active torsions:
REMARK  status: ('A' for Active; 'I' for Inactive)
REMARK    1  A    between atoms: N_4  and  C_16
REMARK    2  A    between atoms: N_6  and  C_27
REMARK    3  A    between atoms: C_8  and  C_12
REMARK    4  A    between atoms: C_9  and  C_16
REMARK    5  A    between atoms: C_11  and  C_15
REMARK    6  A    between atoms: C_12  and  C_17
REMARK    7  A    between atoms: C_12  and  C_18
REMARK    8  A    between atoms: C_13  and  C_19
REMARK    9  A    between atoms: C_15  and  C_20
REMARK   10  A    between atoms: C_27  and  C_29
REMARK   11  A    between atoms: C_27  and  C_30
REMARK                            x       y       z     vdW  Elec       q    Type
REMARK                         _______ _______ _______ _____ _____    ______ ____
ROOT
ATOM      8  C   UNL     1      -2.998  -0.665  -1.165  0.00  0.00    +0.000 C 
ATOM      9  C   UNL     1      -4.375  -0.285  -0.566  0.00  0.00    +0.032 C 
ATOM     10  C   UNL     1      -2.601  -2.087  -0.738  0.00  0.00    +0.012 C 
ATOM     11  C   UNL     1      -2.526  -2.236   0.793  0.00  0.00    +0.023 C 
ATOM     13  C   UNL     1      -3.737  -1.637   1.478  0.00  0.00    -0.073 C 
ATOM     14  C   UNL     1      -4.560  -0.777   0.850  0.00  0.00    -0.022 C 
ATOM     19  C   UNL     1      -4.009  -2.084   2.887  0.00  0.00    +0.039 C 
ENDROOT
BRANCH   8  12
ATOM     12  C   UNL     1      -2.994  -0.562  -2.693  0.00  0.00    -0.013 C 
ATOM     17  C   UNL     1      -1.575  -0.344  -3.209  0.00  0.00    +0.007 C 
ATOM     18  C   UNL     1      -3.607  -1.815  -3.312  0.00  0.00    +0.007 C 
ENDBRANCH   8  12
BRANCH  11  15
ATOM     15  C   UNL     1      -1.229  -1.630   1.343  0.00  0.00    +0.103 C 
BRANCH  15  20
ATOM      1  O   UNL     1      -0.245  -3.757   0.959  0.00  0.00    -0.276 OA
ATOM      3  N   UNL     1       1.170  -1.917   0.848  0.00  0.00    -0.298 N 
ATOM      5  N   UNL     1       3.732  -0.719   0.235  0.00  0.00    -0.312 N 
ATOM      7  N   UNL     1       5.575   0.634   0.829  0.00  0.00    -0.240 NA
ATOM     20  C   UNL     1      -0.066  -2.539   1.032  0.00  0.00    +0.216 C 
ATOM     21  C   UNL     1       2.347  -2.729   0.548  0.00  0.00    +0.126 C 
ATOM     22  C   UNL     1       1.380  -0.470   0.925  0.00  0.00    +0.126 C 
ATOM     23  C   UNL     1       3.330  -1.996  -0.361  0.00  0.00    +0.125 C 
ATOM     24  C   UNL     1       2.834  -0.097   1.211  0.00  0.00    +0.125 C 
ATOM     26  C   UNL     1       4.953  -0.134  -0.094  0.00  0.00    +0.121 A 
ATOM     28  C   UNL     1       5.453  -0.381  -1.362  0.00  0.00    +0.043 A 
ATOM     31  C   UNL     1       6.670   0.196  -1.706  0.00  0.00    +0.005 A 
ATOM     32  C   UNL     1       6.756   1.178   0.459  0.00  0.00    +0.113 A 
ATOM     33  C   UNL     1       7.341   0.992  -0.783  0.00  0.00    +0.020 A 
ENDBRANCH  15  20
ENDBRANCH  11  15
BRANCH   9  16
ATOM     16  C   UNL     1      -4.599   1.231  -0.613  0.00  0.00    +0.113 C 
BRANCH  16   4
ATOM      2  O   UNL     1      -2.648   3.209  -1.392  0.00  0.00    -0.253 OA
ATOM      4  N   UNL     1      -3.672   1.907   0.239  0.00  0.00    -0.299 N 
ATOM      6  N   UNL     1      -1.971   3.361   0.822  0.00  0.00    -0.297 N 
ATOM     25  C   UNL     1      -2.751   2.860  -0.216  0.00  0.00    +0.300 C 
ATOM     34  H   UNL     1      -3.724   1.742   1.239  0.00  0.00    +0.150 HD
ATOM     35  H   UNL     1      -2.077   2.953   1.746  0.00  0.00    +0.150 HD
BRANCH   6  27
ATOM     27  C   UNL     1      -0.944   4.356   0.620  0.00  0.00    +0.068 C 
ATOM     29  C   UNL     1       0.382   3.688   0.282  0.00  0.00    +0.027 C 
ATOM     30  C   UNL     1      -0.816   5.249   1.848  0.00  0.00    +0.027 C 
ENDBRANCH   6  27
ENDBRANCH  16   4
ENDBRANCH   9  16
TORSDOF 6
