REMARK  Name = 51137841
REMARK  7 active torsions:
REMARK  status: ('A' for Active; 'I' for Inactive)
REMARK    1  A    between atoms: O_3  and  C_20
REMARK    2  A    between atoms: O_3  and  C_26
REMARK    3  A    between atoms: O_4  and  C_22
REMARK    4  A    between atoms: O_4  and  C_28
REMARK    5  A    between atoms: C_9  and  C_13
REMARK    6  A    between atoms: C_14  and  C_15
REMARK    7  A    between atoms: C_16  and  C_19
REMARK                            x       y       z     vdW  Elec       q    Type
REMARK                         _______ _______ _______ _____ _____    ______ ____
ROOT
ATOM      2  O   UNL     1       1.519   1.478   2.763  0.00  0.00    -0.270 OA
ATOM      5  N   UNL     1       0.629   2.253   0.763  0.00  0.00    -0.297 N 
ATOM      9  C   UNL     1      -0.850   2.925  -0.976  0.00  0.00    +0.095 C 
ATOM     10  C   UNL     1      -0.960   3.905   0.203  0.00  0.00    +0.033 C 
ATOM     11  C   UNL     1       0.494   2.240  -0.695  0.00  0.00    +0.121 C 
ATOM     12  C   UNL     1      -0.348   3.142   1.370  0.00  0.00    +0.109 C 
ATOM     14  C   UNL     1       1.490   1.488   1.534  0.00  0.00    +0.247 C 
ENDROOT
BRANCH  14  15
ATOM     15  C   UNL     1       2.434   0.607   0.829  0.00  0.00    +0.041 A 
ATOM     17  C   UNL     1       2.067  -0.703   0.519  0.00  0.00    +0.062 A 
ATOM     18  C   UNL     1       3.696   1.081   0.470  0.00  0.00    +0.017 A 
ATOM     20  C   UNL     1       2.962  -1.538  -0.150  0.00  0.00    +0.162 A 
ATOM     21  C   UNL     1       4.590   0.246  -0.199  0.00  0.00    +0.050 A 
ATOM     22  C   UNL     1       4.223  -1.064  -0.508  0.00  0.00    +0.162 A 
BRANCH  20   3
ATOM      3  O   UNL     1       2.591  -2.815  -0.447  0.00  0.00    -0.491 OA
ATOM     26  C   UNL     1       1.284  -3.221  -0.046  0.00  0.00    +0.277 C 
ENDBRANCH  20   3
BRANCH  22   4
ATOM      4  O   UNL     1       5.106  -1.870  -1.163  0.00  0.00    -0.491 OA
ATOM     28  C   UNL     1       6.375  -1.307  -1.493  0.00  0.00    +0.277 C 
ENDBRANCH  22   4
ENDBRANCH  14  15
BRANCH   9  13
ATOM      1  O   UNL     1      -2.011   0.842  -0.390  0.00  0.00    -0.420 OA
ATOM      6  N   UNL     1      -3.195   2.201  -1.716  0.00  0.00    -0.112 NA
ATOM      7  N   UNL     1      -3.958   1.076  -1.466  0.00  0.00    -0.107 NA
ATOM     13  C   UNL     1      -2.067   2.021  -1.068  0.00  0.00    +0.222 A 
ATOM     16  C   UNL     1      -3.228   0.311  -0.689  0.00  0.00    +0.250 A 
BRANCH  16  19
ATOM      8  N   UNL     1      -5.045  -2.820   0.158  0.00  0.00    -0.263 NA
ATOM     19  C   UNL     1      -3.509  -0.974  -0.116  0.00  0.00    +0.057 A 
ATOM     23  C   UNL     1      -2.578  -1.618   0.691  0.00  0.00    +0.016 A 
ATOM     24  C   UNL     1      -4.717  -1.611  -0.350  0.00  0.00    +0.124 A 
ATOM     25  C   UNL     1      -2.880  -2.863   1.232  0.00  0.00    +0.020 A 
ATOM     27  C   UNL     1      -4.116  -3.416   0.938  0.00  0.00    +0.111 A 
ENDBRANCH  16  19
ENDBRANCH   9  13
TORSDOF 5
