REMARK  Name = 28960195
REMARK  11 active torsions:
REMARK  status: ('A' for Active; 'I' for Inactive)
REMARK    1  A    between atoms: O_2  and  C_17
REMARK    2  A    between atoms: N_6  and  C_15
REMARK    3  A    between atoms: N_6  and  C_18
REMARK    4  A    between atoms: N_6  and  C_20
REMARK    5  A    between atoms: N_7  and  C_19
REMARK    6  A    between atoms: C_8  and  C_12
REMARK    7  A    between atoms: C_9  and  C_14
REMARK    8  A    between atoms: C_12  and  C_15
REMARK    9  A    between atoms: C_14  and  C_17
REMARK   10  A    between atoms: C_16  and  C_21
REMARK   11  A    between atoms: C_18  and  C_19
REMARK                            x       y       z     vdW  Elec       q    Type
REMARK                         _______ _______ _______ _____ _____    ______ ____
ROOT
ATOM      1  O   UNL     1      -5.250  -1.879   0.086  0.00  0.00    -0.270 OA
ATOM      5  N   UNL     1      -3.440  -0.724  -0.845  0.00  0.00    -0.297 N 
ATOM      8  C   UNL     1      -1.408   0.677  -0.559  0.00  0.00    +0.012 C 
ATOM      9  C   UNL     1      -2.234   1.902  -1.029  0.00  0.00    +0.006 C 
ATOM     10  C   UNL     1      -2.006  -0.615  -1.146  0.00  0.00    +0.112 C 
ATOM     11  C   UNL     1      -3.733   1.719  -0.735  0.00  0.00    +0.023 C 
ATOM     13  C   UNL     1      -4.252   0.402  -1.304  0.00  0.00    +0.108 C 
ATOM     16  C   UNL     1      -4.051  -1.786  -0.173  0.00  0.00    +0.247 C 
ENDROOT
BRANCH  16  21
ATOM     21  C   UNL     1      -3.205  -2.898   0.273  0.00  0.00    +0.037 A 
ATOM     28  C   UNL     1      -2.619  -2.865   1.538  0.00  0.00    +0.013 A 
ATOM     29  C   UNL     1      -2.987  -3.989  -0.568  0.00  0.00    +0.013 A 
ATOM     32  C   UNL     1      -1.815  -3.924   1.962  0.00  0.00    +0.001 A 
ATOM     33  C   UNL     1      -2.184  -5.048  -0.144  0.00  0.00    +0.001 A 
ATOM     35  C   UNL     1      -1.598  -5.015   1.121  0.00  0.00    +0.000 A 
ENDBRANCH  16  21
BRANCH   8  12
ATOM     12  C   UNL     1      -1.279   0.560   0.965  0.00  0.00    +0.024 C 
BRANCH  12  15
ATOM     15  C   UNL     1      -0.059  -0.245   1.383  0.00  0.00    +0.105 C 
BRANCH  15   6
ATOM      6  N   UNL     1       1.150   0.342   0.857  0.00  0.00    -0.329 N 
BRANCH   6  20
ATOM     20  C   UNL     1       1.561   1.630   1.230  0.00  0.00    +0.030 A 
ATOM     24  C   UNL     1       1.240   2.125   2.494  0.00  0.00    +0.023 A 
ATOM     25  C   UNL     1       2.291   2.415   0.338  0.00  0.00    +0.023 A 
ATOM     30  C   UNL     1       1.649   3.406   2.866  0.00  0.00    +0.002 A 
ATOM     31  C   UNL     1       2.700   3.696   0.710  0.00  0.00    +0.002 A 
ATOM     34  C   UNL     1       2.379   4.191   1.974  0.00  0.00    +0.000 A 
ENDBRANCH   6  20
BRANCH   6  18
ATOM     18  C   UNL     1       1.949  -0.434  -0.094  0.00  0.00    +0.120 C 
BRANCH  18  19
ATOM     19  C   UNL     1       3.338  -0.675   0.483  0.00  0.00    +0.103 C 
BRANCH  19   7
ATOM      4  O   UNL     1       6.578  -2.025  -1.819  0.00  0.00    -0.377 OA
ATOM      7  N   UNL     1       4.148  -1.456  -0.450  0.00  0.00    -0.297 NA
ATOM     22  C   UNL     1       5.292  -2.069   0.238  0.00  0.00    +0.112 C 
ATOM     23  C   UNL     1       4.619  -0.617  -1.560  0.00  0.00    +0.112 C 
ATOM     26  C   UNL     1       6.128  -2.868  -0.757  0.00  0.00    +0.175 C 
ATOM     27  C   UNL     1       5.470  -1.450  -2.514  0.00  0.00    +0.175 C 
ENDBRANCH  19   7
ENDBRANCH  18  19
ENDBRANCH   6  18
ENDBRANCH  15   6
ENDBRANCH  12  15
ENDBRANCH   8  12
BRANCH   9  14
ATOM     14  C   UNL     1      -1.729   3.224  -0.452  0.00  0.00    +0.124 C 
BRANCH  14  17
ATOM      3  O   UNL     1      -2.816   4.351  -2.320  0.00  0.00    -0.251 OA
ATOM     17  C   UNL     1      -2.150   4.395  -1.297  0.00  0.00    +0.305 C 
BRANCH  17   2
ATOM      2  O   UNL     1      -1.677   5.545  -0.752  0.00  0.00    -0.481 OA
ATOM     36  H   UNL     1      -1.934   6.332  -1.280  0.00  0.00    +0.295 HD
ENDBRANCH  17   2
ENDBRANCH  14  17
ENDBRANCH   9  14
TORSDOF 11
