REMARK  Name = 71694004
REMARK  8 active torsions:
REMARK  status: ('A' for Active; 'I' for Inactive)
REMARK    1  A    between atoms: O_1  and  C_11
REMARK    2  A    between atoms: O_2  and  C_13
REMARK    3  A    between atoms: O_5  and  C_27
REMARK    4  A    between atoms: O_5  and  C_30
REMARK    5  A    between atoms: N_6  and  C_10
REMARK    6  A    between atoms: N_8  and  C_19
REMARK    7  A    between atoms: C_9  and  C_14
REMARK    8  A    between atoms: C_17  and  C_20
REMARK                            x       y       z     vdW  Elec       q    Type
REMARK                         _______ _______ _______ _____ _____    ______ ____
ROOT
ATOM      9  C   UNL     1       0.009  -2.428   0.897  0.00  0.00    +0.046 C 
ATOM     10  C   UNL     1       1.088  -2.307  -0.203  0.00  0.00    +0.112 C 
ATOM     11  C   UNL     1       1.630  -3.730  -0.327  0.00  0.00    +0.164 C 
ATOM     12  C   UNL     1      -0.416  -3.919   0.911  0.00  0.00    +0.044 C 
ATOM     13  C   UNL     1       0.377  -4.590  -0.210  0.00  0.00    +0.145 C 
ENDROOT
BRANCH   9  14
ATOM      7  N   UNL     1      -2.947  -0.633  -0.660  0.00  0.00    -0.240 NA
ATOM     14  C   UNL     1      -1.136  -1.455   0.714  0.00  0.00    -0.024 A 
ATOM     15  C   UNL     1      -1.439  -0.512   1.690  0.00  0.00    +0.009 A 
ATOM     16  C   UNL     1      -1.913  -1.474  -0.432  0.00  0.00    +0.116 A 
ATOM     18  C   UNL     1      -2.496   0.370   1.493  0.00  0.00    +0.044 A 
ATOM     19  C   UNL     1      -3.212   0.269   0.311  0.00  0.00    +0.121 A 
BRANCH  19   8
ATOM      4  O   UNL     1      -6.331   2.965  -0.516  0.00  0.00    -0.377 OA
ATOM      8  N   UNL     1      -4.272   1.164   0.126  0.00  0.00    -0.311 N 
ATOM     21  C   UNL     1      -5.416   0.725  -0.684  0.00  0.00    +0.134 C 
ATOM     22  C   UNL     1      -4.016   2.608   0.116  0.00  0.00    +0.134 C 
ATOM     23  C   UNL     1      -6.636   1.579  -0.357  0.00  0.00    +0.178 C 
ATOM     24  C   UNL     1      -5.311   3.362   0.399  0.00  0.00    +0.178 C 
ENDBRANCH  19   8
ENDBRANCH   9  14
BRANCH  10   6
ATOM      3  O   UNL     1       1.180   0.480  -0.889  0.00  0.00    -0.270 OA
ATOM      6  N   UNL     1       2.120  -1.367   0.153  0.00  0.00    -0.305 N 
ATOM     17  C   UNL     1       2.078  -0.032  -0.226  0.00  0.00    +0.244 C 
ATOM     31  H   UNL     1       2.907  -1.727   0.681  0.00  0.00    +0.149 HD
BRANCH  17  20
ATOM     20  C   UNL     1       3.233   0.802   0.197  0.00  0.00    +0.040 A 
ATOM     25  C   UNL     1       3.591   1.926  -0.547  0.00  0.00    +0.058 A 
ATOM     26  C   UNL     1       3.958   0.461   1.339  0.00  0.00    +0.013 A 
ATOM     27  C   UNL     1       4.675   2.709  -0.149  0.00  0.00    +0.121 A 
ATOM     28  C   UNL     1       5.042   1.243   1.737  0.00  0.00    +0.004 A 
ATOM     29  C   UNL     1       5.400   2.368   0.993  0.00  0.00    +0.045 A 
BRANCH  27   5
ATOM      5  O   UNL     1       5.026   3.806  -0.874  0.00  0.00    -0.495 OA
ATOM     30  C   UNL     1       4.241   4.097  -2.030  0.00  0.00    +0.277 C 
ENDBRANCH  27   5
ENDBRANCH  17  20
ENDBRANCH  10   6
BRANCH  11   1
ATOM      1  O   UNL     1       2.285  -3.949  -1.562  0.00  0.00    -0.387 OA
ATOM     32  H   UNL     1       2.517  -4.892  -1.607  0.00  0.00    +0.210 HD
ENDBRANCH  11   1
BRANCH  13   2
ATOM      2  O   UNL     1      -0.392  -4.537  -1.407  0.00  0.00    -0.389 OA
ATOM     33  H   UNL     1      -1.194  -5.068  -1.263  0.00  0.00    +0.210 HD
ENDBRANCH  13   2
TORSDOF 7
