REMARK  Name = 11941407
REMARK  7 active torsions:
REMARK  status: ('A' for Active; 'I' for Inactive)
REMARK    1  A    between atoms: S_1  and  C_21
REMARK    2  A    between atoms: S_1  and  C_28
REMARK    3  A    between atoms: S_2  and  C_29
REMARK    4  A    between atoms: S_2  and  C_30
REMARK    5  A    between atoms: N_7  and  C_9
REMARK    6  A    between atoms: C_17  and  C_21
REMARK    7  A    between atoms: C_20  and  C_23
REMARK                            x       y       z     vdW  Elec       q    Type
REMARK                         _______ _______ _______ _____ _____    ______ ____
ROOT
ATOM      3  O   UNL     1      -3.168  -3.251   0.311  0.00  0.00    -0.273 OA
ATOM      4  O   UNL     1      -0.171   0.039  -2.508  0.00  0.00    -0.270 OA
ATOM      6  N   UNL     1      -1.927  -0.575  -1.156  0.00  0.00    -0.284 N 
ATOM      8  N   UNL     1      -0.931  -2.843   0.431  0.00  0.00    -0.283 N 
ATOM      9  C   UNL     1      -3.958  -0.558   0.056  0.00  0.00    +0.104 C 
ATOM     10  C   UNL     1      -2.475  -0.949   0.134  0.00  0.00    +0.183 C 
ATOM     11  C   UNL     1      -4.267  -0.629  -1.440  0.00  0.00    +0.043 C 
ATOM     12  C   UNL     1      -2.970  -0.172  -2.089  0.00  0.00    +0.111 C 
ATOM     13  C   UNL     1      -2.240  -2.443   0.260  0.00  0.00    +0.240 C 
ATOM     14  C   UNL     1      -0.588  -0.437  -1.452  0.00  0.00    +0.249 C 
ATOM     15  C   UNL     1       0.403  -0.911  -0.451  0.00  0.00    +0.059 A 
ATOM     16  C   UNL     1       0.246  -2.069   0.330  0.00  0.00    +0.046 A 
ATOM     18  C   UNL     1       1.631  -0.227  -0.434  0.00  0.00    +0.023 A 
ATOM     19  C   UNL     1       1.349  -2.549   1.058  0.00  0.00    +0.024 A 
ATOM     20  C   UNL     1       2.699  -0.693   0.332  0.00  0.00    -0.017 A 
ATOM     22  C   UNL     1       2.562  -1.862   1.069  0.00  0.00    +0.010 A 
ATOM     32  H   UNL     1      -0.806  -3.801   0.749  0.00  0.00    +0.155 HD
ENDROOT
BRANCH  20  23
ATOM     23  C   UNL     1       3.954   0.027   0.341  0.00  0.00    -0.018 A 
ATOM     24  C   UNL     1       5.153  -0.664   0.515  0.00  0.00    +0.009 A 
ATOM     25  C   UNL     1       3.965   1.412   0.175  0.00  0.00    +0.009 A 
ATOM     26  C   UNL     1       6.363   0.029   0.523  0.00  0.00    +0.015 A 
ATOM     27  C   UNL     1       5.176   2.106   0.184  0.00  0.00    +0.015 A 
ATOM     29  C   UNL     1       6.375   1.414   0.358  0.00  0.00    +0.008 A 
BRANCH  29   2
ATOM      2  S   UNL     1       7.921   2.300   0.370  0.00  0.00    -0.129 S 
ATOM     30  C   UNL     1       8.794   1.538  -1.027  0.00  0.00    +0.090 C 
ENDBRANCH  29   2
ENDBRANCH  20  23
BRANCH   9   7
ATOM      5  O   UNL     1      -6.384   0.510   1.218  0.00  0.00    -0.275 OA
ATOM      7  N   UNL     1      -4.168   0.776   0.571  0.00  0.00    -0.309 N 
ATOM     17  C   UNL     1      -5.371   1.199   1.111  0.00  0.00    +0.223 C 
ATOM     31  H   UNL     1      -3.409   1.444   0.470  0.00  0.00    +0.149 HD
BRANCH  17  21
ATOM     21  C   UNL     1      -5.340   2.641   1.561  0.00  0.00    +0.164 C 
BRANCH  21   1
ATOM      1  S   UNL     1      -6.615   3.562   0.667  0.00  0.00    -0.155 S 
ATOM     28  C   UNL     1      -6.020   3.279  -1.017  0.00  0.00    +0.085 C 
ENDBRANCH  21   1
ENDBRANCH  17  21
ENDBRANCH   9   7
TORSDOF 5
