REMARK  Name = 26744148
REMARK  7 active torsions:
REMARK  status: ('A' for Active; 'I' for Inactive)
REMARK    1  A    between atoms: O_2  and  C_10
REMARK    2  A    between atoms: O_4  and  C_26
REMARK    3  A    between atoms: O_4  and  C_27
REMARK    4  A    between atoms: N_5  and  C_12
REMARK    5  A    between atoms: C_8  and  C_13
REMARK    6  A    between atoms: C_12  and  C_14
REMARK    7  A    between atoms: C_17  and  C_18
REMARK                            x       y       z     vdW  Elec       q    Type
REMARK                         _______ _______ _______ _____ _____    ______ ____
ROOT
ATOM      5  N   UNL     1      -2.286   1.191  -0.001  0.00  0.00    -0.285 NA
ATOM      8  C   UNL     1      -1.487   2.373  -0.386  0.00  0.00    +0.149 C 
ATOM      9  C   UNL     1      -1.726   3.394   0.741  0.00  0.00    +0.061 C 
ATOM     10  C   UNL     1      -2.707   2.714   1.688  0.00  0.00    +0.130 C 
ATOM     11  C   UNL     1      -3.397   1.689   0.808  0.00  0.00    +0.116 C 
ENDROOT
BRANCH   8  13
ATOM      3  O   UNL     1       0.666   2.838  -1.446  0.00  0.00    -0.336 OA
ATOM      6  N   UNL     1       0.699   1.101  -0.033  0.00  0.00    -0.190 NA
ATOM      7  N   UNL     1       1.978   2.349  -1.460  0.00  0.00    -0.056 NA
ATOM     13  C   UNL     1      -0.021   2.047  -0.581  0.00  0.00    +0.245 A 
ATOM     17  C   UNL     1       1.918   1.326  -0.602  0.00  0.00    +0.202 A 
BRANCH  17  18
ATOM     18  C   UNL     1       3.057   0.511  -0.292  0.00  0.00    +0.023 A 
ATOM     22  C   UNL     1       2.935  -0.543   0.612  0.00  0.00    +0.015 A 
ATOM     23  C   UNL     1       4.287   0.775  -0.895  0.00  0.00    +0.015 A 
ATOM     24  C   UNL     1       4.043  -1.335   0.915  0.00  0.00    +0.046 A 
ATOM     25  C   UNL     1       5.395  -0.016  -0.592  0.00  0.00    +0.046 A 
ATOM     26  C   UNL     1       5.273  -1.071   0.312  0.00  0.00    +0.120 A 
BRANCH  26   4
ATOM      4  O   UNL     1       6.355  -1.843   0.607  0.00  0.00    -0.495 OA
ATOM     27  C   UNL     1       6.160  -2.905   1.540  0.00  0.00    +0.277 C 
ENDBRANCH  26   4
ENDBRANCH  17  18
ENDBRANCH   8  13
BRANCH  10   2
ATOM      2  O   UNL     1      -3.623   3.651   2.220  0.00  0.00    -0.390 OA
ATOM     28  H   UNL     1      -3.109   4.318   2.706  0.00  0.00    +0.210 HD
ENDBRANCH  10   2
BRANCH   5  12
ATOM     12  C   UNL     1      -2.746   0.412  -1.143  0.00  0.00    +0.120 C 
BRANCH  12  14
ATOM      1  F   UNL     1      -4.104  -4.857   0.322  0.00  0.00    -0.205 F 
ATOM     14  C   UNL     1      -3.109  -0.996  -0.752  0.00  0.00    -0.033 A 
ATOM     15  C   UNL     1      -2.142  -2.001  -0.787  0.00  0.00    +0.008 A 
ATOM     16  C   UNL     1      -4.412  -1.295  -0.354  0.00  0.00    +0.008 A 
ATOM     19  C   UNL     1      -2.478  -3.305  -0.424  0.00  0.00    +0.038 A 
ATOM     20  C   UNL     1      -4.748  -2.600   0.009  0.00  0.00    +0.038 A 
ATOM     21  C   UNL     1      -3.781  -3.604  -0.027  0.00  0.00    +0.123 A 
ENDBRANCH  12  14
ENDBRANCH   5  12
TORSDOF 6
