REMARK  Name = 45783982
REMARK  12 active torsions:
REMARK  status: ('A' for Active; 'I' for Inactive)
REMARK    1  A    between atoms: N_2  and  C_14
REMARK    2  A    between atoms: N_8  and  C_36
REMARK    3  A    between atoms: N_8  and  C_37
REMARK    4  A    between atoms: N_8  and  C_38
REMARK    5  A    between atoms: C_9  and  C_13
REMARK    6  A    between atoms: C_10  and  C_14
REMARK    7  A    between atoms: C_12  and  C_17
REMARK    8  A    between atoms: C_13  and  C_18
REMARK    9  A    between atoms: C_13  and  C_19
REMARK   10  A    between atoms: C_16  and  C_22
REMARK   11  A    between atoms: C_17  and  C_25
REMARK   12  A    between atoms: C_27  and  C_28
REMARK                            x       y       z     vdW  Elec       q    Type
REMARK                         _______ _______ _______ _____ _____    ______ ____
ROOT
ATOM      9  C   UNL     1      -1.006  -1.099  -0.840  0.00  0.00    +0.000 C 
ATOM     10  C   UNL     1      -1.911  -2.339  -0.653  0.00  0.00    +0.029 C 
ATOM     11  C   UNL     1       0.107  -1.082   0.217  0.00  0.00    +0.012 C 
ATOM     12  C   UNL     1       0.976  -2.358   0.211  0.00  0.00    +0.024 C 
ATOM     15  C   UNL     1      -1.124  -3.597  -0.390  0.00  0.00    -0.023 C 
ATOM     16  C   UNL     1       0.169  -3.627  -0.016  0.00  0.00    -0.073 C 
ATOM     22  C   UNL     1       0.883  -4.942   0.135  0.00  0.00    +0.039 C 
ENDROOT
BRANCH   9  13
ATOM     13  C   UNL     1      -0.425  -1.040  -2.259  0.00  0.00    -0.013 C 
ATOM     18  C   UNL     1       0.775  -0.099  -2.304  0.00  0.00    +0.007 C 
ATOM     19  C   UNL     1      -1.494  -0.602  -3.255  0.00  0.00    +0.007 C 
ENDBRANCH   9  13
BRANCH  10  14
ATOM     14  C   UNL     1      -2.925  -2.134   0.478  0.00  0.00    +0.092 C 
BRANCH  14   2
ATOM      2  N   UNL     1      -3.725  -0.932   0.243  0.00  0.00    -0.299 NA
ATOM      3  N   UNL     1      -6.107   0.642   0.177  0.00  0.00    -0.297 N 
ATOM      6  N   UNL     1      -7.311   2.454   1.028  0.00  0.00    -0.223 NA
ATOM      7  N   UNL     1      -8.050   1.288  -0.947  0.00  0.00    -0.223 NA
ATOM     20  C   UNL     1      -4.758  -1.191  -0.768  0.00  0.00    +0.103 C 
ATOM     21  C   UNL     1      -4.350  -0.478   1.491  0.00  0.00    +0.103 C 
ATOM     23  C   UNL     1      -5.565   0.075  -1.064  0.00  0.00    +0.123 C 
ATOM     24  C   UNL     1      -5.145   0.812   1.270  0.00  0.00    +0.123 C 
ATOM     26  C   UNL     1      -7.208   1.501   0.082  0.00  0.00    +0.218 A 
ATOM     29  C   UNL     1      -8.383   3.264   0.906  0.00  0.00    +0.116 A 
ATOM     30  C   UNL     1      -9.099   2.134  -1.009  0.00  0.00    +0.116 A 
ATOM     31  C   UNL     1      -9.319   3.150  -0.101  0.00  0.00    +0.039 A 
ENDBRANCH  14   2
ENDBRANCH  10  14
BRANCH  12  17
ATOM     17  C   UNL     1       1.797  -2.397   1.506  0.00  0.00    +0.105 C 
BRANCH  17  25
ATOM      1  O   UNL     1       3.706  -0.986   0.939  0.00  0.00    -0.420 OA
ATOM      4  N   UNL     1       2.355  -0.118   2.497  0.00  0.00    -0.112 NA
ATOM      5  N   UNL     1       3.383   0.779   2.276  0.00  0.00    -0.107 NA
ATOM     25  C   UNL     1       2.583  -1.132   1.696  0.00  0.00    +0.218 A 
ATOM     27  C   UNL     1       4.147   0.231   1.360  0.00  0.00    +0.248 A 
BRANCH  27  28
ATOM     28  C   UNL     1       5.352   0.708   0.745  0.00  0.00    +0.039 A 
ATOM     32  C   UNL     1       5.880   1.946   1.112  0.00  0.00    +0.015 A 
ATOM     33  C   UNL     1       5.996  -0.067  -0.220  0.00  0.00    +0.015 A 
ATOM     34  C   UNL     1       7.052   2.409   0.515  0.00  0.00    +0.024 A 
ATOM     35  C   UNL     1       7.168   0.397  -0.818  0.00  0.00    +0.024 A 
ATOM     36  C   UNL     1       7.696   1.635  -0.450  0.00  0.00    +0.029 A 
BRANCH  36   8
ATOM      8  N   UNL     1       8.880   2.104  -1.055  0.00  0.00    -0.336 N 
ATOM     37  C   UNL     1       9.436   3.390  -0.681  0.00  0.00    +0.129 C 
ATOM     38  C   UNL     1       9.562   1.304  -2.053  0.00  0.00    +0.129 C 
ENDBRANCH  36   8
ENDBRANCH  27  28
ENDBRANCH  17  25
ENDBRANCH  12  17
TORSDOF 7
