REMARK  Name = 40779265
REMARK  10 active torsions:
REMARK  status: ('A' for Active; 'I' for Inactive)
REMARK    1  A    between atoms: O_2  and  C_22
REMARK    2  A    between atoms: O_2  and  C_28
REMARK    3  A    between atoms: O_3  and  C_27
REMARK    4  A    between atoms: O_3  and  C_29
REMARK    5  A    between atoms: N_5  and  C_19
REMARK    6  A    between atoms: N_6  and  C_16
REMARK    7  A    between atoms: C_9  and  C_15
REMARK    8  A    between atoms: C_10  and  C_16
REMARK    9  A    between atoms: C_18  and  C_21
REMARK   10  A    between atoms: C_20  and  C_22
REMARK                            x       y       z     vdW  Elec       q    Type
REMARK                         _______ _______ _______ _____ _____    ______ ____
ROOT
ATOM      4  N   UNL     1      -2.977  -2.322   0.666  0.00  0.00    -0.297 NA
ATOM      8  C   UNL     1      -1.526  -2.097  -1.486  0.00  0.00    +0.002 C 
ATOM      9  C   UNL     1      -0.681  -2.679  -0.319  0.00  0.00    +0.055 C 
ATOM     10  C   UNL     1      -3.125  -0.959   0.093  0.00  0.00    +0.074 C 
ATOM     11  C   UNL     1      -2.119  -0.739  -1.058  0.00  0.00    +0.024 C 
ATOM     12  C   UNL     1      -2.712  -3.062  -1.701  0.00  0.00    +0.019 C 
ATOM     13  C   UNL     1      -1.549  -2.594   0.969  0.00  0.00    +0.094 C 
ATOM     14  C   UNL     1      -3.425  -3.296  -0.358  0.00  0.00    +0.085 C 
ENDROOT
BRANCH   9  15
ATOM      5  N   UNL     1       1.742  -2.880   0.407  0.00  0.00    -0.270 N 
ATOM      7  N   UNL     1       2.904  -2.212   0.516  0.00  0.00    -0.171 NA
ATOM     15  C   UNL     1       0.723  -2.132  -0.105  0.00  0.00    +0.044 A 
ATOM     17  C   UNL     1       1.254  -0.889  -0.347  0.00  0.00    +0.053 A 
ATOM     18  C   UNL     1       2.599  -0.997   0.054  0.00  0.00    +0.093 A 
ATOM     19  C   UNL     1       1.681  -4.262   0.823  0.00  0.00    +0.172 C 
BRANCH  18  21
ATOM     21  C   UNL     1       3.598   0.040   0.006  0.00  0.00    +0.002 A 
ATOM     23  C   UNL     1       3.223   1.376   0.143  0.00  0.00    +0.013 A 
ATOM     24  C   UNL     1       4.939  -0.294  -0.178  0.00  0.00    +0.013 A 
ATOM     25  C   UNL     1       4.191   2.380   0.095  0.00  0.00    +0.046 A 
ATOM     26  C   UNL     1       5.907   0.710  -0.226  0.00  0.00    +0.046 A 
ATOM     27  C   UNL     1       5.533   2.046  -0.089  0.00  0.00    +0.120 A 
BRANCH  27   3
ATOM      3  O   UNL     1       6.478   3.025  -0.136  0.00  0.00    -0.495 OA
ATOM     29  C   UNL     1       6.026   4.370   0.011  0.00  0.00    +0.277 C 
ENDBRANCH  27   3
ENDBRANCH  18  21
ENDBRANCH   9  15
BRANCH  10  16
ATOM     16  C   UNL     1      -3.021   0.135   1.158  0.00  0.00    +0.123 C 
BRANCH  16   6
ATOM      1  O   UNL     1      -5.583   1.459   0.945  0.00  0.00    -0.273 OA
ATOM      6  N   UNL     1      -3.283   1.423   0.595  0.00  0.00    -0.312 N 
ATOM     20  C   UNL     1      -4.555   1.989   0.532  0.00  0.00    +0.239 C 
ATOM     30  H   UNL     1      -2.496   1.946   0.220  0.00  0.00    +0.149 HD
BRANCH  20  22
ATOM     22  C   UNL     1      -4.541   3.358  -0.113  0.00  0.00    +0.255 C 
BRANCH  22   2
ATOM      2  O   UNL     1      -5.842   3.906  -0.148  0.00  0.00    -0.374 OA
ATOM     28  C   UNL     1      -5.859   5.197  -0.750  0.00  0.00    +0.194 C 
ENDBRANCH  22   2
ENDBRANCH  20  22
ENDBRANCH  16   6
ENDBRANCH  10  16
TORSDOF 7
