REMARK  Name = 28961242
REMARK  11 active torsions:
REMARK  status: ('A' for Active; 'I' for Inactive)
REMARK    1  A    between atoms: O_4  and  C_11
REMARK    2  A    between atoms: O_5  and  C_18
REMARK    3  A    between atoms: N_6  and  C_9
REMARK    4  A    between atoms: N_7  and  C_21
REMARK    5  A    between atoms: N_8  and  C_13
REMARK    6  A    between atoms: N_8  and  C_19
REMARK    7  A    between atoms: N_8  and  C_20
REMARK    8  A    between atoms: C_10  and  C_13
REMARK    9  A    between atoms: C_12  and  C_18
REMARK   10  A    between atoms: C_19  and  C_22
REMARK   11  A    between atoms: C_20  and  C_23
REMARK                            x       y       z     vdW  Elec       q    Type
REMARK                         _______ _______ _______ _____ _____    ______ ____
ROOT
ATOM     13  C   UNL     1       0.659   0.272  -0.485  0.00  0.00    +0.118 C 
ENDROOT
BRANCH  13  10
ATOM      3  O   UNL     1       0.342  -0.664   1.692  0.00  0.00    -0.366 OA
ATOM      9  C   UNL     1       2.567   0.074   1.274  0.00  0.00    +0.118 C 
ATOM     10  C   UNL     1       1.087   0.347   0.976  0.00  0.00    +0.152 C 
ATOM     11  C   UNL     1       2.585  -1.414   1.587  0.00  0.00    +0.165 C 
ATOM     12  C   UNL     1       1.267  -1.560   2.338  0.00  0.00    +0.174 C 
BRANCH   9   6
ATOM      6  N   UNL     1       3.521   0.510   0.257  0.00  0.00    -0.292 NA
ATOM      7  N   UNL     1       5.802   2.040  -0.647  0.00  0.00    -0.303 NA
ATOM     14  C   UNL     1       3.430   1.959   0.042  0.00  0.00    +0.100 C 
ATOM     15  C   UNL     1       4.890   0.132   0.630  0.00  0.00    +0.100 C 
ATOM     16  C   UNL     1       4.433   2.418  -1.022  0.00  0.00    +0.099 C 
ATOM     17  C   UNL     1       5.892   0.590  -0.434  0.00  0.00    +0.099 C 
ATOM     21  C   UNL     1       6.757   2.477  -1.663  0.00  0.00    +0.105 C 
ENDBRANCH   9   6
BRANCH  11   4
ATOM      4  O   UNL     1       2.567  -2.196   0.399  0.00  0.00    -0.388 OA
ATOM     34  H   UNL     1       2.686  -3.126   0.657  0.00  0.00    +0.210 HD
ENDBRANCH  11   4
BRANCH  12  18
ATOM     18  C   UNL     1       0.678  -2.958   2.359  0.00  0.00    +0.190 C 
BRANCH  18   5
ATOM      5  O   UNL     1      -0.532  -2.936   3.099  0.00  0.00    -0.392 OA
ATOM     35  H   UNL     1      -0.889  -3.840   3.092  0.00  0.00    +0.210 HD
ENDBRANCH  18   5
ENDBRANCH  12  18
ENDBRANCH  13  10
BRANCH  13   8
ATOM      8  N   UNL     1      -0.758   0.573  -0.630  0.00  0.00    -0.291 NA
BRANCH   8  19
ATOM     19  C   UNL     1      -1.285   0.005  -1.873  0.00  0.00    +0.120 C 
BRANCH  19  22
ATOM      1 CL   UNL     1      -3.667  -3.960   0.527  0.00  0.00    -0.084 Cl
ATOM     22  C   UNL     1      -1.518  -1.478  -1.757  0.00  0.00    -0.032 A 
ATOM     24  C   UNL     1      -2.384  -1.974  -0.783  0.00  0.00    +0.025 A 
ATOM     25  C   UNL     1      -0.868  -2.356  -2.624  0.00  0.00    +0.005 A 
ATOM     28  C   UNL     1      -2.599  -3.348  -0.675  0.00  0.00    +0.041 A 
ATOM     29  C   UNL     1      -1.083  -3.730  -2.517  0.00  0.00    +0.002 A 
ATOM     32  C   UNL     1      -1.949  -4.226  -1.542  0.00  0.00    +0.020 A 
ENDBRANCH  19  22
ENDBRANCH   8  19
BRANCH   8  20
ATOM     20  C   UNL     1      -0.986   2.020  -0.599  0.00  0.00    +0.120 C 
BRANCH  20  23
ATOM      2 CL   UNL     1      -6.625   3.364   1.010  0.00  0.00    -0.084 Cl
ATOM     23  C   UNL     1      -2.397   2.357  -0.196  0.00  0.00    -0.033 A 
ATOM     26  C   UNL     1      -3.388   2.485  -1.169  0.00  0.00    +0.006 A 
ATOM     27  C   UNL     1      -2.713   2.542   1.150  0.00  0.00    +0.006 A 
ATOM     30  C   UNL     1      -4.695   2.797  -0.796  0.00  0.00    +0.020 A 
ATOM     31  C   UNL     1      -4.020   2.854   1.523  0.00  0.00    +0.020 A 
ATOM     33  C   UNL     1      -5.011   2.982   0.550  0.00  0.00    +0.041 A 
ENDBRANCH  20  23
ENDBRANCH   8  20
ENDBRANCH  13   8
TORSDOF 10
