REMARK  Name = 7682267
REMARK  5 active torsions:
REMARK  status: ('A' for Active; 'I' for Inactive)
REMARK    1  A    between atoms: N_4  and  C_14
REMARK    2  A    between atoms: N_6  and  C_29
REMARK    3  A    between atoms: C_14  and  C_19
REMARK    4  A    between atoms: C_15  and  C_20
REMARK    5  A    between atoms: C_31  and  C_32
REMARK                            x       y       z     vdW  Elec       q    Type
REMARK                         _______ _______ _______ _____ _____    ______ ____
ROOT
ATOM      2  O   UNL     1       4.433   2.038  -2.078  0.00  0.00    -0.268 OA
ATOM      4  N   UNL     1       2.430  -1.033   1.301  0.00  0.00    -0.297 NA
ATOM      5  N   UNL     1       2.873   1.632  -0.379  0.00  0.00    -0.311 N 
ATOM      7  C   UNL     1       3.603   1.059   2.014  0.00  0.00    +0.024 C 
ATOM      8  C   UNL     1       1.222   1.153   1.453  0.00  0.00    +0.051 C 
ATOM      9  C   UNL     1       2.282   1.699   2.407  0.00  0.00    +0.017 C 
ATOM     10  C   UNL     1       3.509  -0.476   2.126  0.00  0.00    +0.090 C 
ATOM     11  C   UNL     1       1.145  -0.386   1.599  0.00  0.00    +0.094 C 
ATOM     12  C   UNL     1       3.964   1.522   0.600  0.00  0.00    +0.130 C 
ATOM     13  C   UNL     1       1.520   1.548   0.004  0.00  0.00    +0.034 A 
ATOM     15  C   UNL     1       0.542   1.796  -0.906  0.00  0.00    +0.002 A 
ATOM     16  C   UNL     1       3.268   1.938  -1.693  0.00  0.00    +0.252 A 
ATOM     17  C   UNL     1       0.911   2.110  -2.273  0.00  0.00    +0.015 A 
ATOM     18  C   UNL     1       2.182   2.170  -2.672  0.00  0.00    +0.071 A 
ENDROOT
BRANCH  15  20
ATOM     20  C   UNL     1      -0.891   1.740  -0.544  0.00  0.00    -0.016 A 
ATOM     21  C   UNL     1      -1.583   0.538  -0.652  0.00  0.00    +0.010 A 
ATOM     22  C   UNL     1      -1.536   2.889  -0.100  0.00  0.00    +0.010 A 
ATOM     25  C   UNL     1      -2.935   0.485  -0.311  0.00  0.00    +0.024 A 
ATOM     26  C   UNL     1      -2.888   2.837   0.241  0.00  0.00    +0.024 A 
ATOM     29  C   UNL     1      -3.587   1.634   0.135  0.00  0.00    +0.033 A 
BRANCH  29   6
ATOM      3  O   UNL     1      -5.524  -0.671   0.096  0.00  0.00    -0.276 OA
ATOM      6  N   UNL     1      -4.939   1.580   0.477  0.00  0.00    -0.286 N 
ATOM     31  C   UNL     1      -5.798   0.474   0.438  0.00  0.00    +0.214 C 
ATOM     32  C   UNL     1      -7.192   0.832   0.890  0.00  0.00    +0.109 C 
ATOM     33  H   UNL     1      -5.342   2.460   0.794  0.00  0.00    +0.155 HD
ENDBRANCH  29   6
ENDBRANCH  15  20
BRANCH   4  14
ATOM     14  C   UNL     1       2.338  -2.481   1.468  0.00  0.00    +0.119 C 
BRANCH  14  19
ATOM      1  F   UNL     1      -1.512  -4.750  -1.940  0.00  0.00    -0.205 F 
ATOM     19  C   UNL     1       1.310  -3.087   0.558  0.00  0.00    -0.033 A 
ATOM     23  C   UNL     1      -0.004  -3.213   0.992  0.00  0.00    +0.008 A 
ATOM     24  C   UNL     1       1.682  -3.516  -0.711  0.00  0.00    +0.008 A 
ATOM     27  C   UNL     1      -0.960  -3.776   0.146  0.00  0.00    +0.038 A 
ATOM     28  C   UNL     1       0.727  -4.079  -1.557  0.00  0.00    +0.038 A 
ATOM     30  C   UNL     1      -0.594  -4.209  -1.128  0.00  0.00    +0.123 A 
ENDBRANCH  14  19
ENDBRANCH   4  14
TORSDOF 4
