REMARK  Name = 40780192
REMARK  8 active torsions:
REMARK  status: ('A' for Active; 'I' for Inactive)
REMARK    1  A    between atoms: N_3  and  C_14
REMARK    2  A    between atoms: N_4  and  C_15
REMARK    3  A    between atoms: N_5  and  C_28
REMARK    4  A    between atoms: C_8  and  C_14
REMARK    5  A    between atoms: C_10  and  C_15
REMARK    6  A    between atoms: C_18  and  C_21
REMARK    7  A    between atoms: C_21  and  C_23
REMARK    8  A    between atoms: C_32  and  C_35
REMARK                            x       y       z     vdW  Elec       q    Type
REMARK                         _______ _______ _______ _____ _____    ______ ____
ROOT
ATOM      2  N   UNL     1      -0.887  -3.622   0.113  0.00  0.00    -0.298 NA
ATOM      7  C   UNL     1       0.588  -1.802  -1.018  0.00  0.00    -0.003 C 
ATOM      8  C   UNL     1       1.314  -2.424   0.197  0.00  0.00    +0.020 C 
ATOM      9  C   UNL     1      -0.761  -1.217  -0.561  0.00  0.00    +0.024 C 
ATOM     10  C   UNL     1      -1.658  -2.357  -0.030  0.00  0.00    +0.074 C 
ATOM     11  C   UNL     1       0.341  -3.388   0.912  0.00  0.00    +0.089 C 
ATOM     12  C   UNL     1       0.279  -2.955  -1.993  0.00  0.00    +0.019 C 
ATOM     13  C   UNL     1      -0.479  -4.064  -1.242  0.00  0.00    +0.085 C 
ENDROOT
BRANCH   8  14
ATOM     14  C   UNL     1       1.882  -1.383   1.158  0.00  0.00    +0.089 C 
BRANCH  14   3
ATOM      3  N   UNL     1       2.804  -0.480   0.468  0.00  0.00    -0.302 NA
ATOM     16  C   UNL     1       4.128  -1.103   0.333  0.00  0.00    +0.084 C 
ATOM     17  C   UNL     1       2.893   0.804   1.176  0.00  0.00    +0.084 C 
ATOM     18  C   UNL     1       5.208   1.181   0.233  0.00  0.00    -0.004 C 
ATOM     19  C   UNL     1       5.090  -0.194  -0.434  0.00  0.00    +0.019 C 
ATOM     20  C   UNL     1       3.812   1.779   0.438  0.00  0.00    +0.019 C 
BRANCH  18  21
ATOM     21  C   UNL     1       6.090   2.115  -0.591  0.00  0.00    +0.038 C 
BRANCH  21  23
ATOM     23  C   UNL     1       7.552   1.828  -0.381  0.00  0.00    -0.047 A 
ATOM     24  C   UNL     1       8.253   2.480   0.633  0.00  0.00    +0.003 A 
ATOM     25  C   UNL     1       8.206   0.908  -1.201  0.00  0.00    +0.003 A 
ATOM     26  C   UNL     1       9.608   2.213   0.827  0.00  0.00    +0.000 A 
ATOM     27  C   UNL     1       9.562   0.641  -1.007  0.00  0.00    +0.000 A 
ATOM     29  C   UNL     1      10.262   1.294   0.007  0.00  0.00    +0.000 A 
ENDBRANCH  21  23
ENDBRANCH  18  21
ENDBRANCH  14   3
ENDBRANCH   8  14
BRANCH  10  15
ATOM     15  C   UNL     1      -2.374  -1.961   1.263  0.00  0.00    +0.124 C 
BRANCH  15   4
ATOM      1  O   UNL     1      -5.125  -1.963   0.462  0.00  0.00    -0.253 OA
ATOM      4  N   UNL     1      -3.205  -0.815   1.055  0.00  0.00    -0.298 N 
ATOM      5  N   UNL     1      -5.108   0.383   0.537  0.00  0.00    -0.269 N 
ATOM     22  C   UNL     1      -4.553  -0.893   0.661  0.00  0.00    +0.304 C 
ATOM     36  H   UNL     1      -2.799   0.104   1.198  0.00  0.00    +0.150 HD
ATOM     37  H   UNL     1      -4.494   1.169   0.738  0.00  0.00    +0.156 HD
BRANCH   5  28
ATOM     28  C   UNL     1      -6.429   0.723   0.163  0.00  0.00    +0.036 A 
ATOM     30  C   UNL     1      -6.811   2.062   0.089  0.00  0.00    +0.042 A 
ATOM     31  C   UNL     1      -7.350  -0.282  -0.134  0.00  0.00    +0.023 A 
ATOM     32  C   UNL     1      -8.114   2.397  -0.281  0.00  0.00    +0.054 A 
ATOM     33  C   UNL     1      -8.652   0.052  -0.504  0.00  0.00    +0.003 A 
ATOM     34  C   UNL     1      -9.035   1.392  -0.577  0.00  0.00    +0.019 A 
BRANCH  32  35
ATOM      6  N   UNL     1      -8.825   4.883  -0.416  0.00  0.00    -0.191 NA
ATOM     35  C   UNL     1      -8.506   3.769  -0.355  0.00  0.00    +0.099 C 
ENDBRANCH  32  35
ENDBRANCH   5  28
ENDBRANCH  15   4
ENDBRANCH  10  15
TORSDOF 8
