REMARK  Name = 25314799
REMARK  6 active torsions:
REMARK  status: ('A' for Active; 'I' for Inactive)
REMARK    1  A    between atoms: O_3  and  C_9
REMARK    2  A    between atoms: O_4  and  C_19
REMARK    3  A    between atoms: O_4  and  C_24
REMARK    4  A    between atoms: N_5  and  C_8
REMARK    5  A    between atoms: N_6  and  C_18
REMARK    6  A    between atoms: N_7  and  C_10
REMARK                            x       y       z     vdW  Elec       q    Type
REMARK                         _______ _______ _______ _____ _____    ______ ____
ROOT
ATOM      5  N   UNL     1       1.057   0.050  -0.156  0.00  0.00    -0.290 NA
ATOM      6  N   UNL     1      -1.789   0.285  -0.089  0.00  0.00    -0.325 N 
ATOM     14  C   UNL     1       0.357   0.871  -1.151  0.00  0.00    +0.104 C 
ATOM     15  C   UNL     1       0.225  -1.100   0.218  0.00  0.00    +0.104 C 
ATOM     16  C   UNL     1      -0.970   1.394  -0.596  0.00  0.00    +0.120 C 
ATOM     17  C   UNL     1      -1.107  -0.643   0.818  0.00  0.00    +0.120 C 
ENDROOT
BRANCH   5   8
ATOM      1  O   UNL     1       3.503   1.559   0.136  0.00  0.00    -0.343 OA
ATOM      2  O   UNL     1       4.461   0.342  -1.591  0.00  0.00    -0.347 OA
ATOM      8  C   UNL     1       2.349  -0.399  -0.678  0.00  0.00    +0.143 C 
ATOM      9  C   UNL     1       3.082  -1.280   0.359  0.00  0.00    +0.156 C 
ATOM     10  C   UNL     1       3.969  -0.481   1.346  0.00  0.00    +0.113 C 
ATOM     11  C   UNL     1       3.214   0.818  -1.057  0.00  0.00    +0.270 C 
ATOM     12  C   UNL     1       4.569   0.791   0.706  0.00  0.00    +0.166 C 
ATOM     13  C   UNL     1       5.410   0.529  -0.530  0.00  0.00    +0.196 C 
BRANCH  10   7
ATOM      7  N   UNL     1       3.194  -0.079   2.525  0.00  0.00    -0.323 NA
ATOM     25  H   UNL     1       3.803   0.394   3.191  0.00  0.00    +0.119 HD
ATOM     26  H   UNL     1       2.838  -0.908   2.999  0.00  0.00    +0.119 HD
ENDBRANCH  10   7
BRANCH   9   3
ATOM      3  O   UNL     1       3.916  -2.197  -0.364  0.00  0.00    -0.388 OA
ATOM     27  H   UNL     1       4.358  -2.772   0.285  0.00  0.00    +0.210 HD
ENDBRANCH   9   3
ENDBRANCH   5   8
BRANCH   6  18
ATOM     18  C   UNL     1      -3.168   0.489   0.034  0.00  0.00    +0.072 A 
ATOM     19  C   UNL     1      -4.058  -0.576  -0.105  0.00  0.00    +0.141 A 
ATOM     20  C   UNL     1      -3.650   1.771   0.299  0.00  0.00    +0.027 A 
ATOM     21  C   UNL     1      -5.430  -0.359   0.021  0.00  0.00    +0.047 A 
ATOM     22  C   UNL     1      -5.022   1.988   0.426  0.00  0.00    +0.002 A 
ATOM     23  C   UNL     1      -5.912   0.923   0.287  0.00  0.00    +0.004 A 
BRANCH  19   4
ATOM      4  O   UNL     1      -3.608  -1.835  -0.366  0.00  0.00    -0.493 OA
ATOM     24  C   UNL     1      -4.591  -2.861  -0.492  0.00  0.00    +0.277 C 
ENDBRANCH  19   4
ENDBRANCH   6  18
TORSDOF 5
