REMARK  Name = 44716889
REMARK  16 active torsions:
REMARK  status: ('A' for Active; 'I' for Inactive)
REMARK    1  A    between atoms: O_1  and  C_15
REMARK    2  A    between atoms: O_1  and  C_24
REMARK    3  A    between atoms: O_2  and  C_16
REMARK    4  A    between atoms: O_3  and  C_20
REMARK    5  A    between atoms: O_6  and  C_30
REMARK    6  A    between atoms: O_6  and  C_35
REMARK    7  A    between atoms: N_7  and  C_25
REMARK    8  A    between atoms: N_8  and  C_26
REMARK    9  A    between atoms: C_9  and  C_19
REMARK   10  A    between atoms: C_11  and  C_20
REMARK   11  A    between atoms: C_11  and  C_21
REMARK   12  A    between atoms: C_12  and  C_22
REMARK   13  A    between atoms: C_22  and  C_23
REMARK   14  A    between atoms: C_25  and  C_27
REMARK   15  A    between atoms: C_26  and  C_28
REMARK   16  A    between atoms: C_26  and  C_29
REMARK                            x       y       z     vdW  Elec       q    Type
REMARK                         _______ _______ _______ _____ _____    ______ ____
ROOT
ATOM      9  C   UNL     1      -0.266   1.719   0.638  0.00  0.00    -0.023 C 
ATOM     10  C   UNL     1      -0.854   1.704  -0.826  0.00  0.00    +0.007 C 
ATOM     11  C   UNL     1      -2.398   1.417  -0.966  0.00  0.00    +0.031 C 
ATOM     12  C   UNL     1       1.313   1.702   0.502  0.00  0.00    +0.032 C 
ATOM     13  C   UNL     1      -0.730   0.430   1.367  0.00  0.00    +0.011 C 
ATOM     14  C   UNL     1      -0.348   2.918  -1.636  0.00  0.00    +0.007 C 
ATOM     15  C   UNL     1      -2.753   0.151  -0.128  0.00  0.00    +0.186 C 
ATOM     16  C   UNL     1       1.868   2.848  -0.375  0.00  0.00    +0.119 C 
ATOM     17  C   UNL     1      -2.235   0.195   1.305  0.00  0.00    +0.046 C 
ATOM     18  C   UNL     1       1.177   2.924  -1.733  0.00  0.00    +0.032 C 
ATOM     19  C   UNL     1      -0.726   2.936   1.478  0.00  0.00    +0.012 C 
ATOM     21  C   UNL     1      -2.724   1.097  -2.454  0.00  0.00    +0.017 C 
ENDROOT
BRANCH  16   2
ATOM      2  O   UNL     1       1.754   4.101   0.293  0.00  0.00    -0.391 OA
ATOM     36  H   UNL     1       2.145   4.780  -0.282  0.00  0.00    +0.210 HD
ENDBRANCH  16   2
BRANCH  15   1
ATOM      1  O   UNL     1      -4.163  -0.061  -0.058  0.00  0.00    -0.446 OA
BRANCH   1  24
ATOM      5  O   UNL     1      -3.810  -2.326   0.087  0.00  0.00    -0.226 OA
ATOM      8  N   UNL     1      -5.946  -1.421   0.107  0.00  0.00    -0.279 N 
ATOM     24  C   UNL     1      -4.570  -1.363   0.049  0.00  0.00    +0.401 C 
ATOM     39  H   UNL     1      -6.455  -0.542   0.113  0.00  0.00    +0.152 HD
BRANCH   8  26
ATOM     26  C   UNL     1      -6.694  -2.651   0.223  0.00  0.00    +0.070 C 
ATOM     28  C   UNL     1      -6.877  -3.030   1.687  0.00  0.00    +0.027 C 
ATOM     29  C   UNL     1      -8.035  -2.525  -0.487  0.00  0.00    +0.027 C 
ENDBRANCH   8  26
ENDBRANCH   1  24
ENDBRANCH  15   1
BRANCH  11  20
ATOM     20  C   UNL     1      -3.297   2.611  -0.589  0.00  0.00    +0.166 C 
BRANCH  20   3
ATOM      3  O   UNL     1      -4.559   2.410  -1.187  0.00  0.00    -0.394 OA
ATOM     37  H   UNL     1      -5.117   3.170  -0.948  0.00  0.00    +0.209 HD
ENDBRANCH  20   3
ENDBRANCH  11  20
BRANCH  12  22
ATOM     22  C   UNL     1       2.076   1.650   1.836  0.00  0.00    +0.102 C 
BRANCH  22  23
ATOM      4  O   UNL     1       4.455   1.778   1.415  0.00  0.00    -0.276 OA
ATOM      7  N   UNL     1       3.473  -0.286   1.835  0.00  0.00    -0.311 N 
ATOM     23  C   UNL     1       3.469   1.091   1.668  0.00  0.00    +0.214 C 
ATOM     38  H   UNL     1       2.598  -0.772   2.009  0.00  0.00    +0.149 HD
BRANCH   7  25
ATOM     25  C   UNL     1       4.668  -1.091   1.728  0.00  0.00    +0.143 C 
BRANCH  25  27
ATOM     27  C   UNL     1       4.926  -1.529   0.315  0.00  0.00    +0.011 A 
ATOM     30  C   UNL     1       4.173  -2.550  -0.263  0.00  0.00    +0.125 A 
ATOM     31  C   UNL     1       5.933  -0.903  -0.420  0.00  0.00    +0.009 A 
ATOM     32  C   UNL     1       4.426  -2.946  -1.577  0.00  0.00    +0.046 A 
ATOM     33  C   UNL     1       6.186  -1.299  -1.734  0.00  0.00    +0.001 A 
ATOM     34  C   UNL     1       5.432  -2.320  -2.312  0.00  0.00    +0.004 A 
BRANCH  30   6
ATOM      6  O   UNL     1       3.186  -3.173   0.441  0.00  0.00    -0.495 OA
ATOM     35  C   UNL     1       2.466  -4.206  -0.229  0.00  0.00    +0.277 C 
ENDBRANCH  30   6
ENDBRANCH  25  27
ENDBRANCH   7  25
ENDBRANCH  22  23
ENDBRANCH  12  22
TORSDOF 11
