REMARK  Name = 38028272
REMARK  13 active torsions:
REMARK  status: ('A' for Active; 'I' for Inactive)
REMARK    1  A    between atoms: O_3  and  C_29
REMARK    2  A    between atoms: O_3  and  C_34
REMARK    3  A    between atoms: N_4  and  C_15
REMARK    4  A    between atoms: N_5  and  C_22
REMARK    5  A    between atoms: N_6  and  C_24
REMARK    6  A    between atoms: C_8  and  C_12
REMARK    7  A    between atoms: C_9  and  C_15
REMARK    8  A    between atoms: C_11  and  C_16
REMARK    9  A    between atoms: C_12  and  C_17
REMARK   10  A    between atoms: C_12  and  C_18
REMARK   11  A    between atoms: C_13  and  C_19
REMARK   12  A    between atoms: C_16  and  C_20
REMARK   13  A    between atoms: C_22  and  C_23
REMARK                            x       y       z     vdW  Elec       q    Type
REMARK                         _______ _______ _______ _____ _____    ______ ____
ROOT
ATOM      8  C   UNL     1      -4.149  -0.570   0.377  0.00  0.00    +0.000 C 
ATOM      9  C   UNL     1      -3.739  -1.064  -1.033  0.00  0.00    +0.032 C 
ATOM     10  C   UNL     1      -4.240   0.963   0.403  0.00  0.00    +0.012 C 
ATOM     11  C   UNL     1      -2.906   1.632   0.020  0.00  0.00    +0.023 C 
ATOM     13  C   UNL     1      -2.301   1.011  -1.222  0.00  0.00    -0.073 C 
ATOM     14  C   UNL     1      -2.695  -0.188  -1.686  0.00  0.00    -0.022 C 
ATOM     19  C   UNL     1      -1.263   1.822  -1.947  0.00  0.00    +0.039 C 
ENDROOT
BRANCH   8  12
ATOM     12  C   UNL     1      -5.482  -1.177   0.826  0.00  0.00    -0.013 C 
ATOM     17  C   UNL     1      -5.575  -1.187   2.349  0.00  0.00    +0.007 C 
ATOM     18  C   UNL     1      -6.649  -0.405   0.218  0.00  0.00    +0.007 C 
ENDBRANCH   8  12
BRANCH   9  15
ATOM     15  C   UNL     1      -3.236  -2.511  -0.988  0.00  0.00    +0.113 C 
BRANCH  15   4
ATOM      2  O   UNL     1      -0.574  -2.261  -2.014  0.00  0.00    -0.253 OA
ATOM      4  N   UNL     1      -2.021  -2.603  -0.242  0.00  0.00    -0.299 N 
ATOM      6  N   UNL     1       0.253  -2.606   0.156  0.00  0.00    -0.269 N 
ATOM     21  C   UNL     1      -0.743  -2.469  -0.815  0.00  0.00    +0.304 C 
ATOM     35  H   UNL     1      -2.083  -2.782   0.756  0.00  0.00    +0.150 HD
ATOM     37  H   UNL     1      -0.059  -2.775   1.108  0.00  0.00    +0.156 HD
BRANCH   6  24
ATOM     24  C   UNL     1       1.655  -2.535  -0.023  0.00  0.00    +0.038 A 
ATOM     26  C   UNL     1       2.506  -2.697   1.070  0.00  0.00    +0.069 A 
ATOM     27  C   UNL     1       2.185  -2.304  -1.292  0.00  0.00    +0.023 A 
ATOM     29  C   UNL     1       3.888  -2.627   0.894  0.00  0.00    +0.122 A 
ATOM     30  C   UNL     1       3.567  -2.234  -1.468  0.00  0.00    +0.005 A 
ATOM     32  C   UNL     1       4.419  -2.396  -0.375  0.00  0.00    +0.046 A 
BRANCH  29   3
ATOM      3  O   UNL     1       4.718  -2.784   1.961  0.00  0.00    -0.495 OA
ATOM     34  C   UNL     1       6.120  -2.699   1.711  0.00  0.00    +0.277 C 
ENDBRANCH  29   3
ENDBRANCH   6  24
ENDBRANCH  15   4
ENDBRANCH   9  15
BRANCH  11  16
ATOM     16  C   UNL     1      -1.915   1.598   1.189  0.00  0.00    +0.103 C 
BRANCH  16  20
ATOM      1  O   UNL     1      -1.138   3.810   0.594  0.00  0.00    -0.276 OA
ATOM      5  N   UNL     1       0.294   2.353   1.700  0.00  0.00    -0.310 N 
ATOM     20  C   UNL     1      -0.907   2.722   1.113  0.00  0.00    +0.214 C 
ATOM     36  H   UNL     1       0.393   1.424   2.099  0.00  0.00    +0.149 HD
BRANCH   5  22
ATOM     22  C   UNL     1       1.441   3.230   1.770  0.00  0.00    +0.159 C 
BRANCH  22  23
ATOM      7  N   UNL     1       2.233   4.128  -0.343  0.00  0.00    -0.258 NA
ATOM     23  C   UNL     1       2.309   3.118   0.551  0.00  0.00    +0.058 A 
ATOM     25  C   UNL     1       3.131   2.011   0.403  0.00  0.00    +0.025 A 
ATOM     28  C   UNL     1       3.924   1.938  -0.737  0.00  0.00    +0.003 A 
ATOM     31  C   UNL     1       3.018   4.022  -1.438  0.00  0.00    +0.111 A 
ATOM     33  C   UNL     1       3.872   2.958  -1.680  0.00  0.00    +0.020 A 
ENDBRANCH  22  23
ENDBRANCH   5  22
ENDBRANCH  16  20
ENDBRANCH  11  16
TORSDOF 9
