REMARK  Name = 7135507
REMARK  2 active torsions:
REMARK  status: ('A' for Active; 'I' for Inactive)
REMARK    1  A    between atoms: C_10  and  C_17
REMARK    2  A    between atoms: C_26  and  C_28
REMARK                            x       y       z     vdW  Elec       q    Type
REMARK                         _______ _______ _______ _____ _____    ______ ____
ROOT
ATOM      1  O   UNL     1      -5.694   0.595   1.526  0.00  0.00    -0.275 OA
ATOM      2  O   UNL     1      -2.608   2.307  -0.240  0.00  0.00    -0.273 OA
ATOM      3  O   UNL     1       0.506  -1.755  -1.562  0.00  0.00    -0.270 OA
ATOM      6  N   UNL     1      -4.009  -0.300   0.198  0.00  0.00    -0.298 N 
ATOM      7  N   UNL     1      -1.202  -0.667  -0.443  0.00  0.00    -0.283 N 
ATOM      9  N   UNL     1      -0.340   2.162  -0.364  0.00  0.00    -0.283 N 
ATOM     11  C   UNL     1      -1.605   0.274   0.592  0.00  0.00    +0.180 C 
ATOM     12  C   UNL     1      -2.970  -0.069   1.204  0.00  0.00    +0.139 C 
ATOM     13  C   UNL     1      -3.585  -0.922  -1.060  0.00  0.00    +0.127 C 
ATOM     14  C   UNL     1      -2.222  -1.589  -0.947  0.00  0.00    +0.128 C 
ATOM     17  C   UNL     1      -5.326   0.072   0.471  0.00  0.00    +0.219 C 
ATOM     20  C   UNL     1      -1.582   1.646  -0.063  0.00  0.00    +0.239 C 
ATOM     21  C   UNL     1       0.123  -0.839  -0.832  0.00  0.00    +0.249 C 
ATOM     22  C   UNL     1       1.141   0.144  -0.375  0.00  0.00    +0.059 A 
ATOM     23  C   UNL     1       0.916   1.526  -0.270  0.00  0.00    +0.046 A 
ATOM     24  C   UNL     1       2.448  -0.354  -0.218  0.00  0.00    +0.023 A 
ATOM     25  C   UNL     1       2.015   2.383  -0.081  0.00  0.00    +0.024 A 
ATOM     26  C   UNL     1       3.519   0.506   0.018  0.00  0.00    -0.017 A 
ATOM     27  C   UNL     1       3.305   1.876   0.073  0.00  0.00    +0.010 A 
ATOM     36  H   UNL     1      -0.322   3.154  -0.591  0.00  0.00    +0.155 HD
ENDROOT
BRANCH  26  28
ATOM      4  O   UNL     1       8.393   0.767  -0.383  0.00  0.00    -0.453 OA
ATOM      5  O   UNL     1       8.696  -1.420   0.584  0.00  0.00    -0.453 OA
ATOM     28  C   UNL     1       4.855  -0.026   0.181  0.00  0.00    -0.014 A 
ATOM     29  C   UNL     1       5.957   0.731  -0.224  0.00  0.00    +0.058 A 
ATOM     30  C   UNL     1       5.032  -1.302   0.745  0.00  0.00    +0.012 A 
ATOM     31  C   UNL     1       7.211   0.181  -0.049  0.00  0.00    +0.167 A 
ATOM     32  C   UNL     1       7.384  -1.068   0.503  0.00  0.00    +0.166 A 
ATOM     33  C   UNL     1       6.312  -1.836   0.911  0.00  0.00    +0.050 A 
ATOM     34  C   UNL     1       9.329  -0.253   0.021  0.00  0.00    +0.466 C 
ENDBRANCH  26  28
BRANCH  17  10
ATOM      8  N   UNL     1      -8.974  -0.719   0.550  0.00  0.00    -0.316 NA
ATOM     10  C   UNL     1      -6.331  -0.203  -0.612  0.00  0.00    +0.078 C 
ATOM     15  C   UNL     1      -7.444   0.847  -0.601  0.00  0.00    +0.028 C 
ATOM     16  C   UNL     1      -6.908  -1.613  -0.475  0.00  0.00    +0.028 C 
ATOM     18  C   UNL     1      -8.428   0.637   0.551  0.00  0.00    +0.081 C 
ATOM     19  C   UNL     1      -7.914  -1.719   0.672  0.00  0.00    +0.081 C 
ATOM     35  H   UNL     1      -9.626  -0.821   1.327  0.00  0.00    +0.122 HD
ENDBRANCH  17  10
TORSDOF 2
