REMARK  Name = 28960717
REMARK  13 active torsions:
REMARK  status: ('A' for Active; 'I' for Inactive)
REMARK    1  A    between atoms: O_6  and  C_26
REMARK    2  A    between atoms: O_8  and  C_32
REMARK    3  A    between atoms: O_8  and  C_33
REMARK    4  A    between atoms: N_9  and  C_19
REMARK    5  A    between atoms: N_10  and  C_13
REMARK    6  A    between atoms: C_14  and  C_17
REMARK    7  A    between atoms: C_18  and  C_20
REMARK    8  A    between atoms: C_18  and  C_22
REMARK    9  A    between atoms: C_18  and  C_23
REMARK   10  A    between atoms: C_18  and  C_24
REMARK   11  A    between atoms: C_20  and  C_21
REMARK   12  A    between atoms: C_22  and  C_26
REMARK   13  A    between atoms: C_25  and  C_27
REMARK                            x       y       z     vdW  Elec       q    Type
REMARK                         _______ _______ _______ _____ _____    ______ ____
ROOT
ATOM      9  N   UNL     1      -3.429  -2.041   1.052  0.00  0.00    -0.293 NA
ATOM     13  C   UNL     1      -4.447  -0.490  -0.359  0.00  0.00    +0.089 C 
ATOM     14  C   UNL     1      -2.939  -2.411  -0.290  0.00  0.00    +0.147 C 
ATOM     15  C   UNL     1      -3.480  -1.305  -1.217  0.00  0.00    +0.052 C 
ATOM     16  C   UNL     1      -4.722  -1.384   0.841  0.00  0.00    +0.107 C 
ATOM     19  C   UNL     1      -3.538  -3.179   1.957  0.00  0.00    +0.105 C 
ENDROOT
BRANCH  14  17
ATOM      4  O   UNL     1      -0.957  -3.751  -0.789  0.00  0.00    -0.336 OA
ATOM     11  N   UNL     1      -0.504  -1.675  -0.081  0.00  0.00    -0.190 NA
ATOM     12  N   UNL     1       0.439  -3.640  -0.776  0.00  0.00    -0.056 NA
ATOM     17  C   UNL     1      -1.434  -2.550  -0.366  0.00  0.00    +0.245 A 
ATOM     25  C   UNL     1       0.628  -2.388  -0.348  0.00  0.00    +0.202 A 
BRANCH  25  27
ATOM     27  C   UNL     1       1.934  -1.821  -0.177  0.00  0.00    +0.023 A 
ATOM     28  C   UNL     1       3.031  -2.384  -0.829  0.00  0.00    +0.015 A 
ATOM     29  C   UNL     1       2.108  -0.705   0.642  0.00  0.00    +0.015 A 
ATOM     30  C   UNL     1       4.301  -1.833  -0.661  0.00  0.00    +0.046 A 
ATOM     31  C   UNL     1       3.378  -0.153   0.809  0.00  0.00    +0.046 A 
ATOM     32  C   UNL     1       4.474  -0.717   0.158  0.00  0.00    +0.130 A 
BRANCH  32   8
ATOM      8  O   UNL     1       5.714  -0.178   0.322  0.00  0.00    -0.406 OA
BRANCH   8  33
ATOM      1  F   UNL     1       7.193   1.322  -0.488  0.00  0.00    -0.133 F 
ATOM      2  F   UNL     1       5.101   1.516  -1.088  0.00  0.00    -0.133 F 
ATOM      3  F   UNL     1       5.723   2.014   0.973  0.00  0.00    -0.133 F 
ATOM     33  C   UNL     1       5.916   1.176  -0.067  0.00  0.00    +0.575 C 
ENDBRANCH   8  33
ENDBRANCH  32   8
ENDBRANCH  25  27
ENDBRANCH  14  17
BRANCH  13  10
ATOM      5  O   UNL     1      -4.670   2.032  -1.727  0.00  0.00    -0.276 OA
ATOM     10  N   UNL     1      -3.866   0.768   0.046  0.00  0.00    -0.311 N 
ATOM     21  C   UNL     1      -4.030   1.935  -0.682  0.00  0.00    +0.214 C 
ATOM     34  H   UNL     1      -3.318   0.783   0.898  0.00  0.00    +0.149 HD
BRANCH  21  20
ATOM     20  C   UNL     1      -3.332   3.132  -0.057  0.00  0.00    +0.102 C 
BRANCH  20  18
ATOM     18  C   UNL     1      -1.845   3.303  -0.462  0.00  0.00    -0.017 C 
ATOM     23  C   UNL     1      -1.721   3.483  -1.990  0.00  0.00    +0.012 C 
ATOM     24  C   UNL     1      -1.318   4.595   0.199  0.00  0.00    +0.012 C 
BRANCH  18  22
ATOM     22  C   UNL     1      -0.967   2.098  -0.050  0.00  0.00    +0.127 C 
BRANCH  22  26
ATOM      7  O   UNL     1      -1.812   1.075   1.975  0.00  0.00    -0.251 OA
ATOM     26  C   UNL     1      -0.975   1.782   1.429  0.00  0.00    +0.305 C 
BRANCH  26   6
ATOM      6  O   UNL     1       0.045   2.373   2.100  0.00  0.00    -0.481 OA
ATOM     35  H   UNL     1       0.024   2.162   3.058  0.00  0.00    +0.295 HD
ENDBRANCH  26   6
ENDBRANCH  22  26
ENDBRANCH  18  22
ENDBRANCH  20  18
ENDBRANCH  21  20
ENDBRANCH  13  10
TORSDOF 10
