REMARK  Name = 71693707
REMARK  7 active torsions:
REMARK  status: ('A' for Active; 'I' for Inactive)
REMARK    1  A    between atoms: O_3  and  C_17
REMARK    2  A    between atoms: N_6  and  C_9
REMARK    3  A    between atoms: N_7  and  C_24
REMARK    4  A    between atoms: C_10  and  C_17
REMARK    5  A    between atoms: C_11  and  C_19
REMARK    6  A    between atoms: C_25  and  C_26
REMARK    7  A    between atoms: C_31  and  C_32
REMARK                            x       y       z     vdW  Elec       q    Type
REMARK                         _______ _______ _______ _____ _____    ______ ____
ROOT
ATOM     19  C   UNL     1      -1.179   1.552  -0.193  0.00  0.00    -0.017 A 
ATOM     20  C   UNL     1      -0.837   0.281  -0.654  0.00  0.00    +0.008 A 
ATOM     21  C   UNL     1      -0.186   2.415   0.273  0.00  0.00    +0.008 A 
ATOM     22  C   UNL     1       0.497  -0.128  -0.649  0.00  0.00    +0.023 A 
ATOM     23  C   UNL     1       1.147   2.006   0.278  0.00  0.00    +0.023 A 
ATOM     24  C   UNL     1       1.489   0.735  -0.183  0.00  0.00    +0.034 A 
ENDROOT
BRANCH  19  11
ATOM      1  O   UNL     1      -3.048   2.049  -1.567  0.00  0.00    -0.361 OA
ATOM      4  O   UNL     1      -5.667  -0.113  -1.986  0.00  0.00    -0.273 OA
ATOM      6  N   UNL     1      -4.298   0.138  -0.113  0.00  0.00    -0.288 N 
ATOM     10  C   UNL     1      -3.503   1.074   0.690  0.00  0.00    +0.135 C 
ATOM     11  C   UNL     1      -2.629   1.998  -0.199  0.00  0.00    +0.171 C 
ATOM     14  C   UNL     1      -4.875   0.544  -1.314  0.00  0.00    +0.242 C 
ATOM     18  C   UNL     1      -4.445   1.927  -1.740  0.00  0.00    +0.256 C 
BRANCH   6   9
ATOM      2  O   UNL     1      -5.924  -3.698   0.236  0.00  0.00    -0.380 OA
ATOM      9  C   UNL     1      -4.573  -1.165   0.440  0.00  0.00    +0.081 C 
ATOM     12  C   UNL     1      -6.062  -1.329   0.752  0.00  0.00    +0.050 C 
ATOM     13  C   UNL     1      -4.105  -2.270  -0.507  0.00  0.00    +0.050 C 
ATOM     15  C   UNL     1      -6.361  -2.750   1.210  0.00  0.00    +0.161 C 
ATOM     16  C   UNL     1      -4.515  -3.639   0.021  0.00  0.00    +0.161 C 
ENDBRANCH   6   9
BRANCH  10  17
ATOM     17  C   UNL     1      -4.408   1.894   1.619  0.00  0.00    +0.181 C 
BRANCH  17   3
ATOM      3  O   UNL     1      -4.823   1.059   2.680  0.00  0.00    -0.393 OA
ATOM     33  H   UNL     1      -5.394   1.592   3.260  0.00  0.00    +0.209 HD
ENDBRANCH  17   3
ENDBRANCH  10  17
ENDBRANCH  19  11
BRANCH  24   7
ATOM      5  O   UNL     1       3.958   2.188   0.701  0.00  0.00    -0.270 OA
ATOM      7  N   UNL     1       2.823   0.326  -0.178  0.00  0.00    -0.282 N 
ATOM     25  C   UNL     1       3.945   1.048   0.248  0.00  0.00    +0.248 C 
ATOM     34  H   UNL     1       2.958  -0.632  -0.490  0.00  0.00    +0.155 HD
BRANCH  25  26
ATOM     26  C   UNL     1       5.241   0.326   0.156  0.00  0.00    +0.037 A 
ATOM     27  C   UNL     1       6.287   0.656   1.017  0.00  0.00    +0.014 A 
ATOM     28  C   UNL     1       5.409  -0.684  -0.791  0.00  0.00    +0.014 A 
ATOM     29  C   UNL     1       7.502  -0.023   0.930  0.00  0.00    +0.019 A 
ATOM     30  C   UNL     1       6.625  -1.364  -0.878  0.00  0.00    +0.019 A 
ATOM     31  C   UNL     1       7.671  -1.033  -0.017  0.00  0.00    +0.052 A 
BRANCH  31  32
ATOM      8  N   UNL     1       9.928  -2.293  -0.177  0.00  0.00    -0.191 NA
ATOM     32  C   UNL     1       8.916  -1.728  -0.105  0.00  0.00    +0.099 C 
ENDBRANCH  31  32
ENDBRANCH  25  26
ENDBRANCH  24   7
TORSDOF 7
