REMARK  Name = 28960679
REMARK  7 active torsions:
REMARK  status: ('A' for Active; 'I' for Inactive)
REMARK    1  A    between atoms: O_6  and  C_30
REMARK    2  A    between atoms: O_6  and  C_31
REMARK    3  A    between atoms: N_7  and  C_16
REMARK    4  A    between atoms: N_8  and  C_11
REMARK    5  A    between atoms: C_12  and  C_15
REMARK    6  A    between atoms: C_17  and  C_19
REMARK    7  A    between atoms: C_18  and  C_20
REMARK                            x       y       z     vdW  Elec       q    Type
REMARK                         _______ _______ _______ _____ _____    ______ ____
ROOT
ATOM      7  N   UNL     1      -2.971  -2.620   1.062  0.00  0.00    -0.293 NA
ATOM     11  C   UNL     1      -4.168  -1.265  -0.409  0.00  0.00    +0.089 C 
ATOM     12  C   UNL     1      -2.379  -2.921  -0.255  0.00  0.00    +0.147 C 
ATOM     13  C   UNL     1      -3.053  -1.925  -1.219  0.00  0.00    +0.052 C 
ATOM     14  C   UNL     1      -4.343  -2.179   0.794  0.00  0.00    +0.107 C 
ATOM     16  C   UNL     1      -2.932  -3.751   1.981  0.00  0.00    +0.105 C 
ENDROOT
BRANCH  12  15
ATOM      4  O   UNL     1      -0.192  -3.933  -0.661  0.00  0.00    -0.336 OA
ATOM      9  N   UNL     1      -0.101  -1.803   0.028  0.00  0.00    -0.190 NA
ATOM     10  N   UNL     1       1.168  -3.600  -0.601  0.00  0.00    -0.056 NA
ATOM     15  C   UNL     1      -0.868  -2.819  -0.276  0.00  0.00    +0.245 A 
ATOM     18  C   UNL     1       1.140  -2.330  -0.186  0.00  0.00    +0.202 A 
BRANCH  18  20
ATOM     20  C   UNL     1       2.332  -1.560   0.021  0.00  0.00    +0.023 A 
ATOM     23  C   UNL     1       2.241  -0.236   0.453  0.00  0.00    +0.015 A 
ATOM     24  C   UNL     1       3.582  -2.134  -0.210  0.00  0.00    +0.015 A 
ATOM     28  C   UNL     1       3.400   0.513   0.654  0.00  0.00    +0.046 A 
ATOM     29  C   UNL     1       4.741  -1.384  -0.010  0.00  0.00    +0.046 A 
ATOM     30  C   UNL     1       4.650  -0.061   0.422  0.00  0.00    +0.130 A 
BRANCH  30   6
ATOM      6  O   UNL     1       5.782   0.669   0.617  0.00  0.00    -0.406 OA
BRANCH   6  31
ATOM      1  F   UNL     1       7.279   2.046  -0.360  0.00  0.00    -0.133 F 
ATOM      2  F   UNL     1       5.351   1.758  -1.347  0.00  0.00    -0.133 F 
ATOM      3  F   UNL     1       5.486   2.935   0.518  0.00  0.00    -0.133 F 
ATOM     31  C   UNL     1       5.957   1.858  -0.145  0.00  0.00    +0.575 C 
ENDBRANCH   6  31
ENDBRANCH  30   6
ENDBRANCH  18  20
ENDBRANCH  12  15
BRANCH  11   8
ATOM      5  O   UNL     1      -4.740   1.164  -1.829  0.00  0.00    -0.270 OA
ATOM      8  N   UNL     1      -3.811   0.074  -0.005  0.00  0.00    -0.307 N 
ATOM     17  C   UNL     1      -4.133   1.190  -0.761  0.00  0.00    +0.244 C 
ATOM     32  H   UNL     1      -3.212   0.162   0.810  0.00  0.00    +0.149 HD
BRANCH  17  19
ATOM     19  C   UNL     1      -3.670   2.495  -0.221  0.00  0.00    +0.037 A 
ATOM     21  C   UNL     1      -3.422   3.561  -1.086  0.00  0.00    +0.013 A 
ATOM     22  C   UNL     1      -3.485   2.653   1.153  0.00  0.00    +0.013 A 
ATOM     25  C   UNL     1      -2.989   4.785  -0.577  0.00  0.00    +0.001 A 
ATOM     26  C   UNL     1      -3.051   3.877   1.661  0.00  0.00    +0.001 A 
ATOM     27  C   UNL     1      -2.803   4.943   0.796  0.00  0.00    +0.000 A 
ENDBRANCH  17  19
ENDBRANCH  11   8
TORSDOF 6
