REMARK  Name = 25391123
REMARK  5 active torsions:
REMARK  status: ('A' for Active; 'I' for Inactive)
REMARK    1  A    between atoms: N_8  and  C_17
REMARK    2  A    between atoms: C_11  and  C_16
REMARK    3  A    between atoms: C_17  and  C_20
REMARK    4  A    between atoms: C_17  and  C_25
REMARK    5  A    between atoms: C_20  and  C_23
REMARK                            x       y       z     vdW  Elec       q    Type
REMARK                         _______ _______ _______ _____ _____    ______ ____
ROOT
ATOM      3  O   UNL     1       0.536   0.794  -1.087  0.00  0.00    -0.274 OA
ATOM      8  N   UNL     1       2.311   1.026   0.401  0.00  0.00    -0.302 N 
ATOM     16  C   UNL     1       1.029   1.262  -0.064  0.00  0.00    +0.235 C 
ATOM     33  H   UNL     1       2.590   1.405   1.300  0.00  0.00    +0.150 HD
ENDROOT
BRANCH  16  11
ATOM      1  O   UNL     1      -4.766  -0.869  -1.130  0.00  0.00    -0.377 OA
ATOM      2  O   UNL     1      -2.088   1.140   2.061  0.00  0.00    -0.252 OA
ATOM      5  N   UNL     1      -1.102   2.239   0.287  0.00  0.00    -0.271 N 
ATOM      6  N   UNL     1       0.755   4.409  -0.136  0.00  0.00    -0.312 NA
ATOM      7  N   UNL     1      -3.237   1.171   0.071  0.00  0.00    -0.281 N 
ATOM     11  C   UNL     1       0.251   2.163   0.850  0.00  0.00    +0.177 C 
ATOM     12  C   UNL     1       0.909   3.532   1.027  0.00  0.00    +0.113 C 
ATOM     13  C   UNL     1      -1.290   3.203  -0.809  0.00  0.00    +0.125 C 
ATOM     14  C   UNL     1      -0.660   4.553  -0.476  0.00  0.00    +0.100 C 
ATOM     15  C   UNL     1      -2.136   1.492   0.875  0.00  0.00    +0.306 C 
ATOM     18  C   UNL     1      -3.174   0.956  -1.380  0.00  0.00    +0.137 C 
ATOM     19  C   UNL     1      -4.479   0.700   0.684  0.00  0.00    +0.137 C 
ATOM     21  C   UNL     1      -3.509  -0.499  -1.702  0.00  0.00    +0.179 C 
ATOM     22  C   UNL     1      -4.739  -0.747   0.296  0.00  0.00    +0.179 C 
ATOM     32  H   UNL     1       1.247   3.996  -0.929  0.00  0.00    +0.122 HD
ENDBRANCH  16  11
BRANCH   8  17
ATOM     17  C   UNL     1       3.256   0.173  -0.284  0.00  0.00    +0.163 C 
BRANCH  17  25
ATOM      4  O   UNL     1       4.981   1.312   0.994  0.00  0.00    -0.274 OA
ATOM     10  N   UNL     1       5.494   0.557  -1.114  0.00  0.00    -0.328 N 
ATOM     25  C   UNL     1       4.641   0.758  -0.049  0.00  0.00    +0.231 C 
ATOM     35  H   UNL     1       5.205   0.077  -1.961  0.00  0.00    +0.145 HD
ATOM     36  H   UNL     1       6.453   0.886  -1.082  0.00  0.00    +0.145 HD
ENDBRANCH  17  25
BRANCH  17  20
ATOM     20  C   UNL     1       3.197  -1.276   0.214  0.00  0.00    +0.069 C 
BRANCH  20  23
ATOM      9  N   UNL     1       0.668  -2.989  -1.844  0.00  0.00    -0.360 N 
ATOM     23  C   UNL     1       2.044  -2.050  -0.377  0.00  0.00    -0.020 A 
ATOM     24  C   UNL     1       1.015  -2.720   0.343  0.00  0.00    +0.003 A 
ATOM     26  C   UNL     1       1.803  -2.234  -1.719  0.00  0.00    +0.087 A 
ATOM     27  C   UNL     1       0.165  -3.300  -0.601  0.00  0.00    +0.047 A 
ATOM     28  C   UNL     1       0.725  -2.888   1.711  0.00  0.00    +0.010 A 
ATOM     29  C   UNL     1      -0.965  -4.043  -0.243  0.00  0.00    +0.026 A 
ATOM     30  C   UNL     1      -0.403  -3.629   2.084  0.00  0.00    +0.001 A 
ATOM     31  C   UNL     1      -1.233  -4.196   1.120  0.00  0.00    +0.002 A 
ATOM     34  H   UNL     1       0.258  -3.276  -2.722  0.00  0.00    +0.165 HD
ENDBRANCH  20  23
ENDBRANCH  17  20
ENDBRANCH   8  17
TORSDOF 5
