REMARK  Name = 75536894
REMARK  3 active torsions:
REMARK  status: ('A' for Active; 'I' for Inactive)
REMARK    1  A    between atoms: O_3  and  C_13
REMARK    2  A    between atoms: O_3  and  C_16
REMARK    3  A    between atoms: C_6  and  C_10
REMARK                            x       y       z     vdW  Elec       q    Type
REMARK                         _______ _______ _______ _____ _____    ______ ____
ROOT
ATOM      1  O   UNL     1       0.302   2.961  -1.114  0.00  0.00    -0.375 OA
ATOM      2  O   UNL     1       1.590  -1.452   1.295  0.00  0.00    -0.275 OA
ATOM      4  N   UNL     1       1.556   0.768   0.597  0.00  0.00    -0.295 N 
ATOM     10  C   UNL     1       2.132  -0.517   0.688  0.00  0.00    +0.219 C 
ATOM     11  C   UNL     1       0.256   1.016   1.223  0.00  0.00    +0.154 C 
ATOM     12  C   UNL     1       2.222   1.856  -0.129  0.00  0.00    +0.136 C 
ATOM     13  C   UNL     1      -0.853   1.219   0.191  0.00  0.00    +0.216 C 
ATOM     14  C   UNL     1       1.441   3.154  -0.281  0.00  0.00    +0.179 C 
ATOM     15  C   UNL     1      -0.878   2.629  -0.395  0.00  0.00    +0.206 C 
ENDROOT
BRANCH  10   6
ATOM      6  C   UNL     1       3.483  -0.716  -0.003  0.00  0.00    +0.075 C 
ATOM      7  C   UNL     1       4.370  -1.901   0.463  0.00  0.00    +0.013 C 
ATOM      8  C   UNL     1       3.481  -1.387  -1.401  0.00  0.00    +0.013 C 
ATOM      9  C   UNL     1       4.804  -2.070  -1.005  0.00  0.00    +0.001 C 
ENDBRANCH  10   6
BRANCH  13   3
ATOM      3  O   UNL     1      -2.102   0.974   0.836  0.00  0.00    -0.483 OA
BRANCH   3  16
ATOM      5  N   UNL     1      -4.918  -0.817  -0.656  0.00  0.00    -0.260 NA
ATOM     16  C   UNL     1      -2.851  -0.058   0.344  0.00  0.00    +0.139 A 
ATOM     17  C   UNL     1      -2.359  -1.359   0.331  0.00  0.00    +0.049 A 
ATOM     18  C   UNL     1      -4.125   0.158  -0.157  0.00  0.00    +0.156 A 
ATOM     19  C   UNL     1      -3.145  -2.389  -0.174  0.00  0.00    +0.023 A 
ATOM     20  C   UNL     1      -4.405  -2.068  -0.651  0.00  0.00    +0.111 A 
ENDBRANCH   3  16
ENDBRANCH  13   3
TORSDOF 3
