REMARK  Name = 51137606
REMARK  7 active torsions:
REMARK  status: ('A' for Active; 'I' for Inactive)
REMARK    1  A    between atoms: O_6  and  C_23
REMARK    2  A    between atoms: O_6  and  C_25
REMARK    3  A    between atoms: N_7  and  C_14
REMARK    4  A    between atoms: C_10  and  C_15
REMARK    5  A    between atoms: C_14  and  C_16
REMARK    6  A    between atoms: C_19  and  C_23
REMARK    7  A    between atoms: C_22  and  C_24
REMARK                            x       y       z     vdW  Elec       q    Type
REMARK                         _______ _______ _______ _____ _____    ______ ____
ROOT
ATOM      7  N   UNL     1      -2.267  -0.551   0.283  0.00  0.00    -0.297 NA
ATOM     10  C   UNL     1       0.038  -0.208   0.019  0.00  0.00    +0.092 C 
ATOM     11  C   UNL     1      -0.683   0.094  -1.306  0.00  0.00    +0.029 C 
ATOM     12  C   UNL     1      -0.990  -0.987   0.851  0.00  0.00    +0.097 C 
ATOM     13  C   UNL     1      -2.056  -0.550  -1.164  0.00  0.00    +0.085 C 
ENDROOT
BRANCH  10  15
ATOM      5  O   UNL     1       2.460  -0.310   0.361  0.00  0.00    -0.421 OA
ATOM      8  N   UNL     1       1.607  -2.110  -0.657  0.00  0.00    -0.112 NA
ATOM      9  N   UNL     1       2.970  -2.298  -0.528  0.00  0.00    -0.109 NA
ATOM     15  C   UNL     1       1.354  -0.937  -0.125  0.00  0.00    +0.222 A 
ATOM     19  C   UNL     1       3.426  -1.223   0.071  0.00  0.00    +0.254 A 
BRANCH  19  23
ATOM     23  C   UNL     1       4.800  -0.882   0.464  0.00  0.00    +0.326 C 
BRANCH  23   6
ATOM      6  O   UNL     1       5.342   0.095  -0.428  0.00  0.00    -0.483 OA
BRANCH   6  25
ATOM      4  F   UNL     1      10.573   1.551   0.421  0.00  0.00    -0.205 F 
ATOM     25  C   UNL     1       6.643   0.457  -0.217  0.00  0.00    +0.121 A 
ATOM     26  C   UNL     1       7.367  -0.121   0.825  0.00  0.00    +0.048 A 
ATOM     27  C   UNL     1       7.246   1.404  -1.044  0.00  0.00    +0.048 A 
ATOM     28  C   UNL     1       8.695   0.249   1.041  0.00  0.00    +0.042 A 
ATOM     29  C   UNL     1       8.574   1.774  -0.829  0.00  0.00    +0.042 A 
ATOM     30  C   UNL     1       9.298   1.196   0.214  0.00  0.00    +0.124 A 
ENDBRANCH   6  25
ENDBRANCH  23   6
ENDBRANCH  19  23
ENDBRANCH  10  15
BRANCH   7  14
ATOM     14  C   UNL     1      -3.374  -1.408   0.682  0.00  0.00    +0.119 C 
BRANCH  14  16
ATOM     16  C   UNL     1      -4.706  -0.736   0.476  0.00  0.00    -0.033 A 
ATOM     17  C   UNL     1      -5.137   0.244   1.370  0.00  0.00    +0.005 A 
ATOM     18  C   UNL     1      -5.508  -1.094  -0.608  0.00  0.00    +0.005 A 
ATOM     20  C   UNL     1      -6.370   0.867   1.180  0.00  0.00    +0.012 A 
ATOM     21  C   UNL     1      -6.741  -0.471  -0.798  0.00  0.00    +0.012 A 
ATOM     22  C   UNL     1      -7.172   0.510   0.096  0.00  0.00    +0.055 A 
BRANCH  22  24
ATOM      1  F   UNL     1      -8.589   1.837  -1.301  0.00  0.00    -0.166 F 
ATOM      2  F   UNL     1      -8.759   2.112   0.849  0.00  0.00    -0.166 F 
ATOM      3  F   UNL     1      -9.549   0.317  -0.089  0.00  0.00    -0.166 F 
ATOM     24  C   UNL     1      -8.490   1.178  -0.109  0.00  0.00    +0.417 C 
ENDBRANCH  22  24
ENDBRANCH  14  16
ENDBRANCH   7  14
TORSDOF 7
