REMARK  Name = 56775709
REMARK  8 active torsions:
REMARK  status: ('A' for Active; 'I' for Inactive)
REMARK    1  A    between atoms: O_3  and  C_18
REMARK    2  A    between atoms: O_3  and  C_26
REMARK    3  A    between atoms: N_4  and  C_7
REMARK    4  A    between atoms: N_4  and  C_11
REMARK    5  A    between atoms: C_7  and  C_10
REMARK    6  A    between atoms: C_10  and  C_12
REMARK    7  A    between atoms: C_11  and  C_13
REMARK    8  A    between atoms: C_15  and  C_19
REMARK                            x       y       z     vdW  Elec       q    Type
REMARK                         _______ _______ _______ _____ _____    ______ ____
ROOT
ATOM      1  O   UNL     1       1.479   3.936   1.076  0.00  0.00    -0.376 OA
ATOM      7  C   UNL     1       0.682   2.334  -0.090  0.00  0.00    +0.072 C 
ATOM      8  C   UNL     1       1.837   3.325  -0.185  0.00  0.00    +0.184 C 
ATOM      9  C   UNL     1       0.311   3.090   1.181  0.00  0.00    +0.184 C 
ENDROOT
BRANCH   7   4
ATOM      4  N   UNL     1       1.217   1.022   0.280  0.00  0.00    -0.302 NA
ATOM     27  H   UNL     1       0.547   0.388   0.714  0.00  0.00    +0.123 HD
BRANCH   4  11
ATOM     11  C   UNL     1       1.799   0.390  -0.905  0.00  0.00    +0.117 C 
BRANCH  11  13
ATOM     13  C   UNL     1       2.837  -0.623  -0.556  0.00  0.00    -0.030 A 
ATOM     16  C   UNL     1       4.107  -0.210  -0.155  0.00  0.00    +0.050 A 
ATOM     17  C   UNL     1       2.537  -1.983  -0.632  0.00  0.00    +0.005 A 
ATOM     18  C   UNL     1       5.078  -1.157   0.170  0.00  0.00    +0.120 A 
ATOM     20  C   UNL     1       3.508  -2.930  -0.306  0.00  0.00    +0.004 A 
ATOM     21  C   UNL     1       4.779  -2.517   0.095  0.00  0.00    +0.045 A 
BRANCH  18   3
ATOM      3  O   UNL     1       6.318  -0.753   0.561  0.00  0.00    -0.495 OA
ATOM     26  C   UNL     1       7.263  -1.774   0.878  0.00  0.00    +0.277 C 
ENDBRANCH  18   3
ENDBRANCH  11  13
ENDBRANCH   4  11
ENDBRANCH   7   4
BRANCH   7  10
ATOM     10  C   UNL     1      -0.309   2.267  -1.211  0.00  0.00    +0.085 C 
BRANCH  10  12
ATOM      2  O   UNL     1      -3.597   1.489   0.070  0.00  0.00    -0.353 OA
ATOM      5  N   UNL     1      -2.579   2.381  -0.246  0.00  0.00    -0.083 NA
ATOM     12  C   UNL     1      -1.600   1.624  -0.750  0.00  0.00    +0.086 A 
ATOM     14  C   UNL     1      -1.940   0.260  -0.775  0.00  0.00    +0.077 A 
ATOM     15  C   UNL     1      -3.204   0.230  -0.249  0.00  0.00    +0.186 A 
BRANCH  15  19
ATOM      6  N   UNL     1      -5.320  -0.376   0.560  0.00  0.00    -0.252 NA
ATOM     19  C   UNL     1      -4.158  -0.807   0.020  0.00  0.00    +0.109 A 
ATOM     22  C   UNL     1      -3.879  -2.134  -0.263  0.00  0.00    +0.031 A 
ATOM     23  C   UNL     1      -4.856  -3.080   0.026  0.00  0.00    +0.004 A 
ATOM     24  C   UNL     1      -6.246  -1.325   0.828  0.00  0.00    +0.111 A 
ATOM     25  C   UNL     1      -6.064  -2.676   0.582  0.00  0.00    +0.020 A 
ENDBRANCH  15  19
ENDBRANCH  10  12
ENDBRANCH   7  10
TORSDOF 7
