REMARK  Name = 7127944
REMARK  12 active torsions:
REMARK  status: ('A' for Active; 'I' for Inactive)
REMARK    1  A    between atoms: S_1  and  C_20
REMARK    2  A    between atoms: S_1  and  C_31
REMARK    3  A    between atoms: N_7  and  C_12
REMARK    4  A    between atoms: N_8  and  C_18
REMARK    5  A    between atoms: N_9  and  C_24
REMARK    6  A    between atoms: C_13  and  C_16
REMARK    7  A    between atoms: C_17  and  C_20
REMARK    8  A    between atoms: C_18  and  C_21
REMARK    9  A    between atoms: C_18  and  C_23
REMARK   10  A    between atoms: C_21  and  C_22
REMARK   11  A    between atoms: C_24  and  C_29
REMARK   12  A    between atoms: C_24  and  C_30
REMARK                            x       y       z     vdW  Elec       q    Type
REMARK                         _______ _______ _______ _____ _____    ______ ____
ROOT
ATOM      2  O   UNL     1      -1.579   1.156  -1.063  0.00  0.00    -0.274 OA
ATOM      8  N   UNL     1      -0.204   2.327   0.405  0.00  0.00    -0.302 N 
ATOM     16  C   UNL     1      -1.290   1.538   0.067  0.00  0.00    +0.234 C 
ATOM     36  H   UNL     1      -0.118   2.660   1.361  0.00  0.00    +0.150 HD
ENDROOT
BRANCH  16  13
ATOM      3  O   UNL     1      -4.449   1.982  -0.167  0.00  0.00    -0.275 OA
ATOM      6  N   UNL     1      -3.204   0.304   0.829  0.00  0.00    -0.287 N 
ATOM     12  C   UNL     1      -1.597  -1.143   1.813  0.00  0.00    +0.094 C 
ATOM     13  C   UNL     1      -2.107   1.155   1.264  0.00  0.00    +0.164 C 
ATOM     14  C   UNL     1      -1.303   0.298   2.240  0.00  0.00    +0.055 C 
ATOM     15  C   UNL     1      -3.030  -1.073   1.292  0.00  0.00    +0.131 C 
ATOM     17  C   UNL     1      -4.336   0.815   0.211  0.00  0.00    +0.226 C 
BRANCH  12   7
ATOM      4  O   UNL     1      -0.762  -3.861   1.322  0.00  0.00    -0.253 OA
ATOM      7  N   UNL     1      -0.680  -1.600   0.800  0.00  0.00    -0.295 N 
ATOM      9  N   UNL     1       0.571  -3.101  -0.418  0.00  0.00    -0.297 N 
ATOM     19  C   UNL     1      -0.330  -2.939   0.631  0.00  0.00    +0.300 C 
ATOM     35  H   UNL     1      -0.306  -0.925   0.140  0.00  0.00    +0.151 HD
ATOM     37  H   UNL     1       0.815  -2.287  -0.975  0.00  0.00    +0.150 HD
BRANCH   9  24
ATOM     24  C   UNL     1       1.097  -4.388  -0.807  0.00  0.00    +0.068 C 
ATOM     29  C   UNL     1       0.181  -5.054  -1.826  0.00  0.00    +0.027 C 
ATOM     30  C   UNL     1       2.512  -4.239  -1.351  0.00  0.00    +0.027 C 
ENDBRANCH   9  24
ENDBRANCH  12   7
BRANCH  17  20
ATOM     20  C   UNL     1      -5.462  -0.166   0.002  0.00  0.00    +0.164 C 
BRANCH  20   1
ATOM      1  S   UNL     1      -5.228  -0.932  -1.609  0.00  0.00    -0.155 S 
ATOM     31  C   UNL     1      -6.668  -2.029  -1.609  0.00  0.00    +0.085 C 
ENDBRANCH  20   1
ENDBRANCH  17  20
ENDBRANCH  16  13
BRANCH   8  18
ATOM     18  C   UNL     1       0.753   2.812  -0.564  0.00  0.00    +0.163 C 
BRANCH  18  23
ATOM      5  O   UNL     1      -0.442   4.925  -0.460  0.00  0.00    -0.274 OA
ATOM     11  N   UNL     1       0.547   4.318  -2.443  0.00  0.00    -0.328 N 
ATOM     23  C   UNL     1       0.202   4.115  -1.123  0.00  0.00    +0.231 C 
ATOM     39  H   UNL     1       0.255   5.157  -2.934  0.00  0.00    +0.145 HD
ATOM     40  H   UNL     1       1.099   3.650  -2.971  0.00  0.00    +0.145 HD
ENDBRANCH  18  23
BRANCH  18  21
ATOM     21  C   UNL     1       2.140   3.036   0.052  0.00  0.00    +0.069 C 
BRANCH  21  22
ATOM     10  N   UNL     1       3.256   0.195   2.101  0.00  0.00    -0.360 N 
ATOM     22  C   UNL     1       2.728   1.789   0.649  0.00  0.00    -0.020 A 
ATOM     25  C   UNL     1       3.546   0.834  -0.017  0.00  0.00    +0.003 A 
ATOM     26  C   UNL     1       2.567   1.369   1.949  0.00  0.00    +0.087 A 
ATOM     27  C   UNL     1       3.863  -0.155   0.916  0.00  0.00    +0.047 A 
ATOM     28  C   UNL     1       4.048   0.716  -1.328  0.00  0.00    +0.010 A 
ATOM     32  C   UNL     1       4.661  -1.261   0.602  0.00  0.00    +0.026 A 
ATOM     33  C   UNL     1       4.848  -0.385  -1.656  0.00  0.00    +0.001 A 
ATOM     34  C   UNL     1       5.148  -1.357  -0.705  0.00  0.00    +0.002 A 
ATOM     38  H   UNL     1       3.311  -0.337   2.958  0.00  0.00    +0.165 HD
ENDBRANCH  21  22
ENDBRANCH  18  21
ENDBRANCH   8  18
TORSDOF 9
