REMARK  Name = 75536754
REMARK  8 active torsions:
REMARK  status: ('A' for Active; 'I' for Inactive)
REMARK    1  A    between atoms: O_2  and  C_11
REMARK    2  A    between atoms: N_6  and  C_10
REMARK    3  A    between atoms: N_6  and  C_15
REMARK    4  A    between atoms: N_7  and  C_14
REMARK    5  A    between atoms: N_9  and  C_26
REMARK    6  A    between atoms: C_12  and  C_14
REMARK    7  A    between atoms: C_15  and  C_17
REMARK    8  A    between atoms: C_27  and  C_28
REMARK                            x       y       z     vdW  Elec       q    Type
REMARK                         _______ _______ _______ _____ _____    ______ ____
ROOT
ATOM      1  O   UNL     1      -1.793   0.766  -0.521  0.00  0.00    -0.371 OA
ATOM     10  C   UNL     1       0.182  -0.548  -0.426  0.00  0.00    +0.111 C 
ATOM     11  C   UNL     1      -0.734  -0.950   0.715  0.00  0.00    +0.164 C 
ATOM     12  C   UNL     1      -2.076  -0.441   0.206  0.00  0.00    +0.165 C 
ATOM     13  C   UNL     1      -0.384   0.811  -0.803  0.00  0.00    +0.181 C 
ENDROOT
BRANCH  11   2
ATOM      2  O   UNL     1      -0.750  -2.346   0.938  0.00  0.00    -0.388 OA
ATOM     30  H   UNL     1      -1.002  -2.785   0.109  0.00  0.00    +0.210 HD
ENDBRANCH  11   2
BRANCH  10   6
ATOM      6  N   UNL     1       1.587  -0.493  -0.054  0.00  0.00    -0.305 NA
ATOM     29  H   UNL     1       1.821  -1.327   0.485  0.00  0.00    +0.123 HD
BRANCH   6  15
ATOM     15  C   UNL     1       2.441  -0.439  -1.234  0.00  0.00    +0.116 C 
BRANCH  15  17
ATOM     17  C   UNL     1       3.899  -0.365  -0.868  0.00  0.00    -0.033 A 
ATOM     22  C   UNL     1       4.443   0.836  -0.413  0.00  0.00    +0.007 A 
ATOM     23  C   UNL     1       4.707  -1.496  -0.984  0.00  0.00    +0.007 A 
ATOM     24  C   UNL     1       5.795   0.906  -0.074  0.00  0.00    +0.023 A 
ATOM     25  C   UNL     1       6.058  -1.427  -0.645  0.00  0.00    +0.023 A 
ATOM     26  C   UNL     1       6.602  -0.226  -0.190  0.00  0.00    +0.033 A 
BRANCH  26   9
ATOM      5  O   UNL     1       8.246   2.082   0.829  0.00  0.00    -0.276 OA
ATOM      9  N   UNL     1       7.954  -0.157   0.148  0.00  0.00    -0.286 N 
ATOM     27  C   UNL     1       8.672   0.951   0.619  0.00  0.00    +0.214 C 
ATOM     28  C   UNL     1      10.120   0.612   0.870  0.00  0.00    +0.109 C 
ATOM     32  H   UNL     1       8.475  -1.024   0.036  0.00  0.00    +0.155 HD
ENDBRANCH  26   9
ENDBRANCH  15  17
ENDBRANCH   6  15
ENDBRANCH  10   6
BRANCH  12  14
ATOM     14  C   UNL     1      -3.070  -0.151   1.317  0.00  0.00    +0.140 C 
BRANCH  14   7
ATOM      3  O   UNL     1      -9.079   1.222  -0.469  0.00  0.00    -0.377 OA
ATOM      4  O   UNL     1      -5.268  -1.750   0.590  0.00  0.00    -0.253 OA
ATOM      7  N   UNL     1      -4.326   0.332   0.790  0.00  0.00    -0.297 N 
ATOM      8  N   UNL     1      -6.522   0.093  -0.051  0.00  0.00    -0.281 N 
ATOM     16  C   UNL     1      -5.367  -0.526   0.454  0.00  0.00    +0.302 C 
ATOM     18  C   UNL     1      -7.666  -0.737  -0.437  0.00  0.00    +0.137 C 
ATOM     19  C   UNL     1      -6.668   1.517  -0.385  0.00  0.00    +0.137 C 
ATOM     20  C   UNL     1      -8.973  -0.114   0.026  0.00  0.00    +0.179 C 
ATOM     21  C   UNL     1      -8.031   2.040   0.053  0.00  0.00    +0.179 C 
ATOM     31  H   UNL     1      -4.399   1.331   0.663  0.00  0.00    +0.150 HD
ENDBRANCH  14   7
ENDBRANCH  12  14
TORSDOF 7
