REMARK  Name = 25338363
REMARK  9 active torsions:
REMARK  status: ('A' for Active; 'I' for Inactive)
REMARK    1  A    between atoms: S_1  and  N_6
REMARK    2  A    between atoms: S_1  and  C_15
REMARK    3  A    between atoms: N_5  and  C_14
REMARK    4  A    between atoms: N_6  and  C_9
REMARK    5  A    between atoms: C_10  and  C_13
REMARK    6  A    between atoms: C_15  and  C_16
REMARK    7  A    between atoms: C_16  and  C_18
REMARK    8  A    between atoms: C_17  and  C_19
REMARK    9  A    between atoms: C_24  and  C_25
REMARK                            x       y       z     vdW  Elec       q    Type
REMARK                         _______ _______ _______ _____ _____    ______ ____
ROOT
ATOM      5  N   UNL     1      -1.244  -2.306   1.089  0.00  0.00    -0.293 NA
ATOM      9  C   UNL     1      -2.880  -1.171  -0.126  0.00  0.00    +0.092 C 
ATOM     10  C   UNL     1      -0.721  -2.296  -0.291  0.00  0.00    +0.147 C 
ATOM     11  C   UNL     1      -1.696  -1.387  -1.064  0.00  0.00    +0.050 C 
ATOM     12  C   UNL     1      -2.703  -2.215   0.964  0.00  0.00    +0.105 C 
ATOM     14  C   UNL     1      -0.837  -3.482   1.849  0.00  0.00    +0.105 C 
ENDROOT
BRANCH  10  13
ATOM      2  O   UNL     1       1.594  -2.689  -0.966  0.00  0.00    -0.336 OA
ATOM      7  N   UNL     1       1.248  -0.698   0.001  0.00  0.00    -0.190 NA
ATOM      8  N   UNL     1       2.838  -2.045  -0.945  0.00  0.00    -0.056 NA
ATOM     13  C   UNL     1       0.715  -1.827  -0.391  0.00  0.00    +0.245 A 
ATOM     17  C   UNL     1       2.552  -0.878  -0.360  0.00  0.00    +0.202 A 
BRANCH  17  19
ATOM     19  C   UNL     1       3.545   0.130  -0.123  0.00  0.00    +0.022 A 
ATOM     20  C   UNL     1       3.188   1.331   0.491  0.00  0.00    +0.012 A 
ATOM     21  C   UNL     1       4.868  -0.090  -0.508  0.00  0.00    +0.012 A 
ATOM     22  C   UNL     1       4.154   2.311   0.721  0.00  0.00    +0.004 A 
ATOM     23  C   UNL     1       5.833   0.890  -0.278  0.00  0.00    +0.004 A 
ATOM     24  C   UNL     1       5.476   2.091   0.336  0.00  0.00    -0.050 A 
ATOM     25  C   UNL     1       6.508   3.139   0.581  0.00  0.00    +0.044 C 
ENDBRANCH  17  19
ENDBRANCH  10  13
BRANCH   9   6
ATOM      6  N   UNL     1      -2.817   0.192   0.461  0.00  0.00    -0.190 NA
ATOM     26  H   UNL     1      -2.590   0.268   1.460  0.00  0.00    +0.148 HD
BRANCH   6   1
ATOM      1  S   UNL     1      -3.639   1.462  -0.319  0.00  0.00    +0.030 S 
ATOM      3  O   UNL     1      -3.681   1.222  -1.748  0.00  0.00    -0.158 OA
ATOM      4  O   UNL     1      -3.138   2.716   0.209  0.00  0.00    -0.158 OA
BRANCH   1  15
ATOM     15  C   UNL     1      -5.282   1.234   0.323  0.00  0.00    +0.185 C 
BRANCH  15  16
ATOM     16  C   UNL     1      -6.242   2.272  -0.234  0.00  0.00    +0.021 C 
ATOM     18  C   UNL     1      -7.642   2.092   0.327  0.00  0.00    +0.005 C 
ENDBRANCH  15  16
ENDBRANCH   1  15
ENDBRANCH   6   1
ENDBRANCH   9   6
TORSDOF 6
