REMARK  Name = 40780671
REMARK  10 active torsions:
REMARK  status: ('A' for Active; 'I' for Inactive)
REMARK    1  A    between atoms: S_1  and  C_28
REMARK    2  A    between atoms: S_1  and  C_32
REMARK    3  A    between atoms: O_4  and  C_13
REMARK    4  A    between atoms: O_5  and  C_14
REMARK    5  A    between atoms: N_8  and  C_23
REMARK    6  A    between atoms: N_9  and  C_17
REMARK    7  A    between atoms: C_12  and  C_16
REMARK    8  A    between atoms: C_15  and  C_17
REMARK    9  A    between atoms: C_16  and  C_18
REMARK   10  A    between atoms: C_25  and  C_28
REMARK                            x       y       z     vdW  Elec       q    Type
REMARK                         _______ _______ _______ _____ _____    ______ ____
ROOT
ATOM      3  O   UNL     1       2.275   1.378  -0.083  0.00  0.00    -0.366 OA
ATOM     12  C   UNL     1       1.236   2.323  -0.430  0.00  0.00    +0.159 C 
ATOM     13  C   UNL     1       1.941   3.534  -1.031  0.00  0.00    +0.175 C 
ATOM     14  C   UNL     1       3.286   3.493  -0.337  0.00  0.00    +0.176 C 
ATOM     15  C   UNL     1       3.557   1.999  -0.285  0.00  0.00    +0.171 C 
ENDROOT
BRANCH  13   4
ATOM      4  O   UNL     1       2.098   3.305  -2.431  0.00  0.00    -0.387 OA
ATOM     38  H   UNL     1       1.210   3.300  -2.826  0.00  0.00    +0.210 HD
ENDBRANCH  13   4
BRANCH  14   5
ATOM      5  O   UNL     1       4.296   4.191  -1.034  0.00  0.00    -0.387 OA
ATOM     39  H   UNL     1       4.002   5.112  -1.129  0.00  0.00    +0.210 HD
ENDBRANCH  14   5
BRANCH  12  16
ATOM     16  C   UNL     1       0.463   2.652   0.840  0.00  0.00    +0.130 C 
BRANCH  16  18
ATOM      6  O   UNL     1       0.584   0.738   2.240  0.00  0.00    -0.276 OA
ATOM      7  N   UNL     1      -1.384   1.030   1.040  0.00  0.00    -0.298 N 
ATOM      8  N   UNL     1      -4.125   0.314   0.441  0.00  0.00    -0.327 N 
ATOM     18  C   UNL     1      -0.097   1.388   1.443  0.00  0.00    +0.218 C 
ATOM     19  C   UNL     1      -2.192   1.803   0.093  0.00  0.00    +0.126 C 
ATOM     20  C   UNL     1      -2.000  -0.177   1.584  0.00  0.00    +0.126 C 
ATOM     21  C   UNL     1      -3.288   0.968  -0.568  0.00  0.00    +0.124 C 
ATOM     22  C   UNL     1      -3.513  -0.033   1.727  0.00  0.00    +0.124 C 
BRANCH   8  23
ATOM      2  F   UNL     1      -9.396  -0.951  -0.607  0.00  0.00    -0.205 F 
ATOM     23  C   UNL     1      -5.454  -0.005   0.177  0.00  0.00    +0.030 A 
ATOM     26  C   UNL     1      -5.854  -0.304  -1.126  0.00  0.00    +0.026 A 
ATOM     27  C   UNL     1      -6.386  -0.027   1.214  0.00  0.00    +0.026 A 
ATOM     29  C   UNL     1      -7.185  -0.624  -1.391  0.00  0.00    +0.040 A 
ATOM     30  C   UNL     1      -7.718  -0.346   0.949  0.00  0.00    +0.040 A 
ATOM     31  C   UNL     1      -8.117  -0.645  -0.353  0.00  0.00    +0.124 A 
ENDBRANCH   8  23
ENDBRANCH  16  18
ENDBRANCH  12  16
BRANCH  15  17
ATOM     17  C   UNL     1       4.502   1.596   0.833  0.00  0.00    +0.179 C 
BRANCH  17   9
ATOM      9  N   UNL     1       4.782   0.117   0.823  0.00  0.00    -0.249 N 
ATOM     10  N   UNL     1       5.942  -0.358   0.341  0.00  0.00    -0.065 NA
ATOM     11  N   UNL     1       5.904  -1.681   0.456  0.00  0.00    -0.134 NA
ATOM     24  C   UNL     1       3.971  -0.885   1.259  0.00  0.00    +0.134 A 
ATOM     25  C   UNL     1       4.703  -2.020   1.016  0.00  0.00    +0.093 A 
BRANCH  25  28
ATOM     28  C   UNL     1       4.352  -3.422   1.275  0.00  0.00    +0.133 C 
BRANCH  28   1
ATOM      1  S   UNL     1       3.864  -4.332  -0.233  0.00  0.00    -0.119 S 
BRANCH   1  32
ATOM     32  C   UNL     1       2.532  -3.305  -0.837  0.00  0.00    +0.008 A 
ATOM     33  C   UNL     1       2.803  -2.259  -1.718  0.00  0.00    +0.015 A 
ATOM     34  C   UNL     1       1.222  -3.550  -0.426  0.00  0.00    +0.015 A 
ATOM     35  C   UNL     1       1.763  -1.456  -2.188  0.00  0.00    +0.001 A 
ATOM     36  C   UNL     1       0.182  -2.748  -0.897  0.00  0.00    +0.001 A 
ATOM     37  C   UNL     1       0.453  -1.701  -1.778  0.00  0.00    +0.000 A 
ENDBRANCH   1  32
ENDBRANCH  28   1
ENDBRANCH  25  28
ENDBRANCH  17   9
ENDBRANCH  15  17
TORSDOF 10
