REMARK  Name = 71694384
REMARK  7 active torsions:
REMARK  status: ('A' for Active; 'I' for Inactive)
REMARK    1  A    between atoms: O_4  and  C_20
REMARK    2  A    between atoms: N_5  and  C_7
REMARK    3  A    between atoms: N_5  and  C_8
REMARK    4  A    between atoms: C_7  and  C_11
REMARK    5  A    between atoms: C_11  and  C_16
REMARK    6  A    between atoms: C_18  and  C_19
REMARK    7  A    between atoms: C_19  and  C_20
REMARK                            x       y       z     vdW  Elec       q    Type
REMARK                         _______ _______ _______ _____ _____    ______ ____
ROOT
ATOM      1  O   UNL     1      -0.775   3.515  -0.562  0.00  0.00    -0.376 OA
ATOM      7  C   UNL     1      -0.643   1.495   0.121  0.00  0.00    +0.072 C 
ATOM      9  C   UNL     1       0.284   2.522  -0.541  0.00  0.00    +0.184 C 
ATOM     10  C   UNL     1      -1.588   2.688   0.312  0.00  0.00    +0.184 C 
ENDROOT
BRANCH   7   5
ATOM      5  N   UNL     1      -1.193   0.627  -0.925  0.00  0.00    -0.304 NA
ATOM     21  H   UNL     1      -1.695   1.110  -1.669  0.00  0.00    +0.123 HD
BRANCH   5   8
ATOM      2  O   UNL     1      -4.616  -1.680  -0.157  0.00  0.00    -0.380 OA
ATOM      8  C   UNL     1      -2.049  -0.386  -0.312  0.00  0.00    +0.059 C 
ATOM     12  C   UNL     1      -2.514  -1.415  -1.347  0.00  0.00    +0.047 C 
ATOM     13  C   UNL     1      -3.261   0.272   0.353  0.00  0.00    +0.047 C 
ATOM     14  C   UNL     1      -3.510  -2.385  -0.721  0.00  0.00    +0.161 C 
ATOM     15  C   UNL     1      -4.216  -0.791   0.886  0.00  0.00    +0.161 C 
ENDBRANCH   5   8
ENDBRANCH   7   5
BRANCH   7  11
ATOM     11  C   UNL     1      -0.155   0.736   1.328  0.00  0.00    +0.085 C 
BRANCH  11  16
ATOM      3  O   UNL     1       2.267  -1.746   0.325  0.00  0.00    -0.359 OA
ATOM      6  N   UNL     1       0.963  -1.315   0.538  0.00  0.00    -0.083 NA
ATOM     16  C   UNL     1       1.083  -0.062   0.986  0.00  0.00    +0.086 A 
ATOM     17  C   UNL     1       2.424   0.348   1.075  0.00  0.00    +0.071 A 
ATOM     18  C   UNL     1       3.128  -0.747   0.648  0.00  0.00    +0.140 A 
BRANCH  18  19
ATOM     19  C   UNL     1       4.557  -1.035   0.480  0.00  0.00    +0.105 C 
BRANCH  19  20
ATOM     20  C   UNL     1       5.037  -0.969  -0.983  0.00  0.00    +0.163 C 
BRANCH  20   4
ATOM      4  O   UNL     1       4.778   0.328  -1.505  0.00  0.00    -0.395 OA
ATOM     22  H   UNL     1       5.094   0.333  -2.424  0.00  0.00    +0.209 HD
ENDBRANCH  20   4
ENDBRANCH  19  20
ENDBRANCH  18  19
ENDBRANCH  11  16
ENDBRANCH   7  11
TORSDOF 7
