REMARK  Name = 45361032
REMARK  8 active torsions:
REMARK  status: ('A' for Active; 'I' for Inactive)
REMARK    1  A    between atoms: N_5  and  C_20
REMARK    2  A    between atoms: N_6  and  C_19
REMARK    3  A    between atoms: N_9  and  C_25
REMARK    4  A    between atoms: C_15  and  C_18
REMARK    5  A    between atoms: C_18  and  C_21
REMARK    6  A    between atoms: C_19  and  C_22
REMARK    7  A    between atoms: C_21  and  C_23
REMARK    8  A    between atoms: C_25  and  C_26
REMARK                            x       y       z     vdW  Elec       q    Type
REMARK                         _______ _______ _______ _____ _____    ______ ____
ROOT
ATOM      3  O   UNL     1       2.347  -1.657  -0.818  0.00  0.00    -0.274 OA
ATOM      5  N   UNL     1       0.740   1.823  -0.275  0.00  0.00    -0.296 NA
ATOM      6  N   UNL     1       4.007   0.234   0.164  0.00  0.00    -0.284 NA
ATOM      7  N   UNL     1       0.528  -0.976   0.391  0.00  0.00    -0.312 N 
ATOM     11  C   UNL     1       2.076   1.693   0.348  0.00  0.00    +0.084 C 
ATOM     12  C   UNL     1       2.615   0.264   0.652  0.00  0.00    +0.161 C 
ATOM     13  C   UNL     1       3.218   2.295  -0.491  0.00  0.00    +0.036 C 
ATOM     14  C   UNL     1       4.455   1.618   0.061  0.00  0.00    +0.087 C 
ATOM     15  C   UNL     1      -0.384   1.321   0.564  0.00  0.00    +0.074 C 
ATOM     16  C   UNL     1       1.845  -0.873  -0.014  0.00  0.00    +0.232 C 
ATOM     17  C   UNL     1      -0.115  -0.021   1.273  0.00  0.00    +0.123 C 
ATOM     20  C   UNL     1       0.487   3.215  -0.686  0.00  0.00    +0.105 C 
ATOM     30  H   UNL     1      -0.035  -1.727   0.003  0.00  0.00    +0.149 HD
ENDROOT
BRANCH  15  18
ATOM     18  C   UNL     1      -1.659   1.148  -0.288  0.00  0.00    +0.029 C 
BRANCH  18  21
ATOM     21  C   UNL     1      -2.900   1.228   0.581  0.00  0.00    +0.097 C 
BRANCH  21  23
ATOM      4  O   UNL     1      -4.168   0.882  -1.452  0.00  0.00    -0.276 OA
ATOM      9  N   UNL     1      -5.302   1.131   0.558  0.00  0.00    -0.311 N 
ATOM     23  C   UNL     1      -4.168   1.059  -0.236  0.00  0.00    +0.213 C 
ATOM     31  H   UNL     1      -5.204   1.264   1.561  0.00  0.00    +0.149 HD
BRANCH   9  25
ATOM     25  C   UNL     1      -6.634   1.002   0.015  0.00  0.00    +0.146 C 
BRANCH  25  26
ATOM      2  S   UNL     1      -7.561  -1.187  -1.429  0.00  0.00    -0.100 S 
ATOM     26  C   UNL     1      -7.112  -0.426   0.037  0.00  0.00    +0.007 A 
ATOM     27  C   UNL     1      -7.254  -1.265   1.120  0.00  0.00    +0.013 A 
ATOM     28  C   UNL     1      -7.737  -2.551   0.741  0.00  0.00    +0.008 A 
ATOM     29  C   UNL     1      -7.946  -2.644  -0.617  0.00  0.00    +0.045 A 
ENDBRANCH  25  26
ENDBRANCH   9  25
ENDBRANCH  21  23
ENDBRANCH  18  21
ENDBRANCH  15  18
BRANCH   6  19
ATOM     19  C   UNL     1       4.894  -0.569   0.996  0.00  0.00    +0.143 C 
BRANCH  19  22
ATOM      1  S   UNL     1       7.814  -1.732  -1.439  0.00  0.00    +0.028 S 
ATOM      8  N   UNL     1       7.304  -1.172   0.950  0.00  0.00    -0.145 NA
ATOM     10  N   UNL     1       8.292  -1.559   0.158  0.00  0.00    -0.110 NA
ATOM     22  C   UNL     1       6.122  -1.008   0.245  0.00  0.00    +0.086 A 
ATOM     24  C   UNL     1       6.195  -1.272  -1.108  0.00  0.00    +0.093 A 
ENDBRANCH  19  22
ENDBRANCH   6  19
TORSDOF 7
