REMARK  Name = 11912192
REMARK  6 active torsions:
REMARK  status: ('A' for Active; 'I' for Inactive)
REMARK    1  A    between atoms: S_1  and  N_8
REMARK    2  A    between atoms: S_1  and  C_20
REMARK    3  A    between atoms: N_8  and  C_15
REMARK    4  A    between atoms: N_9  and  C_16
REMARK    5  A    between atoms: C_21  and  C_30
REMARK    6  A    between atoms: C_23  and  C_28
REMARK                            x       y       z     vdW  Elec       q    Type
REMARK                         _______ _______ _______ _____ _____    ______ ____
ROOT
ATOM      2  O   UNL     1       0.759   0.019   1.120  0.00  0.00    -0.370 OA
ATOM      3  O   UNL     1       1.817  -2.916   1.299  0.00  0.00    -0.370 OA
ATOM     13  C   UNL     1       1.728  -1.963   0.227  0.00  0.00    +0.170 C 
ATOM     14  C   UNL     1       0.436  -1.191   0.415  0.00  0.00    +0.171 C 
ATOM     15  C   UNL     1       2.807  -0.916   0.369  0.00  0.00    +0.133 C 
ATOM     16  C   UNL     1      -0.410  -2.093   1.283  0.00  0.00    +0.130 C 
ATOM     17  C   UNL     1       2.179   0.086   1.318  0.00  0.00    +0.183 C 
ATOM     18  C   UNL     1       0.629  -2.839   2.100  0.00  0.00    +0.185 C 
ENDROOT
BRANCH  16   9
ATOM      9  N   UNL     1      -1.156  -3.017   0.458  0.00  0.00    -0.306 N 
ATOM     10  N   UNL     1      -2.892  -1.477   0.110  0.00  0.00    -0.214 NA
ATOM     11  N   UNL     1      -2.971  -3.675  -0.876  0.00  0.00    -0.223 NA
ATOM     19  C   UNL     1      -2.376  -2.714  -0.120  0.00  0.00    +0.216 A 
ATOM     23  C   UNL     1      -4.083  -1.216  -0.469  0.00  0.00    +0.076 A 
ATOM     24  C   UNL     1      -4.159  -3.346  -1.424  0.00  0.00    +0.116 A 
ATOM     26  C   UNL     1      -4.769  -2.120  -1.254  0.00  0.00    +0.048 A 
ATOM     38  H   UNL     1      -0.756  -3.922   0.237  0.00  0.00    +0.149 HD
BRANCH  23  28
ATOM      6  O   UNL     1      -7.759   1.964   0.128  0.00  0.00    -0.453 OA
ATOM      7  O   UNL     1      -6.248   3.803   0.501  0.00  0.00    -0.453 OA
ATOM     28  C   UNL     1      -4.612   0.102  -0.213  0.00  0.00    +0.004 A 
ATOM     31  C   UNL     1      -5.996   0.304  -0.183  0.00  0.00    +0.059 A 
ATOM     32  C   UNL     1      -3.732   1.179   0.005  0.00  0.00    +0.014 A 
ATOM     33  C   UNL     1      -6.455   1.582   0.065  0.00  0.00    +0.167 A 
ATOM     34  C   UNL     1      -5.591   2.632   0.277  0.00  0.00    +0.166 A 
ATOM     35  C   UNL     1      -4.222   2.463   0.254  0.00  0.00    +0.050 A 
ATOM     36  C   UNL     1      -7.621   3.372   0.406  0.00  0.00    +0.466 C 
ENDBRANCH  23  28
ENDBRANCH  16   9
BRANCH  15   8
ATOM      8  N   UNL     1       3.051  -0.271  -0.944  0.00  0.00    -0.182 NA
ATOM     37  H   UNL     1       2.349   0.387  -1.302  0.00  0.00    +0.148 HD
BRANCH   8   1
ATOM      1  S   UNL     1       4.654  -0.263  -1.543  0.00  0.00    +0.060 S 
ATOM      4  O   UNL     1       4.712   0.531  -2.755  0.00  0.00    -0.153 OA
ATOM      5  O   UNL     1       5.175  -1.615  -1.501  0.00  0.00    -0.153 OA
BRANCH   1  20
ATOM     20  C   UNL     1       5.661   0.614  -0.347  0.00  0.00    +0.123 A 
ATOM     21  C   UNL     1       5.523   1.972  -0.183  0.00  0.00    +0.078 A 
ATOM     22  C   UNL     1       6.559  -0.138   0.376  0.00  0.00    +0.030 A 
ATOM     25  C   UNL     1       6.327   2.616   0.757  0.00  0.00    +0.021 A 
ATOM     27  C   UNL     1       7.363   0.506   1.316  0.00  0.00    +0.002 A 
ATOM     29  C   UNL     1       7.247   1.883   1.507  0.00  0.00    +0.001 A 
BRANCH  21  30
ATOM     12  N   UNL     1       3.835   3.389  -1.545  0.00  0.00    -0.191 NA
ATOM     30  C   UNL     1       4.590   2.755  -0.936  0.00  0.00    +0.101 C 
ENDBRANCH  21  30
ENDBRANCH   1  20
ENDBRANCH   8   1
ENDBRANCH  15   8
TORSDOF 6
