REMARK  Name = 11880086
REMARK  10 active torsions:
REMARK  status: ('A' for Active; 'I' for Inactive)
REMARK    1  A    between atoms: N_9  and  C_17
REMARK    2  A    between atoms: N_10  and  C_25
REMARK    3  A    between atoms: C_19  and  C_22
REMARK    4  A    between atoms: C_23  and  C_27
REMARK    5  A    between atoms: C_24  and  C_29
REMARK    6  A    between atoms: C_25  and  C_28
REMARK    7  A    between atoms: C_25  and  C_30
REMARK    8  A    between atoms: C_26  and  C_32
REMARK    9  A    between atoms: C_28  and  C_33
REMARK   10  A    between atoms: C_34  and  C_36
REMARK                            x       y       z     vdW  Elec       q    Type
REMARK                         _______ _______ _______ _____ _____    ______ ____
ROOT
ATOM      4  O   UNL     1      -1.895  -3.748  -2.340  0.00  0.00    -0.268 OA
ATOM      8  N   UNL     1      -0.703  -2.123  -1.169  0.00  0.00    -0.285 N 
ATOM     17  C   UNL     1       1.887  -0.995  -0.435  0.00  0.00    +0.113 C 
ATOM     18  C   UNL     1       0.695  -0.926   0.535  0.00  0.00    +0.059 C 
ATOM     19  C   UNL     1      -0.660  -1.041  -0.168  0.00  0.00    +0.164 C 
ATOM     20  C   UNL     1       1.767  -2.219  -1.353  0.00  0.00    +0.046 C 
ATOM     21  C   UNL     1       0.435  -2.207  -2.093  0.00  0.00    +0.111 C 
ATOM     23  C   UNL     1      -1.818  -2.953  -1.403  0.00  0.00    +0.266 C 
ENDROOT
BRANCH  23  27
ATOM      1  S   UNL     1      -5.081  -2.163   0.676  0.00  0.00    -0.080 S 
ATOM     13  N   UNL     1      -2.968  -3.652   0.653  0.00  0.00    -0.240 NA
ATOM     27  C   UNL     1      -2.930  -2.851  -0.469  0.00  0.00    +0.133 A 
ATOM     31  C   UNL     1      -3.985  -1.980  -0.630  0.00  0.00    +0.080 A 
ATOM     34  C   UNL     1      -4.059  -3.376   1.332  0.00  0.00    +0.076 A 
ATOM     36  C   UNL     1      -4.446  -4.035   2.598  0.00  0.00    +0.073 C 
ENDBRANCH  23  27
BRANCH  17   9
ATOM      9  N   UNL     1       3.179  -0.938   0.262  0.00  0.00    -0.236 N 
ATOM     11  N   UNL     1       3.518  -1.908   1.120  0.00  0.00    -0.064 NA
ATOM     12  N   UNL     1       4.721  -1.603   1.595  0.00  0.00    -0.124 NA
ATOM     24  C   UNL     1       4.141   0.012   0.157  0.00  0.00    +0.156 A 
ATOM     26  C   UNL     1       5.117  -0.430   1.015  0.00  0.00    +0.179 A 
BRANCH  24  29
ATOM      5  O   UNL     1       3.649   2.282  -0.286  0.00  0.00    -0.269 OA
ATOM     14  N   UNL     1       4.597   1.075  -1.971  0.00  0.00    -0.324 N 
ATOM     29  C   UNL     1       4.095   1.175  -0.669  0.00  0.00    +0.262 C 
ATOM     40  H   UNL     1       4.593   1.875  -2.594  0.00  0.00    +0.145 HD
ATOM     41  H   UNL     1       4.978   0.207  -2.336  0.00  0.00    +0.145 HD
ENDBRANCH  24  29
BRANCH  26  32
ATOM      7  O   UNL     1       6.739   1.276   0.793  0.00  0.00    -0.269 OA
ATOM     16  N   UNL     1       7.220  -0.439   2.216  0.00  0.00    -0.324 N 
ATOM     32  C   UNL     1       6.372   0.192   1.301  0.00  0.00    +0.264 C 
ATOM     44  H   UNL     1       8.118  -0.035   2.459  0.00  0.00    +0.145 HD
ATOM     45  H   UNL     1       6.971  -1.314   2.666  0.00  0.00    +0.145 HD
ENDBRANCH  26  32
ENDBRANCH  17   9
BRANCH  19  22
ATOM      3  O   UNL     1      -1.275   0.247  -2.084  0.00  0.00    -0.274 OA
ATOM     10  N   UNL     1      -1.070   1.316  -0.027  0.00  0.00    -0.302 N 
ATOM     22  C   UNL     1      -1.042   0.225  -0.879  0.00  0.00    +0.234 C 
ATOM     39  H   UNL     1      -0.869   1.186   0.960  0.00  0.00    +0.150 HD
BRANCH  10  25
ATOM     25  C   UNL     1      -1.387   2.655  -0.468  0.00  0.00    +0.163 C 
BRANCH  25  30
ATOM      6  O   UNL     1       1.008   3.066  -0.444  0.00  0.00    -0.274 OA
ATOM     15  N   UNL     1      -0.267   4.092  -2.056  0.00  0.00    -0.328 N 
ATOM     30  C   UNL     1      -0.089   3.285  -0.952  0.00  0.00    +0.231 C 
ATOM     42  H   UNL     1       0.522   4.562  -2.489  0.00  0.00    +0.145 HD
ATOM     43  H   UNL     1      -1.179   4.262  -2.468  0.00  0.00    +0.145 HD
ENDBRANCH  25  30
BRANCH  25  28
ATOM     28  C   UNL     1      -2.010   3.503   0.648  0.00  0.00    +0.074 C 
BRANCH  28  33
ATOM      2  S   UNL     1      -4.593   4.472   0.715  0.00  0.00    -0.102 S 
ATOM     33  C   UNL     1      -3.476   3.201   0.849  0.00  0.00    -0.008 A 
ATOM     35  C   UNL     1      -4.040   1.998   1.134  0.00  0.00    +0.011 A 
ATOM     37  C   UNL     1      -5.455   2.112   1.250  0.00  0.00    +0.008 A 
ATOM     38  C   UNL     1      -5.889   3.403   1.046  0.00  0.00    +0.045 A 
ENDBRANCH  28  33
ENDBRANCH  25  28
ENDBRANCH  10  25
ENDBRANCH  19  22
TORSDOF 9
