REMARK  Name = 45783556
REMARK  9 active torsions:
REMARK  status: ('A' for Active; 'I' for Inactive)
REMARK    1  A    between atoms: O_2  and  C_25
REMARK    2  A    between atoms: O_2  and  C_26
REMARK    3  A    between atoms: O_3  and  C_27
REMARK    4  A    between atoms: O_3  and  C_28
REMARK    5  A    between atoms: N_4  and  C_9
REMARK    6  A    between atoms: N_5  and  C_19
REMARK    7  A    between atoms: C_10  and  C_18
REMARK    8  A    between atoms: C_20  and  C_21
REMARK    9  A    between atoms: C_26  and  C_27
REMARK                            x       y       z     vdW  Elec       q    Type
REMARK                         _______ _______ _______ _____ _____    ______ ____
ROOT
ATOM      1  O   UNL     1      -1.461   2.001  -1.852  0.00  0.00    -0.336 OA
ATOM      6  N   UNL     1      -0.860   1.062   0.091  0.00  0.00    -0.190 NA
ATOM      7  N   UNL     1      -0.100   1.693  -1.973  0.00  0.00    -0.056 NA
ATOM     18  C   UNL     1      -1.829   1.597  -0.607  0.00  0.00    +0.245 A 
ATOM     20  C   UNL     1       0.181   1.142  -0.788  0.00  0.00    +0.204 A 
ENDROOT
BRANCH  20  21
ATOM      8  N   UNL     1       3.794   0.320  -1.097  0.00  0.00    -0.221 NA
ATOM     21  C   UNL     1       1.490   0.665  -0.450  0.00  0.00    +0.041 A 
ATOM     22  C   UNL     1       1.748   0.099   0.794  0.00  0.00    +0.018 A 
ATOM     23  C   UNL     1       2.539   0.751  -1.352  0.00  0.00    +0.126 A 
ATOM     24  C   UNL     1       3.027  -0.356   1.093  0.00  0.00    +0.068 A 
ATOM     25  C   UNL     1       4.006  -0.224   0.122  0.00  0.00    +0.215 A 
BRANCH  25   2
ATOM      2  O   UNL     1       5.275  -0.666   0.393  0.00  0.00    -0.474 OA
BRANCH   2  26
ATOM     26  C   UNL     1       6.242  -0.506  -0.638  0.00  0.00    +0.258 C 
BRANCH  26  27
ATOM     27  C   UNL     1       7.579  -1.027  -0.148  0.00  0.00    +0.200 C 
BRANCH  27   3
ATOM      3  O   UNL     1       7.981  -0.274   0.990  0.00  0.00    -0.380 OA
ATOM     28  C   UNL     1       9.222  -0.735   1.507  0.00  0.00    +0.194 C 
ENDBRANCH  27   3
ENDBRANCH  26  27
ENDBRANCH   2  26
ENDBRANCH  25   2
ENDBRANCH  20  21
BRANCH  18  10
ATOM      4  N   UNL     1      -3.757   0.851   0.777  0.00  0.00    -0.288 NA
ATOM     10  C   UNL     1      -3.277   1.822  -0.226  0.00  0.00    +0.146 C 
ATOM     11  C   UNL     1      -4.796   1.533   1.549  0.00  0.00    +0.085 C 
ATOM     14  C   UNL     1      -3.515   3.200   0.419  0.00  0.00    +0.030 C 
ATOM     15  C   UNL     1      -4.186   2.904   1.753  0.00  0.00    +0.017 C 
BRANCH   4   9
ATOM      5  N   UNL     1      -4.032  -3.302  -0.084  0.00  0.00    -0.305 NA
ATOM      9  C   UNL     1      -4.240  -0.396   0.187  0.00  0.00    +0.060 C 
ATOM     12  C   UNL     1      -4.710  -1.354   1.284  0.00  0.00    +0.034 C 
ATOM     13  C   UNL     1      -3.148  -1.062  -0.655  0.00  0.00    +0.034 C 
ATOM     16  C   UNL     1      -5.127  -2.703   0.692  0.00  0.00    +0.085 C 
ATOM     17  C   UNL     1      -3.615  -2.421  -1.184  0.00  0.00    +0.085 C 
ATOM     19  C   UNL     1      -4.428  -4.612  -0.601  0.00  0.00    +0.104 C 
ENDBRANCH   4   9
ENDBRANCH  18  10
TORSDOF 7
