REMARK  Name = 45361005
REMARK  9 active torsions:
REMARK  status: ('A' for Active; 'I' for Inactive)
REMARK    1  A    between atoms: N_3  and  C_17
REMARK    2  A    between atoms: N_4  and  C_19
REMARK    3  A    between atoms: N_6  and  C_25
REMARK    4  A    between atoms: N_8  and  C_28
REMARK    5  A    between atoms: C_14  and  C_18
REMARK    6  A    between atoms: C_17  and  C_20
REMARK    7  A    between atoms: C_18  and  C_21
REMARK    8  A    between atoms: C_21  and  C_22
REMARK    9  A    between atoms: C_28  and  C_31
REMARK                            x       y       z     vdW  Elec       q    Type
REMARK                         _______ _______ _______ _____ _____    ______ ____
ROOT
ATOM      1  O   UNL     1       1.390  -2.924   0.710  0.00  0.00    -0.274 OA
ATOM      3  N   UNL     1       1.859  -0.346   0.056  0.00  0.00    -0.283 NA
ATOM      4  N   UNL     1      -1.486  -1.157  -1.186  0.00  0.00    -0.296 NA
ATOM      5  N   UNL     1      -0.818  -2.604   1.219  0.00  0.00    -0.312 N 
ATOM     10  C   UNL     1      -0.442  -0.224  -0.708  0.00  0.00    +0.084 C 
ATOM     11  C   UNL     1       0.481  -0.680   0.461  0.00  0.00    +0.161 C 
ATOM     12  C   UNL     1       0.582   0.173  -1.788  0.00  0.00    +0.036 C 
ATOM     13  C   UNL     1       1.765   0.672  -0.985  0.00  0.00    +0.087 C 
ATOM     14  C   UNL     1      -2.531  -1.483  -0.175  0.00  0.00    +0.074 C 
ATOM     15  C   UNL     1       0.421  -2.170   0.787  0.00  0.00    +0.232 C 
ATOM     16  C   UNL     1      -1.997  -1.761   1.243  0.00  0.00    +0.123 C 
ATOM     19  C   UNL     1      -2.111  -0.656  -2.422  0.00  0.00    +0.105 C 
ATOM     36  H   UNL     1      -0.920  -3.582   1.475  0.00  0.00    +0.149 HD
ENDROOT
BRANCH   3  17
ATOM     17  C   UNL     1       2.700   0.082   1.167  0.00  0.00    +0.159 C 
BRANCH  17  20
ATOM      6  N   UNL     1       5.000  -0.606   0.432  0.00  0.00    -0.330 N 
ATOM      7  N   UNL     1       4.623   1.580   0.576  0.00  0.00    -0.231 NA
ATOM     20  C   UNL     1       4.103   0.382   0.727  0.00  0.00    +0.125 A 
ATOM     23  C   UNL     1       6.178  -0.007   0.066  0.00  0.00    +0.069 A 
ATOM     24  C   UNL     1       5.918   1.357   0.164  0.00  0.00    +0.089 A 
ATOM     25  C   UNL     1       4.755  -2.030   0.494  0.00  0.00    +0.150 C 
ATOM     26  C   UNL     1       7.412  -0.525  -0.330  0.00  0.00    +0.028 A 
ATOM     27  C   UNL     1       6.936   2.273  -0.148  0.00  0.00    +0.030 A 
ATOM     29  C   UNL     1       8.414   0.401  -0.636  0.00  0.00    +0.002 A 
ATOM     30  C   UNL     1       8.183   1.776  -0.548  0.00  0.00    +0.002 A 
ENDBRANCH  17  20
ENDBRANCH   3  17
BRANCH  14  18
ATOM     18  C   UNL     1      -3.342  -2.719  -0.617  0.00  0.00    +0.029 C 
BRANCH  18  21
ATOM     21  C   UNL     1      -4.717  -2.716   0.025  0.00  0.00    +0.097 C 
BRANCH  21  22
ATOM      2  O   UNL     1      -5.800  -1.199  -1.520  0.00  0.00    -0.276 OA
ATOM      8  N   UNL     1      -5.860  -0.729   0.753  0.00  0.00    -0.311 N 
ATOM     22  C   UNL     1      -5.512  -1.481  -0.360  0.00  0.00    +0.213 C 
ATOM     37  H   UNL     1      -5.559  -1.021   1.678  0.00  0.00    +0.149 HD
BRANCH   8  28
ATOM     28  C   UNL     1      -6.619   0.494   0.649  0.00  0.00    +0.141 C 
BRANCH  28  31
ATOM      9  N   UNL     1      -4.803   3.401  -0.949  0.00  0.00    -0.263 NA
ATOM     31  C   UNL     1      -5.731   1.694   0.491  0.00  0.00    -0.012 A 
ATOM     32  C   UNL     1      -5.025   2.212   1.571  0.00  0.00    +0.008 A 
ATOM     33  C   UNL     1      -5.587   2.320  -0.737  0.00  0.00    +0.115 A 
ATOM     34  C   UNL     1      -4.209   3.324   1.393  0.00  0.00    +0.020 A 
ATOM     35  C   UNL     1      -4.133   3.876   0.125  0.00  0.00    +0.111 A 
ENDBRANCH  28  31
ENDBRANCH   8  28
ENDBRANCH  21  22
ENDBRANCH  18  21
ENDBRANCH  14  18
TORSDOF 7
