REMARK  Name = 75537099
REMARK  3 active torsions:
REMARK  status: ('A' for Active; 'I' for Inactive)
REMARK    1  A    between atoms: N_4  and  C_12
REMARK    2  A    between atoms: N_5  and  C_13
REMARK    3  A    between atoms: C_12  and  C_14
REMARK                            x       y       z     vdW  Elec       q    Type
REMARK                         _______ _______ _______ _____ _____    ______ ____
ROOT
ATOM      2  O   UNL     1       4.355   1.996  -0.126  0.00  0.00    -0.252 OA
ATOM      3  N   UNL     1       2.494   0.571  -0.274  0.00  0.00    -0.278 N 
ATOM      4  N   UNL     1      -0.062  -0.473   0.263  0.00  0.00    -0.295 NA
ATOM      5  N   UNL     1       4.540  -0.354  -0.207  0.00  0.00    -0.287 N 
ATOM      6  C   UNL     1       2.259  -0.845  -0.466  0.00  0.00    +0.109 C 
ATOM      7  C   UNL     1       1.130  -1.326   0.445  0.00  0.00    +0.109 C 
ATOM      8  C   UNL     1       3.621  -1.479  -0.190  0.00  0.00    +0.132 C 
ATOM      9  C   UNL     1       1.370   1.484  -0.284  0.00  0.00    +0.125 C 
ATOM     10  C   UNL     1       0.241   0.934   0.592  0.00  0.00    +0.104 C 
ATOM     11  C   UNL     1       3.859   0.880  -0.198  0.00  0.00    +0.305 C 
ATOM     13  C   UNL     1       5.971  -0.530  -0.093  0.00  0.00    +0.133 C 
ENDROOT
BRANCH   4  12
ATOM     12  C   UNL     1      -1.168  -0.962   1.086  0.00  0.00    +0.119 C 
BRANCH  12  14
ATOM      1  F   UNL     1      -6.166   0.710  -0.908  0.00  0.00    -0.205 F 
ATOM     14  C   UNL     1      -2.503  -0.515   0.553  0.00  0.00    -0.033 A 
ATOM     15  C   UNL     1      -3.058   0.690   0.984  0.00  0.00    +0.008 A 
ATOM     16  C   UNL     1      -3.186  -1.306  -0.371  0.00  0.00    +0.008 A 
ATOM     17  C   UNL     1      -4.295   1.104   0.491  0.00  0.00    +0.038 A 
ATOM     18  C   UNL     1      -4.423  -0.892  -0.865  0.00  0.00    +0.038 A 
ATOM     19  C   UNL     1      -4.978   0.313  -0.433  0.00  0.00    +0.123 A 
ENDBRANCH  12  14
ENDBRANCH   4  12
TORSDOF 2
