REMARK  Name = 45361016
REMARK  10 active torsions:
REMARK  status: ('A' for Active; 'I' for Inactive)
REMARK    1  A    between atoms: O_4  and  C_26
REMARK    2  A    between atoms: O_4  and  C_29
REMARK    3  A    between atoms: N_5  and  C_16
REMARK    4  A    between atoms: N_6  and  C_18
REMARK    5  A    between atoms: N_8  and  C_27
REMARK    6  A    between atoms: C_13  and  C_17
REMARK    7  A    between atoms: C_16  and  C_20
REMARK    8  A    between atoms: C_17  and  C_19
REMARK    9  A    between atoms: C_19  and  C_21
REMARK   10  A    between atoms: C_27  and  C_28
REMARK                            x       y       z     vdW  Elec       q    Type
REMARK                         _______ _______ _______ _____ _____    ______ ____
ROOT
ATOM      2  O   UNL     1       1.568  -1.482  -0.396  0.00  0.00    -0.274 OA
ATOM      5  N   UNL     1       3.090   0.614   0.368  0.00  0.00    -0.286 NA
ATOM      6  N   UNL     1      -0.228   1.948  -0.407  0.00  0.00    -0.296 NA
ATOM      7  N   UNL     1      -0.333  -0.739   0.639  0.00  0.00    -0.312 N 
ATOM      9  C   UNL     1       1.084   1.978   0.276  0.00  0.00    +0.084 C 
ATOM     10  C   UNL     1       1.679   0.636   0.797  0.00  0.00    +0.161 C 
ATOM     11  C   UNL     1       2.231   2.519  -0.598  0.00  0.00    +0.036 C 
ATOM     12  C   UNL     1       3.474   1.992   0.087  0.00  0.00    +0.087 C 
ATOM     13  C   UNL     1      -1.361   1.507   0.453  0.00  0.00    +0.074 C 
ATOM     14  C   UNL     1       0.994  -0.622   0.270  0.00  0.00    +0.232 C 
ATOM     15  C   UNL     1      -1.058   0.293   1.353  0.00  0.00    +0.123 C 
ATOM     18  C   UNL     1      -0.530   3.253  -1.019  0.00  0.00    +0.105 C 
ATOM     33  H   UNL     1      -0.842  -1.565   0.340  0.00  0.00    +0.149 HD
ENDROOT
BRANCH   5  16
ATOM     16  C   UNL     1       3.978  -0.017   1.336  0.00  0.00    +0.120 C 
BRANCH  16  20
ATOM     20  C   UNL     1       5.257  -0.489   0.699  0.00  0.00    -0.033 A 
ATOM     22  C   UNL     1       5.266  -1.651  -0.072  0.00  0.00    +0.008 A 
ATOM     23  C   UNL     1       6.435   0.236   0.880  0.00  0.00    +0.008 A 
ATOM     24  C   UNL     1       6.451  -2.088  -0.662  0.00  0.00    +0.046 A 
ATOM     25  C   UNL     1       7.621  -0.201   0.290  0.00  0.00    +0.046 A 
ATOM     26  C   UNL     1       7.629  -1.363  -0.481  0.00  0.00    +0.120 A 
BRANCH  26   4
ATOM      4  O   UNL     1       8.786  -1.789  -1.058  0.00  0.00    -0.495 OA
ATOM     29  C   UNL     1       9.953  -1.000  -0.832  0.00  0.00    +0.277 C 
ENDBRANCH  26   4
ENDBRANCH  16  20
ENDBRANCH   5  16
BRANCH  13  17
ATOM     17  C   UNL     1      -2.589   1.149  -0.411  0.00  0.00    +0.029 C 
BRANCH  17  19
ATOM     19  C   UNL     1      -3.869   1.281   0.393  0.00  0.00    +0.097 C 
BRANCH  19  21
ATOM      3  O   UNL     1      -5.030   0.589  -1.615  0.00  0.00    -0.276 OA
ATOM      8  N   UNL     1      -6.261   1.053   0.298  0.00  0.00    -0.311 N 
ATOM     21  C   UNL     1      -5.090   0.933  -0.438  0.00  0.00    +0.213 C 
ATOM     34  H   UNL     1      -6.212   1.329   1.275  0.00  0.00    +0.149 HD
BRANCH   8  27
ATOM     27  C   UNL     1      -7.559   0.778  -0.269  0.00  0.00    +0.146 C 
BRANCH  27  28
ATOM      1  S   UNL     1      -8.316  -1.637  -1.423  0.00  0.00    -0.100 S 
ATOM     28  C   UNL     1      -7.968  -0.656  -0.063  0.00  0.00    +0.007 A 
ATOM     30  C   UNL     1      -8.116  -1.344   1.121  0.00  0.00    +0.013 A 
ATOM     31  C   UNL     1      -8.520  -2.694   0.910  0.00  0.00    +0.008 A 
ATOM     32  C   UNL     1      -8.665  -2.986  -0.428  0.00  0.00    +0.045 A 
ENDBRANCH  27  28
ENDBRANCH   8  27
ENDBRANCH  19  21
ENDBRANCH  17  19
ENDBRANCH  13  17
TORSDOF 8
