REMARK  Name = 11941199
REMARK  15 active torsions:
REMARK  status: ('A' for Active; 'I' for Inactive)
REMARK    1  A    between atoms: O_3  and  C_30
REMARK    2  A    between atoms: O_3  and  C_34
REMARK    3  A    between atoms: O_4  and  C_32
REMARK    4  A    between atoms: O_4  and  C_35
REMARK    5  A    between atoms: O_5  and  C_33
REMARK    6  A    between atoms: O_5  and  C_36
REMARK    7  A    between atoms: N_8  and  C_20
REMARK    8  A    between atoms: N_9  and  C_21
REMARK    9  A    between atoms: C_10  and  C_16
REMARK   10  A    between atoms: C_11  and  C_15
REMARK   11  A    between atoms: C_15  and  C_17
REMARK   12  A    between atoms: C_16  and  C_19
REMARK   13  A    between atoms: C_20  and  C_22
REMARK   14  A    between atoms: C_27  and  C_33
REMARK   15  A    between atoms: C_36  and  C_37
REMARK                            x       y       z     vdW  Elec       q    Type
REMARK                         _______ _______ _______ _____ _____    ______ ____
ROOT
ATOM      1  O   UNL     1       2.269   2.434   1.613  0.00  0.00    -0.252 OA
ATOM      7  N   UNL     1       1.459   0.277   1.801  0.00  0.00    -0.285 N 
ATOM      9  N   UNL     1       3.714   0.661   1.228  0.00  0.00    -0.269 N 
ATOM     10  C   UNL     1      -0.802  -1.358   1.034  0.00  0.00    +0.004 C 
ATOM     11  C   UNL     1       0.653  -1.822   0.758  0.00  0.00    +0.010 C 
ATOM     12  C   UNL     1      -0.905   0.175   1.134  0.00  0.00    +0.023 C 
ATOM     13  C   UNL     1       1.600  -1.187   1.790  0.00  0.00    +0.113 C 
ATOM     14  C   UNL     1       0.110   0.741   2.127  0.00  0.00    +0.109 C 
ATOM     18  C   UNL     1       2.481   1.220   1.558  0.00  0.00    +0.306 C 
ATOM     39  H   UNL     1       3.945  -0.254   1.597  0.00  0.00    +0.156 HD
ENDROOT
BRANCH   9  21
ATOM     21  C   UNL     1       4.718   1.222   0.399  0.00  0.00    +0.036 A 
ATOM     23  C   UNL     1       5.904   0.524   0.170  0.00  0.00    +0.038 A 
ATOM     24  C   UNL     1       4.520   2.472  -0.187  0.00  0.00    +0.023 A 
ATOM     27  C   UNL     1       6.892   1.077  -0.645  0.00  0.00    +0.061 A 
ATOM     28  C   UNL     1       5.507   3.025  -1.002  0.00  0.00    +0.003 A 
ATOM     29  C   UNL     1       6.693   2.327  -1.231  0.00  0.00    +0.015 A 
BRANCH  27  33
ATOM      6  O   UNL     1       9.223   0.885  -1.107  0.00  0.00    -0.245 OA
ATOM     33  C   UNL     1       8.128   0.350  -0.885  0.00  0.00    +0.339 C 
BRANCH  33   5
ATOM      5  O   UNL     1       7.934  -1.003  -0.836  0.00  0.00    -0.461 OA
BRANCH   5  36
ATOM     36  C   UNL     1       9.082  -1.830  -1.056  0.00  0.00    +0.229 C 
ATOM     37  C   UNL     1       8.668  -3.283  -0.962  0.00  0.00    +0.048 C 
ENDBRANCH   5  36
ENDBRANCH  33   5
ENDBRANCH  27  33
ENDBRANCH   9  21
BRANCH  11  15
ATOM     15  C   UNL     1       1.140  -1.534  -0.667  0.00  0.00    +0.002 C 
ATOM     17  C   UNL     1       2.528  -2.095  -0.894  0.00  0.00    +0.004 C 
ENDBRANCH  11  15
BRANCH  10  16
ATOM     16  C   UNL     1      -1.808  -1.901   0.019  0.00  0.00    +0.099 C 
BRANCH  16  19
ATOM      2  O   UNL     1      -3.511  -1.564   1.704  0.00  0.00    -0.276 OA
ATOM      8  N   UNL     1      -4.115  -2.402  -0.378  0.00  0.00    -0.311 N 
ATOM     19  C   UNL     1      -3.219  -1.924   0.567  0.00  0.00    +0.214 C 
ATOM     38  H   UNL     1      -3.774  -2.659  -1.299  0.00  0.00    +0.149 HD
BRANCH   8  20
ATOM     20  C   UNL     1      -5.532  -2.534  -0.126  0.00  0.00    +0.139 C 
BRANCH  20  22
ATOM     22  C   UNL     1      -6.286  -1.288  -0.491  0.00  0.00    -0.027 A 
ATOM     25  C   UNL     1      -6.478  -0.285   0.460  0.00  0.00    +0.054 A 
ATOM     26  C   UNL     1      -6.796  -1.134  -1.780  0.00  0.00    +0.009 A 
ATOM     30  C   UNL     1      -7.179   0.872   0.121  0.00  0.00    +0.162 A 
ATOM     31  C   UNL     1      -7.497   0.023  -2.118  0.00  0.00    +0.050 A 
ATOM     32  C   UNL     1      -7.689   1.026  -1.168  0.00  0.00    +0.162 A 
BRANCH  30   3
ATOM      3  O   UNL     1      -7.361   1.844   1.058  0.00  0.00    -0.491 OA
ATOM     34  C   UNL     1      -6.808   1.608   2.352  0.00  0.00    +0.277 C 
ENDBRANCH  30   3
BRANCH  32   4
ATOM      4  O   UNL     1      -8.375   2.151  -1.511  0.00  0.00    -0.491 OA
ATOM     35  C   UNL     1      -8.864   2.231  -2.849  0.00  0.00    +0.277 C 
ENDBRANCH  32   4
ENDBRANCH  20  22
ENDBRANCH   8  20
ENDBRANCH  16  19
ENDBRANCH  10  16
TORSDOF 11
