REMARK  Name = 56775685
REMARK  9 active torsions:
REMARK  status: ('A' for Active; 'I' for Inactive)
REMARK    1  A    between atoms: N_3  and  C_6
REMARK    2  A    between atoms: N_3  and  C_11
REMARK    3  A    between atoms: C_6  and  C_9
REMARK    4  A    between atoms: C_9  and  C_10
REMARK    5  A    between atoms: C_11  and  C_14
REMARK    6  A    between atoms: C_13  and  C_15
REMARK    7  A    between atoms: C_15  and  C_16
REMARK    8  A    between atoms: C_16  and  C_17
REMARK    9  A    between atoms: C_16  and  C_18
REMARK                            x       y       z     vdW  Elec       q    Type
REMARK                         _______ _______ _______ _____ _____    ______ ____
ROOT
ATOM      1  O   UNL     1      -1.169  -3.656   1.365  0.00  0.00    -0.376 OA
ATOM      6  C   UNL     1      -0.530  -2.106   0.044  0.00  0.00    +0.072 C 
ATOM      7  C   UNL     1      -0.043  -2.751   1.337  0.00  0.00    +0.184 C 
ATOM      8  C   UNL     1      -1.635  -3.155   0.092  0.00  0.00    +0.184 C 
ENDROOT
BRANCH   6   3
ATOM      3  N   UNL     1      -1.104  -0.805   0.356  0.00  0.00    -0.302 NA
ATOM     23  H   UNL     1      -0.443  -0.112   0.704  0.00  0.00    +0.123 HD
BRANCH   3  11
ATOM     11  C   UNL     1      -1.801  -0.279  -0.815  0.00  0.00    +0.118 C 
BRANCH  11  14
ATOM      5  N   UNL     1      -3.612   3.000  -0.264  0.00  0.00    -0.263 NA
ATOM     14  C   UNL     1      -2.877   0.703  -0.433  0.00  0.00    -0.015 A 
ATOM     19  C   UNL     1      -4.091   0.268   0.087  0.00  0.00    +0.008 A 
ATOM     20  C   UNL     1      -2.689   2.067  -0.588  0.00  0.00    +0.115 A 
ATOM     21  C   UNL     1      -5.066   1.198   0.432  0.00  0.00    +0.020 A 
ATOM     22  C   UNL     1      -4.780   2.539   0.238  0.00  0.00    +0.111 A 
ENDBRANCH  11  14
ENDBRANCH   3  11
ENDBRANCH   6   3
BRANCH   6   9
ATOM      9  C   UNL     1       0.409  -2.070  -1.169  0.00  0.00    +0.085 C 
BRANCH   9  10
ATOM      2  O   UNL     1       3.696  -1.077  -0.189  0.00  0.00    -0.359 OA
ATOM      4  N   UNL     1       2.704  -2.033  -0.369  0.00  0.00    -0.083 NA
ATOM     10  C   UNL     1       1.658  -1.359  -0.854  0.00  0.00    +0.086 A 
ATOM     12  C   UNL     1       1.928   0.013  -1.000  0.00  0.00    +0.071 A 
ATOM     13  C   UNL     1       3.222   0.137  -0.568  0.00  0.00    +0.138 A 
BRANCH  13  15
ATOM     15  C   UNL     1       4.174   1.302  -0.440  0.00  0.00    +0.080 C 
BRANCH  15  16
ATOM     16  C   UNL     1       3.633   2.456   0.427  0.00  0.00    -0.010 C 
ATOM     17  C   UNL     1       3.329   2.005   1.858  0.00  0.00    +0.007 C 
ATOM     18  C   UNL     1       4.645   3.604   0.452  0.00  0.00    +0.007 C 
ENDBRANCH  15  16
ENDBRANCH  13  15
ENDBRANCH   9  10
ENDBRANCH   6   9
TORSDOF 7
