REMARK  Name = 26743832
REMARK  6 active torsions:
REMARK  status: ('A' for Active; 'I' for Inactive)
REMARK    1  A    between atoms: O_1  and  C_8
REMARK    2  A    between atoms: N_3  and  C_10
REMARK    3  A    between atoms: C_6  and  C_11
REMARK    4  A    between atoms: C_10  and  C_12
REMARK    5  A    between atoms: C_13  and  C_16
REMARK    6  A    between atoms: C_22  and  C_25
REMARK                            x       y       z     vdW  Elec       q    Type
REMARK                         _______ _______ _______ _____ _____    ______ ____
ROOT
ATOM      3  N   UNL     1      -2.098   0.922  -0.050  0.00  0.00    -0.285 NA
ATOM      6  C   UNL     1      -1.282   2.084  -0.455  0.00  0.00    +0.149 C 
ATOM      7  C   UNL     1      -1.536   3.143   0.634  0.00  0.00    +0.061 C 
ATOM      8  C   UNL     1      -2.541   2.501   1.582  0.00  0.00    +0.130 C 
ATOM      9  C   UNL     1      -3.221   1.453   0.721  0.00  0.00    +0.116 C 
ENDROOT
BRANCH   6  11
ATOM      2  O   UNL     1       0.895   2.500  -1.484  0.00  0.00    -0.336 OA
ATOM      4  N   UNL     1       0.885   0.808  -0.016  0.00  0.00    -0.190 NA
ATOM      5  N   UNL     1       2.204   2.002  -1.456  0.00  0.00    -0.056 NA
ATOM     11  C   UNL     1       0.184   1.742  -0.609  0.00  0.00    +0.245 A 
ATOM     13  C   UNL     1       2.118   1.007  -0.568  0.00  0.00    +0.202 A 
BRANCH  13  16
ATOM     16  C   UNL     1       3.244   0.194  -0.208  0.00  0.00    +0.023 A 
ATOM     20  C   UNL     1       3.094  -0.832   0.726  0.00  0.00    +0.015 A 
ATOM     21  C   UNL     1       4.488   0.428  -0.794  0.00  0.00    +0.012 A 
ATOM     22  C   UNL     1       4.189  -1.623   1.074  0.00  0.00    -0.050 A 
ATOM     23  C   UNL     1       5.582  -0.363  -0.446  0.00  0.00    +0.001 A 
ATOM     24  C   UNL     1       5.433  -1.389   0.488  0.00  0.00    +0.003 A 
ATOM     25  C   UNL     1       4.030  -2.719   2.072  0.00  0.00    +0.044 C 
ENDBRANCH  13  16
ENDBRANCH   6  11
BRANCH   8   1
ATOM      1  O   UNL     1      -3.461   3.461   2.064  0.00  0.00    -0.390 OA
ATOM     26  H   UNL     1      -2.952   4.140   2.540  0.00  0.00    +0.210 HD
ENDBRANCH   8   1
BRANCH   3  10
ATOM     10  C   UNL     1      -2.541   0.110  -1.175  0.00  0.00    +0.120 C 
BRANCH  10  12
ATOM     12  C   UNL     1      -2.924  -1.282  -0.747  0.00  0.00    -0.033 A 
ATOM     14  C   UNL     1      -1.964  -2.295  -0.730  0.00  0.00    +0.005 A 
ATOM     15  C   UNL     1      -4.237  -1.559  -0.367  0.00  0.00    +0.005 A 
ATOM     17  C   UNL     1      -2.318  -3.584  -0.333  0.00  0.00    +0.000 A 
ATOM     18  C   UNL     1      -4.591  -2.848   0.030  0.00  0.00    +0.000 A 
ATOM     19  C   UNL     1      -3.631  -3.861   0.047  0.00  0.00    +0.000 A 
ENDBRANCH  10  12
ENDBRANCH   3  10
TORSDOF 5
