REMARK  Name = 40780076
REMARK  7 active torsions:
REMARK  status: ('A' for Active; 'I' for Inactive)
REMARK    1  A    between atoms: O_2  and  C_16
REMARK    2  A    between atoms: O_2  and  C_21
REMARK    3  A    between atoms: N_5  and  C_19
REMARK    4  A    between atoms: N_7  and  C_25
REMARK    5  A    between atoms: C_9  and  C_15
REMARK    6  A    between atoms: C_10  and  C_16
REMARK    7  A    between atoms: C_18  and  C_20
REMARK                            x       y       z     vdW  Elec       q    Type
REMARK                         _______ _______ _______ _____ _____    ______ ____
ROOT
ATOM      4  N   UNL     1       1.031  -3.579   0.636  0.00  0.00    -0.296 NA
ATOM      8  C   UNL     1       2.060  -2.421  -1.457  0.00  0.00    +0.002 C 
ATOM      9  C   UNL     1       2.838  -2.016  -0.175  0.00  0.00    +0.055 C 
ATOM     10  C   UNL     1      -0.040  -2.922  -0.158  0.00  0.00    +0.095 C 
ATOM     11  C   UNL     1       0.569  -2.059  -1.285  0.00  0.00    +0.026 C 
ATOM     12  C   UNL     1       2.144  -3.958  -1.563  0.00  0.00    +0.019 C 
ATOM     13  C   UNL     1       2.050  -2.578   1.042  0.00  0.00    +0.094 C 
ATOM     14  C   UNL     1       1.690  -4.583  -0.232  0.00  0.00    +0.085 C 
ENDROOT
BRANCH   9  15
ATOM      5  N   UNL     1       4.329  -0.148   0.679  0.00  0.00    -0.270 N 
ATOM      6  N   UNL     1       4.480   1.186   0.729  0.00  0.00    -0.171 NA
ATOM     15  C   UNL     1       3.213  -0.552   0.007  0.00  0.00    +0.044 A 
ATOM     17  C   UNL     1       2.591   0.598  -0.413  0.00  0.00    +0.053 A 
ATOM     18  C   UNL     1       3.415   1.637   0.060  0.00  0.00    +0.100 A 
ATOM     19  C   UNL     1       5.316  -0.993   1.312  0.00  0.00    +0.172 C 
BRANCH  18  20
ATOM      1  S   UNL     1       4.213   4.301   0.462  0.00  0.00    -0.095 S 
ATOM     20  C   UNL     1       3.175   3.078  -0.136  0.00  0.00    +0.039 A 
ATOM     22  C   UNL     1       2.097   3.601  -0.816  0.00  0.00    +0.018 A 
ATOM     23  C   UNL     1       2.125   5.026  -0.847  0.00  0.00    +0.008 A 
ATOM     24  C   UNL     1       3.222   5.536  -0.189  0.00  0.00    +0.046 A 
ENDBRANCH  18  20
ENDBRANCH   9  15
BRANCH  10  16
ATOM     16  C   UNL     1      -1.005  -2.119   0.716  0.00  0.00    +0.252 C 
BRANCH  16   2
ATOM      2  O   UNL     1      -2.045  -1.624  -0.105  0.00  0.00    -0.449 OA
BRANCH   2  21
ATOM      3  O   UNL     1      -3.006  -0.626   1.714  0.00  0.00    -0.226 OA
ATOM      7  N   UNL     1      -3.951  -0.468  -0.422  0.00  0.00    -0.251 N 
ATOM     21  C   UNL     1      -3.018  -0.871   0.514  0.00  0.00    +0.405 C 
ATOM     31  H   UNL     1      -3.788  -0.773  -1.379  0.00  0.00    +0.158 HD
BRANCH   7  25
ATOM     25  C   UNL     1      -5.107   0.318  -0.215  0.00  0.00    +0.036 A 
ATOM     26  C   UNL     1      -5.941   0.627  -1.290  0.00  0.00    +0.023 A 
ATOM     27  C   UNL     1      -5.415   0.783   1.063  0.00  0.00    +0.023 A 
ATOM     28  C   UNL     1      -7.082   1.403  -1.087  0.00  0.00    +0.002 A 
ATOM     29  C   UNL     1      -6.557   1.558   1.266  0.00  0.00    +0.002 A 
ATOM     30  C   UNL     1      -7.390   1.868   0.192  0.00  0.00    +0.000 A 
ENDBRANCH   7  25
ENDBRANCH   2  21
ENDBRANCH  16   2
ENDBRANCH  10  16
TORSDOF 6
