REMARK  Name = 45784065
REMARK  6 active torsions:
REMARK  status: ('A' for Active; 'I' for Inactive)
REMARK    1  A    between atoms: O_2  and  C_15
REMARK    2  A    between atoms: O_2  and  C_20
REMARK    3  A    between atoms: O_3  and  C_18
REMARK    4  A    between atoms: O_3  and  C_21
REMARK    5  A    between atoms: C_7  and  C_11
REMARK    6  A    between atoms: C_12  and  C_15
REMARK                            x       y       z     vdW  Elec       q    Type
REMARK                         _______ _______ _______ _____ _____    ______ ____
ROOT
ATOM      5  N   UNL     1       1.696  -1.564  -0.024  0.00  0.00    -0.341 N 
ATOM      6  N   UNL     1       0.441   0.242  -0.351  0.00  0.00    -0.232 NA
ATOM     11  C   UNL     1       0.437  -1.066  -0.220  0.00  0.00    +0.113 A 
ATOM     13  C   UNL     1       2.569  -0.507  -0.029  0.00  0.00    +0.070 A 
ATOM     14  C   UNL     1       1.762   0.609  -0.234  0.00  0.00    +0.089 A 
ATOM     16  C   UNL     1       3.954  -0.433   0.125  0.00  0.00    +0.073 A 
ATOM     17  C   UNL     1       2.355   1.881  -0.294  0.00  0.00    +0.033 A 
ATOM     18  C   UNL     1       4.527   0.841   0.063  0.00  0.00    +0.122 A 
ATOM     19  C   UNL     1       3.744   1.979  -0.142  0.00  0.00    +0.048 A 
ATOM     22  H   UNL     1       1.941  -2.537   0.104  0.00  0.00    +0.167 HD
ENDROOT
BRANCH  11   7
ATOM      1  O   UNL     1      -4.178   0.254  -1.660  0.00  0.00    -0.273 OA
ATOM      4  N   UNL     1      -2.816  -0.773  -0.102  0.00  0.00    -0.299 N 
ATOM      7  C   UNL     1      -0.775  -1.980  -0.268  0.00  0.00    +0.074 C 
ATOM      8  C   UNL     1      -1.382  -2.188   1.128  0.00  0.00    +0.032 C 
ATOM      9  C   UNL     1      -1.982  -1.477  -1.069  0.00  0.00    +0.119 C 
ATOM     10  C   UNL     1      -2.390  -1.053   1.265  0.00  0.00    +0.108 C 
ATOM     12  C   UNL     1      -3.858   0.050  -0.488  0.00  0.00    +0.241 C 
BRANCH  12  15
ATOM     15  C   UNL     1      -4.617   0.709   0.636  0.00  0.00    +0.255 C 
BRANCH  15   2
ATOM      2  O   UNL     1      -5.598   1.521   0.038  0.00  0.00    -0.374 OA
ATOM     20  C   UNL     1      -6.391   2.205   1.006  0.00  0.00    +0.194 C 
ENDBRANCH  15   2
ENDBRANCH  12  15
ENDBRANCH  11   7
BRANCH  18   3
ATOM      3  O   UNL     1       5.877   0.974   0.206  0.00  0.00    -0.495 OA
ATOM     21  C   UNL     1       6.625  -0.222   0.413  0.00  0.00    +0.277 C 
ENDBRANCH  18   3
TORSDOF 4
