REMARK  Name = 45361590
REMARK  15 active torsions:
REMARK  status: ('A' for Active; 'I' for Inactive)
REMARK    1  A    between atoms: O_1  and  C_11
REMARK    2  A    between atoms: O_4  and  C_26
REMARK    3  A    between atoms: O_4  and  C_30
REMARK    4  A    between atoms: O_5  and  C_33
REMARK    5  A    between atoms: O_5  and  C_34
REMARK    6  A    between atoms: N_6  and  C_15
REMARK    7  A    between atoms: N_7  and  C_25
REMARK    8  A    between atoms: C_8  and  C_18
REMARK    9  A    between atoms: C_10  and  C_20
REMARK   10  A    between atoms: C_14  and  C_19
REMARK   11  A    between atoms: C_19  and  C_21
REMARK   12  A    between atoms: C_19  and  C_22
REMARK   13  A    between atoms: C_23  and  C_24
REMARK   14  A    between atoms: C_24  and  C_26
REMARK   15  A    between atoms: C_25  and  C_27
REMARK                            x       y       z     vdW  Elec       q    Type
REMARK                         _______ _______ _______ _____ _____    ______ ____
ROOT
ATOM      8  C   UNL     1       0.776   0.027   1.397  0.00  0.00    -0.027 C 
ATOM      9  C   UNL     1       1.234   0.857   0.152  0.00  0.00    +0.028 C 
ATOM     10  C   UNL     1       2.770   1.177   0.228  0.00  0.00    +0.012 C 
ATOM     11  C   UNL     1       0.306   2.084  -0.080  0.00  0.00    +0.122 C 
ATOM     12  C   UNL     1      -0.711  -0.367   1.236  0.00  0.00    +0.007 C 
ATOM     13  C   UNL     1       1.604  -1.277   1.466  0.00  0.00    +0.009 C 
ATOM     14  C   UNL     1      -1.190   1.697  -0.136  0.00  0.00    +0.029 C 
ATOM     15  C   UNL     1       3.588  -0.137   0.372  0.00  0.00    +0.076 C 
ATOM     16  C   UNL     1      -1.627   0.835   1.048  0.00  0.00    +0.007 C 
ATOM     17  C   UNL     1       3.105  -1.031   1.514  0.00  0.00    +0.023 C 
ATOM     18  C   UNL     1       0.943   0.808   2.725  0.00  0.00    +0.011 C 
ATOM     20  C   UNL     1       3.295   1.968  -0.983  0.00  0.00    +0.010 C 
ENDROOT
BRANCH  15   6
ATOM      3  O   UNL     1       5.796  -1.770  -0.516  0.00  0.00    -0.276 OA
ATOM      6  N   UNL     1       4.999   0.127   0.561  0.00  0.00    -0.312 N 
ATOM     23  C   UNL     1       5.990  -0.723   0.096  0.00  0.00    +0.215 C 
ATOM     35  H   UNL     1       5.263   0.938   1.113  0.00  0.00    +0.149 HD
BRANCH  23  24
ATOM     24  C   UNL     1       7.376  -0.197   0.433  0.00  0.00    +0.124 C 
BRANCH  24  26
ATOM     26  C   UNL     1       8.492  -1.103  -0.062  0.00  0.00    +0.168 C 
BRANCH  26   4
ATOM      4  O   UNL     1       8.431  -1.195  -1.480  0.00  0.00    -0.382 OA
ATOM     30  C   UNL     1       9.463  -2.027  -1.993  0.00  0.00    +0.194 C 
ENDBRANCH  26   4
ENDBRANCH  24  26
ENDBRANCH  23  24
ENDBRANCH  15   6
BRANCH  11   1
ATOM      1  O   UNL     1       0.619   2.688  -1.336  0.00  0.00    -0.391 OA
ATOM     36  H   UNL     1       0.483   2.024  -2.033  0.00  0.00    +0.210 HD
ENDBRANCH  11   1
BRANCH  14  19
ATOM     19  C   UNL     1      -2.094   2.931  -0.234  0.00  0.00    +0.077 C 
ATOM     21  C   UNL     1      -1.876   3.838   0.972  0.00  0.00    +0.017 C 
BRANCH  19  22
ATOM      2  O   UNL     1      -4.413   2.845   0.460  0.00  0.00    -0.276 OA
ATOM      7  N   UNL     1      -3.782   1.687  -1.448  0.00  0.00    -0.311 N 
ATOM     22  C   UNL     1      -3.553   2.499  -0.348  0.00  0.00    +0.216 C 
ATOM     37  H   UNL     1      -3.028   1.490  -2.099  0.00  0.00    +0.149 HD
BRANCH   7  25
ATOM     25  C   UNL     1      -5.085   1.150  -1.766  0.00  0.00    +0.139 C 
BRANCH  25  27
ATOM     27  C   UNL     1      -5.317  -0.183  -1.116  0.00  0.00    -0.030 A 
ATOM     28  C   UNL     1      -4.701  -1.325  -1.626  0.00  0.00    +0.009 A 
ATOM     29  C   UNL     1      -6.150  -0.279  -0.001  0.00  0.00    +0.009 A 
ATOM     31  C   UNL     1      -4.917  -2.564  -1.022  0.00  0.00    +0.046 A 
ATOM     32  C   UNL     1      -6.366  -1.518   0.603  0.00  0.00    +0.046 A 
ATOM     33  C   UNL     1      -5.750  -2.660   0.092  0.00  0.00    +0.120 A 
BRANCH  33   5
ATOM      5  O   UNL     1      -5.960  -3.868   0.682  0.00  0.00    -0.495 OA
ATOM     34  C   UNL     1      -5.297  -4.995   0.109  0.00  0.00    +0.277 C 
ENDBRANCH  33   5
ENDBRANCH  25  27
ENDBRANCH   7  25
ENDBRANCH  19  22
ENDBRANCH  14  19
TORSDOF 10
