REMARK  Name = 75536558
REMARK  7 active torsions:
REMARK  status: ('A' for Active; 'I' for Inactive)
REMARK    1  A    between atoms: O_2  and  C_8
REMARK    2  A    between atoms: N_4  and  C_16
REMARK    3  A    between atoms: N_5  and  C_10
REMARK    4  A    between atoms: N_5  and  C_18
REMARK    5  A    between atoms: C_7  and  C_16
REMARK    6  A    between atoms: C_9  and  C_17
REMARK    7  A    between atoms: C_18  and  C_19
REMARK                            x       y       z     vdW  Elec       q    Type
REMARK                         _______ _______ _______ _____ _____    ______ ____
ROOT
ATOM      1  O   UNL     1       0.573  -1.179  -0.411  0.00  0.00    -0.371 OA
ATOM      7  C   UNL     1       0.904   0.095   0.167  0.00  0.00    +0.165 C 
ATOM      8  C   UNL     1      -0.400   0.659   0.717  0.00  0.00    +0.164 C 
ATOM     10  C   UNL     1      -1.395   0.148  -0.309  0.00  0.00    +0.111 C 
ATOM     15  C   UNL     1      -0.854  -1.245  -0.585  0.00  0.00    +0.181 C 
ENDROOT
BRANCH   8   2
ATOM      2  O   UNL     1      -0.372   2.071   0.794  0.00  0.00    -0.388 OA
ATOM     26  H   UNL     1      -0.180   2.422  -0.092  0.00  0.00    +0.210 HD
ENDBRANCH   8   2
BRANCH  10   5
ATOM      5  N   UNL     1      -2.769   0.138   0.166  0.00  0.00    -0.303 NA
ATOM     25  H   UNL     1      -2.967   1.023   0.634  0.00  0.00    +0.123 HD
BRANCH   5  18
ATOM     18  C   UNL     1      -3.705  -0.032  -0.938  0.00  0.00    +0.137 C 
BRANCH  18  19
ATOM      6  N   UNL     1      -5.863   1.058  -0.665  0.00  0.00    -0.259 NA
ATOM     19  C   UNL     1      -5.133  -0.062  -0.463  0.00  0.00    +0.055 A 
ATOM     20  C   UNL     1      -5.623  -1.207   0.144  0.00  0.00    +0.024 A 
ATOM     21  C   UNL     1      -6.946  -1.202   0.571  0.00  0.00    +0.003 A 
ATOM     22  C   UNL     1      -7.145   1.026  -0.237  0.00  0.00    +0.111 A 
ATOM     23  C   UNL     1      -7.729  -0.069   0.380  0.00  0.00    +0.020 A 
ENDBRANCH  18  19
ENDBRANCH   5  18
ENDBRANCH  10   5
BRANCH   7  16
ATOM     16  C   UNL     1       1.975  -0.086   1.228  0.00  0.00    +0.138 C 
BRANCH  16   4
ATOM      3  O   UNL     1       4.220   1.393   0.131  0.00  0.00    -0.276 OA
ATOM      4  N   UNL     1       3.181  -0.622   0.666  0.00  0.00    -0.313 N 
ATOM     17  C   UNL     1       4.209   0.166   0.161  0.00  0.00    +0.216 C 
ATOM     24  H   UNL     1       3.277  -1.633   0.644  0.00  0.00    +0.149 HD
BRANCH  17   9
ATOM      9  C   UNL     1       5.363  -0.647  -0.342  0.00  0.00    +0.075 C 
ATOM     11  C   UNL     1       6.382  -0.876   0.780  0.00  0.00    +0.013 C 
ATOM     12  C   UNL     1       6.107   0.100  -1.450  0.00  0.00    +0.013 C 
ATOM     13  C   UNL     1       7.710  -0.346   0.250  0.00  0.00    +0.001 C 
ATOM     14  C   UNL     1       7.311   0.719  -0.755  0.00  0.00    +0.001 C 
ENDBRANCH  17   9
ENDBRANCH  16   4
ENDBRANCH   7  16
TORSDOF 7
