REMARK  Name = 75536610
REMARK  7 active torsions:
REMARK  status: ('A' for Active; 'I' for Inactive)
REMARK    1  A    between atoms: O_4  and  C_9
REMARK    2  A    between atoms: N_6  and  C_8
REMARK    3  A    between atoms: N_6  and  C_13
REMARK    4  A    between atoms: N_7  and  C_12
REMARK    5  A    between atoms: C_10  and  C_12
REMARK    6  A    between atoms: C_13  and  C_14
REMARK    7  A    between atoms: C_15  and  C_18
REMARK                            x       y       z     vdW  Elec       q    Type
REMARK                         _______ _______ _______ _____ _____    ______ ____
ROOT
ATOM      3  O   UNL     1       0.868   0.915   0.091  0.00  0.00    -0.371 OA
ATOM      8  C   UNL     1      -1.145  -0.324   0.322  0.00  0.00    +0.111 C 
ATOM      9  C   UNL     1      -0.214  -1.064  -0.621  0.00  0.00    +0.164 C 
ATOM     10  C   UNL     1       1.130  -0.459  -0.240  0.00  0.00    +0.165 C 
ATOM     11  C   UNL     1      -0.546   1.073   0.302  0.00  0.00    +0.181 C 
ENDROOT
BRANCH   9   4
ATOM      4  O   UNL     1      -0.237  -2.464  -0.424  0.00  0.00    -0.388 OA
ATOM     26  H   UNL     1      -0.019  -2.646   0.505  0.00  0.00    +0.210 HD
ENDBRANCH   9   4
BRANCH   8   6
ATOM      6  N   UNL     1      -2.538  -0.349  -0.095  0.00  0.00    -0.305 NA
ATOM     25  H   UNL     1      -2.785  -1.299  -0.373  0.00  0.00    +0.123 HD
BRANCH   6  13
ATOM     13  C   UNL     1      -3.418   0.070   0.990  0.00  0.00    +0.119 C 
BRANCH  13  14
ATOM      2  F   UNL     1      -4.560   2.085  -0.640  0.00  0.00    -0.205 F 
ATOM     14  C   UNL     1      -4.864   0.066   0.571  0.00  0.00    +0.002 A 
ATOM     16  C   UNL     1      -5.362   1.091  -0.233  0.00  0.00    +0.128 A 
ATOM     17  C   UNL     1      -5.706  -0.964   0.989  0.00  0.00    +0.008 A 
ATOM     19  C   UNL     1      -6.702   1.086  -0.620  0.00  0.00    +0.038 A 
ATOM     20  C   UNL     1      -7.047  -0.970   0.603  0.00  0.00    +0.000 A 
ATOM     21  C   UNL     1      -7.545   0.055  -0.202  0.00  0.00    +0.003 A 
ENDBRANCH  13  14
ENDBRANCH   6  13
ENDBRANCH   8   6
BRANCH  10  12
ATOM     12  C   UNL     1       2.158  -0.531  -1.355  0.00  0.00    +0.138 C 
BRANCH  12   7
ATOM      5  O   UNL     1       4.355  -1.881  -0.091  0.00  0.00    -0.270 OA
ATOM      7  N   UNL     1       3.405   0.053  -0.953  0.00  0.00    -0.308 N 
ATOM     15  C   UNL     1       4.419  -0.680  -0.344  0.00  0.00    +0.251 C 
ATOM     27  H   UNL     1       3.523   1.047  -1.119  0.00  0.00    +0.149 HD
BRANCH  15  18
ATOM      1  S   UNL     1       6.934  -0.752   0.790  0.00  0.00    -0.092 S 
ATOM     18  C   UNL     1       5.640   0.077   0.035  0.00  0.00    +0.074 A 
ATOM     22  C   UNL     1       5.912   1.417  -0.132  0.00  0.00    +0.021 A 
ATOM     23  C   UNL     1       7.200   1.768   0.365  0.00  0.00    +0.008 A 
ATOM     24  C   UNL     1       7.864   0.682   0.894  0.00  0.00    +0.046 A 
ENDBRANCH  15  18
ENDBRANCH  12   7
ENDBRANCH  10  12
TORSDOF 7
