REMARK  Name = 45360775
REMARK  9 active torsions:
REMARK  status: ('A' for Active; 'I' for Inactive)
REMARK    1  A    between atoms: O_3  and  C_24
REMARK    2  A    between atoms: O_4  and  C_30
REMARK    3  A    between atoms: O_4  and  C_31
REMARK    4  A    between atoms: N_7  and  C_11
REMARK    5  A    between atoms: N_7  and  C_18
REMARK    6  A    between atoms: C_10  and  C_15
REMARK    7  A    between atoms: C_15  and  C_17
REMARK    8  A    between atoms: C_17  and  C_19
REMARK    9  A    between atoms: C_18  and  C_25
REMARK                            x       y       z     vdW  Elec       q    Type
REMARK                         _______ _______ _______ _____ _____    ______ ____
ROOT
ATOM      1  O   UNL     1       1.267   4.878   0.932  0.00  0.00    -0.274 OA
ATOM      5  N   UNL     1      -0.713   1.885   0.271  0.00  0.00    -0.286 NA
ATOM      6  N   UNL     1      -0.314   4.502  -0.658  0.00  0.00    -0.313 N 
ATOM      9  C   UNL     1       0.106   2.784   1.093  0.00  0.00    +0.145 C 
ATOM     10  C   UNL     1      -1.787   2.550  -0.459  0.00  0.00    +0.075 C 
ATOM     11  C   UNL     1       1.215   0.682   0.593  0.00  0.00    +0.070 C 
ATOM     12  C   UNL     1       1.399   1.994   1.355  0.00  0.00    +0.048 C 
ATOM     13  C   UNL     1       0.204   1.038  -0.489  0.00  0.00    +0.104 C 
ATOM     14  C   UNL     1      -1.231   3.638  -1.365  0.00  0.00    +0.123 C 
ATOM     16  C   UNL     1       0.420   4.127   0.441  0.00  0.00    +0.230 C 
ATOM     32  H   UNL     1      -0.111   5.407  -1.071  0.00  0.00    +0.149 HD
ENDROOT
BRANCH  11   7
ATOM      7  N   UNL     1       2.461   0.148   0.068  0.00  0.00    -0.308 NA
ATOM     33  H   UNL     1       2.251  -0.514  -0.680  0.00  0.00    +0.123 HD
BRANCH   7  18
ATOM     18  C   UNL     1       3.216  -0.538   1.109  0.00  0.00    +0.116 C 
BRANCH  18  25
ATOM     25  C   UNL     1       4.518  -1.087   0.588  0.00  0.00    -0.033 A 
ATOM     26  C   UNL     1       4.526  -2.246  -0.188  0.00  0.00    +0.008 A 
ATOM     27  C   UNL     1       5.716  -0.436   0.882  0.00  0.00    +0.008 A 
ATOM     28  C   UNL     1       5.733  -2.754  -0.670  0.00  0.00    +0.046 A 
ATOM     29  C   UNL     1       6.922  -0.944   0.400  0.00  0.00    +0.046 A 
ATOM     30  C   UNL     1       6.931  -2.103  -0.376  0.00  0.00    +0.120 A 
BRANCH  30   4
ATOM      4  O   UNL     1       8.108  -2.598  -0.848  0.00  0.00    -0.495 OA
ATOM     31  C   UNL     1       9.295  -1.882  -0.509  0.00  0.00    +0.277 C 
ENDBRANCH  30   4
ENDBRANCH  18  25
ENDBRANCH   7  18
ENDBRANCH  11   7
BRANCH  10  15
ATOM     15  C   UNL     1      -2.662   1.574  -1.247  0.00  0.00    +0.029 C 
BRANCH  15  17
ATOM     17  C   UNL     1      -3.292   0.511  -0.358  0.00  0.00    +0.097 C 
BRANCH  17  19
ATOM      2  O   UNL     1      -4.310  -0.216  -2.370  0.00  0.00    -0.276 OA
ATOM      8  N   UNL     1      -4.822  -1.426  -0.454  0.00  0.00    -0.301 N 
ATOM     19  C   UNL     1      -4.184  -0.405  -1.157  0.00  0.00    +0.216 C 
ATOM     20  C   UNL     1      -4.691  -1.674   0.988  0.00  0.00    +0.110 C 
ATOM     21  C   UNL     1      -5.668  -2.385  -1.169  0.00  0.00    +0.110 C 
ATOM     22  C   UNL     1      -6.063  -1.737   1.653  0.00  0.00    +0.050 C 
ATOM     23  C   UNL     1      -7.057  -2.458  -0.543  0.00  0.00    +0.050 C 
ATOM     24  C   UNL     1      -6.973  -2.748   0.956  0.00  0.00    +0.118 C 
BRANCH  24   3
ATOM      3  O   UNL     1      -8.270  -2.673   1.535  0.00  0.00    -0.392 OA
ATOM     34  H   UNL     1      -8.834  -3.319   1.075  0.00  0.00    +0.210 HD
ENDBRANCH  24   3
ENDBRANCH  17  19
ENDBRANCH  15  17
ENDBRANCH  10  15
TORSDOF 8
