REMARK  Name = 28959930
REMARK  8 active torsions:
REMARK  status: ('A' for Active; 'I' for Inactive)
REMARK    1  A    between atoms: O_3  and  C_26
REMARK    2  A    between atoms: N_6  and  C_16
REMARK    3  A    between atoms: N_7  and  C_27
REMARK    4  A    between atoms: C_8  and  C_12
REMARK    5  A    between atoms: C_9  and  C_15
REMARK    6  A    between atoms: C_12  and  C_16
REMARK    7  A    between atoms: C_14  and  C_17
REMARK    8  A    between atoms: C_15  and  C_26
REMARK                            x       y       z     vdW  Elec       q    Type
REMARK                         _______ _______ _______ _____ _____    ______ ____
ROOT
ATOM      2  O   UNL     1      -3.035   3.040  -1.644  0.00  0.00    -0.275 OA
ATOM      5  N   UNL     1      -3.525   1.375  -0.107  0.00  0.00    -0.301 N 
ATOM      8  C   UNL     1      -3.061  -0.827   0.943  0.00  0.00    +0.011 C 
ATOM      9  C   UNL     1      -4.237  -1.421   0.128  0.00  0.00    +0.006 C 
ATOM     10  C   UNL     1      -3.286   0.680   1.163  0.00  0.00    +0.111 C 
ATOM     11  C   UNL     1      -4.483  -0.631  -1.169  0.00  0.00    +0.023 C 
ATOM     13  C   UNL     1      -4.649   0.860  -0.888  0.00  0.00    +0.108 C 
ATOM     17  C   UNL     1      -2.781   2.470  -0.572  0.00  0.00    +0.219 C 
ENDROOT
BRANCH  17  14
ATOM     14  C   UNL     1      -1.643   2.936   0.284  0.00  0.00    +0.075 C 
ATOM     18  C   UNL     1      -2.118   4.027   1.250  0.00  0.00    +0.013 C 
ATOM     19  C   UNL     1      -0.547   3.570  -0.573  0.00  0.00    +0.013 C 
ATOM     20  C   UNL     1      -1.216   5.230   0.995  0.00  0.00    +0.001 C 
ATOM     21  C   UNL     1      -0.782   5.069  -0.451  0.00  0.00    +0.001 C 
ENDBRANCH  17  14
BRANCH   8  12
ATOM     12  C   UNL     1      -1.682  -1.073   0.318  0.00  0.00    +0.020 C 
BRANCH  12  16
ATOM     16  C   UNL     1      -0.593  -1.060   1.382  0.00  0.00    +0.085 C 
BRANCH  16   6
ATOM      6  N   UNL     1       0.712  -1.279   0.760  0.00  0.00    -0.299 NA
ATOM      7  N   UNL     1       3.501  -0.841   0.328  0.00  0.00    -0.327 N 
ATOM     22  C   UNL     1       1.695  -1.706   1.762  0.00  0.00    +0.103 C 
ATOM     23  C   UNL     1       1.177  -0.057   0.093  0.00  0.00    +0.103 C 
ATOM     24  C   UNL     1       3.052  -1.994   1.115  0.00  0.00    +0.120 C 
ATOM     25  C   UNL     1       2.516  -0.290  -0.611  0.00  0.00    +0.120 C 
BRANCH   7  27
ATOM      1  F   UNL     1       8.860  -0.290  -0.913  0.00  0.00    -0.205 F 
ATOM     27  C   UNL     1       4.858  -0.701   0.014  0.00  0.00    +0.030 A 
ATOM     28  C   UNL     1       5.658  -1.834  -0.139  0.00  0.00    +0.026 A 
ATOM     29  C   UNL     1       5.409   0.570  -0.148  0.00  0.00    +0.026 A 
ATOM     30  C   UNL     1       7.010  -1.695  -0.452  0.00  0.00    +0.040 A 
ATOM     31  C   UNL     1       6.761   0.708  -0.461  0.00  0.00    +0.040 A 
ATOM     32  C   UNL     1       7.562  -0.424  -0.613  0.00  0.00    +0.124 A 
ENDBRANCH   7  27
ENDBRANCH  16   6
ENDBRANCH  12  16
ENDBRANCH   8  12
BRANCH   9  15
ATOM     15  C   UNL     1      -4.068  -2.910  -0.172  0.00  0.00    +0.124 C 
BRANCH  15  26
ATOM      4  O   UNL     1      -6.485  -3.035  -0.461  0.00  0.00    -0.251 OA
ATOM     26  C   UNL     1      -5.388  -3.573  -0.454  0.00  0.00    +0.305 C 
BRANCH  26   3
ATOM      3  O   UNL     1      -5.193  -4.892  -0.710  0.00  0.00    -0.481 OA
ATOM     33  H   UNL     1      -6.036  -5.357  -0.899  0.00  0.00    +0.295 HD
ENDBRANCH  26   3
ENDBRANCH  15  26
ENDBRANCH   9  15
TORSDOF 8
