REMARK  Name = 7144193
REMARK  8 active torsions:
REMARK  status: ('A' for Active; 'I' for Inactive)
REMARK    1  A    between atoms: O_6  and  C_25
REMARK    2  A    between atoms: O_6  and  C_31
REMARK    3  A    between atoms: O_7  and  C_30
REMARK    4  A    between atoms: O_7  and  C_33
REMARK    5  A    between atoms: O_8  and  C_32
REMARK    6  A    between atoms: C_19  and  C_24
REMARK    7  A    between atoms: C_21  and  C_25
REMARK    8  A    between atoms: C_31  and  C_32
REMARK                            x       y       z     vdW  Elec       q    Type
REMARK                         _______ _______ _______ _____ _____    ______ ____
ROOT
ATOM      4  O   UNL     1      -2.854   3.545   2.122  0.00  0.00    -0.268 OA
ATOM      5  O   UNL     1      -4.179  -0.057  -1.486  0.00  0.00    -0.273 OA
ATOM     10  N   UNL     1      -1.998   0.653  -1.852  0.00  0.00    -0.299 N 
ATOM     11  N   UNL     1      -1.373   2.663   0.535  0.00  0.00    -0.311 N 
ATOM     12  C   UNL     1      -1.666   3.119  -1.971  0.00  0.00    +0.027 C 
ATOM     13  C   UNL     1       0.170   1.683  -1.191  0.00  0.00    +0.054 C 
ATOM     14  C   UNL     1      -0.161   2.911  -2.037  0.00  0.00    +0.018 C 
ATOM     15  C   UNL     1      -2.412   1.890  -2.516  0.00  0.00    +0.113 C 
ATOM     16  C   UNL     1      -2.051   3.425  -0.523  0.00  0.00    +0.130 C 
ATOM     17  C   UNL     1      -0.545   0.448  -1.777  0.00  0.00    +0.117 C 
ATOM     18  C   UNL     1      -0.230   1.881   0.274  0.00  0.00    +0.034 A 
ATOM     19  C   UNL     1       0.452   1.316   1.304  0.00  0.00    +0.002 A 
ATOM     20  C   UNL     1      -1.870   2.862   1.836  0.00  0.00    +0.252 A 
ATOM     21  C   UNL     1      -2.963  -0.252  -1.412  0.00  0.00    +0.241 C 
ATOM     22  C   UNL     1      -0.032   1.498   2.659  0.00  0.00    +0.015 A 
ATOM     23  C   UNL     1      -1.127   2.206   2.935  0.00  0.00    +0.071 A 
ENDROOT
BRANCH  19  24
ATOM     24  C   UNL     1       1.668   0.504   1.080  0.00  0.00    -0.016 A 
ATOM     26  C   UNL     1       1.559  -0.870   0.863  0.00  0.00    +0.012 A 
ATOM     27  C   UNL     1       2.924   1.111   1.086  0.00  0.00    +0.012 A 
ATOM     28  C   UNL     1       2.705  -1.636   0.652  0.00  0.00    +0.046 A 
ATOM     29  C   UNL     1       4.070   0.345   0.875  0.00  0.00    +0.046 A 
ATOM     30  C   UNL     1       3.961  -1.029   0.658  0.00  0.00    +0.130 A 
BRANCH  30   7
ATOM      7  O   UNL     1       5.080  -1.776   0.453  0.00  0.00    -0.406 OA
BRANCH   7  33
ATOM      1  F   UNL     1       6.490  -2.593  -1.109  0.00  0.00    -0.133 F 
ATOM      2  F   UNL     1       5.183  -0.933  -1.671  0.00  0.00    -0.133 F 
ATOM      3  F   UNL     1       6.889  -0.600  -0.305  0.00  0.00    -0.133 F 
ATOM     33  C   UNL     1       5.908  -1.458  -0.660  0.00  0.00    +0.575 C 
ENDBRANCH   7  33
ENDBRANCH  30   7
ENDBRANCH  19  24
BRANCH  21  25
ATOM     25  C   UNL     1      -2.458  -1.536  -0.804  0.00  0.00    +0.256 C 
BRANCH  25   6
ATOM      6  O   UNL     1      -3.593  -2.266  -0.406  0.00  0.00    -0.359 OA
BRANCH   6  31
ATOM     31  C   UNL     1      -3.245  -3.514   0.191  0.00  0.00    +0.280 C 
BRANCH  31  32
ATOM      9  O   UNL     1      -5.637  -3.842   0.465  0.00  0.00    -0.248 OA
ATOM     32  C   UNL     1      -4.493  -4.249   0.596  0.00  0.00    +0.331 C 
BRANCH  32   8
ATOM      8  O   UNL     1      -4.173  -5.452   1.136  0.00  0.00    -0.479 OA
ATOM     34  H   UNL     1      -4.970  -5.954   1.410  0.00  0.00    +0.295 HD
ENDBRANCH  32   8
ENDBRANCH  31  32
ENDBRANCH   6  31
ENDBRANCH  25   6
ENDBRANCH  21  25
TORSDOF 8
