REMARK  Name = 25390790
REMARK  9 active torsions:
REMARK  status: ('A' for Active; 'I' for Inactive)
REMARK    1  A    between atoms: O_3  and  C_13
REMARK    2  A    between atoms: O_3  and  C_16
REMARK    3  A    between atoms: O_5  and  C_29
REMARK    4  A    between atoms: O_5  and  C_30
REMARK    5  A    between atoms: N_6  and  C_12
REMARK    6  A    between atoms: N_9  and  C_23
REMARK    7  A    between atoms: N_9  and  C_24
REMARK    8  A    between atoms: C_16  and  C_18
REMARK    9  A    between atoms: C_19  and  C_22
REMARK                            x       y       z     vdW  Elec       q    Type
REMARK                         _______ _______ _______ _____ _____    ______ ____
ROOT
ATOM      6  N   UNL     1      -0.085  -2.075   0.712  0.00  0.00    -0.306 N 
ATOM      7  N   UNL     1      -2.200  -1.256   0.209  0.00  0.00    -0.214 NA
ATOM      8  N   UNL     1      -1.535  -3.482  -0.432  0.00  0.00    -0.223 NA
ATOM     17  C   UNL     1      -1.328  -2.280   0.139  0.00  0.00    +0.216 A 
ATOM     19  C   UNL     1      -3.400  -1.490  -0.362  0.00  0.00    +0.076 A 
ATOM     20  C   UNL     1      -2.755  -3.648  -0.984  0.00  0.00    +0.116 A 
ATOM     21  C   UNL     1      -3.737  -2.678  -0.979  0.00  0.00    +0.048 A 
ATOM     31  H   UNL     1       0.594  -2.821   0.615  0.00  0.00    +0.149 HD
ENDROOT
BRANCH   6  12
ATOM      1  O   UNL     1       2.681  -0.854   1.440  0.00  0.00    -0.369 OA
ATOM      2  O   UNL     1       0.771   1.484   0.892  0.00  0.00    -0.369 OA
ATOM     10  C   UNL     1       0.827   0.147   0.352  0.00  0.00    +0.172 C 
ATOM     11  C   UNL     1       2.293  -0.211   0.215  0.00  0.00    +0.180 C 
ATOM     12  C   UNL     1       0.302  -0.843   1.366  0.00  0.00    +0.130 C 
ATOM     13  C   UNL     1       2.947   1.142   0.063  0.00  0.00    +0.176 C 
ATOM     14  C   UNL     1       1.516  -1.074   2.250  0.00  0.00    +0.185 C 
ATOM     15  C   UNL     1       2.105   2.007   0.974  0.00  0.00    +0.194 C 
BRANCH  13   3
ATOM      3  O   UNL     1       4.308   1.153   0.429  0.00  0.00    -0.362 OA
BRANCH   3  16
ATOM     16  C   UNL     1       5.152   0.741  -0.643  0.00  0.00    +0.256 C 
BRANCH  16  18
ATOM      4  O   UNL     1       6.856   1.159   0.950  0.00  0.00    -0.273 OA
ATOM      9  N   UNL     1       7.564   0.351  -1.109  0.00  0.00    -0.306 N 
ATOM     18  C   UNL     1       6.598   0.773  -0.194  0.00  0.00    +0.241 C 
ATOM     23  C   UNL     1       8.969   0.355  -0.719  0.00  0.00    +0.131 C 
ATOM     24  C   UNL     1       7.297  -0.127  -2.463  0.00  0.00    +0.131 C 
ENDBRANCH  16  18
ENDBRANCH   3  16
ENDBRANCH  13   3
ENDBRANCH   6  12
BRANCH  19  22
ATOM     22  C   UNL     1      -4.337  -0.395  -0.289  0.00  0.00    +0.001 A 
ATOM     25  C   UNL     1      -5.561  -0.566   0.358  0.00  0.00    +0.013 A 
ATOM     26  C   UNL     1      -4.020   0.834  -0.868  0.00  0.00    +0.013 A 
ATOM     27  C   UNL     1      -6.468   0.491   0.427  0.00  0.00    +0.046 A 
ATOM     28  C   UNL     1      -4.927   1.891  -0.799  0.00  0.00    +0.046 A 
ATOM     29  C   UNL     1      -6.151   1.720  -0.152  0.00  0.00    +0.120 A 
BRANCH  29   5
ATOM      5  O   UNL     1      -7.036   2.752  -0.085  0.00  0.00    -0.495 OA
ATOM     30  C   UNL     1      -6.648   3.981  -0.698  0.00  0.00    +0.277 C 
ENDBRANCH  29   5
ENDBRANCH  19  22
TORSDOF 6
