REMARK  Name = 44716227
REMARK  6 active torsions:
REMARK  status: ('A' for Active; 'I' for Inactive)
REMARK    1  A    between atoms: N_5  and  C_16
REMARK    2  A    between atoms: C_10  and  C_17
REMARK    3  A    between atoms: C_11  and  C_16
REMARK    4  A    between atoms: C_22  and  C_24
REMARK    5  A    between atoms: C_25  and  C_26
REMARK    6  A    between atoms: C_31  and  C_32
REMARK                            x       y       z     vdW  Elec       q    Type
REMARK                         _______ _______ _______ _____ _____    ______ ____
ROOT
ATOM      3  N   UNL     1      -3.430   3.677   0.182  0.00  0.00    -0.297 NA
ATOM      9  C   UNL     1      -3.728   1.375  -0.993  0.00  0.00    +0.005 C 
ATOM     10  C   UNL     1      -4.386   1.380   0.401  0.00  0.00    +0.092 C 
ATOM     11  C   UNL     1      -2.111   3.170  -0.282  0.00  0.00    +0.078 C 
ATOM     12  C   UNL     1      -2.237   1.737  -0.845  0.00  0.00    +0.025 C 
ATOM     13  C   UNL     1      -4.396   2.501  -1.803  0.00  0.00    +0.020 C 
ATOM     14  C   UNL     1      -4.058   2.705   1.110  0.00  0.00    +0.097 C 
ATOM     15  C   UNL     1      -4.308   3.816  -1.006  0.00  0.00    +0.085 C 
ENDROOT
BRANCH  10  17
ATOM      1  O   UNL     1      -2.971   0.295   1.960  0.00  0.00    -0.275 OA
ATOM      4  N   UNL     1      -4.718  -0.968   1.094  0.00  0.00    -0.301 N 
ATOM     17  C   UNL     1      -3.956   0.192   1.225  0.00  0.00    +0.220 C 
ATOM     18  C   UNL     1      -4.389  -2.150   1.893  0.00  0.00    +0.108 C 
ATOM     19  C   UNL     1      -5.894  -1.120   0.228  0.00  0.00    +0.108 C 
ATOM     20  C   UNL     1      -4.195  -3.374   1.001  0.00  0.00    +0.032 C 
ATOM     21  C   UNL     1      -5.731  -2.323  -0.699  0.00  0.00    +0.032 C 
ATOM     22  C   UNL     1      -5.409  -3.592   0.093  0.00  0.00    +0.078 C 
BRANCH  22  24
ATOM      2  O   UNL     1      -3.999  -4.977  -1.250  0.00  0.00    -0.276 OA
ATOM      8  N   UNL     1      -6.255  -5.431  -1.210  0.00  0.00    -0.329 N 
ATOM     24  C   UNL     1      -5.132  -4.727  -0.844  0.00  0.00    +0.214 C 
ATOM     38  H   UNL     1      -6.191  -6.219  -1.846  0.00  0.00    +0.145 HD
ATOM     39  H   UNL     1      -7.181  -5.195  -0.870  0.00  0.00    +0.145 HD
ENDBRANCH  22  24
ENDBRANCH  10  17
BRANCH  11  16
ATOM     16  C   UNL     1      -1.036   3.262   0.803  0.00  0.00    +0.164 C 
BRANCH  16   5
ATOM      5  N   UNL     1       0.323   2.917   0.263  0.00  0.00    -0.250 N 
ATOM      6  N   UNL     1       0.852   3.614  -0.756  0.00  0.00    -0.065 NA
ATOM      7  N   UNL     1       2.046   3.090  -1.014  0.00  0.00    -0.130 NA
ATOM     23  C   UNL     1       1.161   1.931   0.685  0.00  0.00    +0.138 A 
ATOM     25  C   UNL     1       2.250   2.059  -0.140  0.00  0.00    +0.113 A 
BRANCH  25  26
ATOM     26  C   UNL     1       3.422   1.245  -0.102  0.00  0.00    +0.004 A 
ATOM     27  C   UNL     1       3.337  -0.082   0.319  0.00  0.00    +0.011 A 
ATOM     28  C   UNL     1       4.653   1.778  -0.485  0.00  0.00    +0.011 A 
ATOM     29  C   UNL     1       4.483  -0.877   0.356  0.00  0.00    +0.009 A 
ATOM     30  C   UNL     1       5.799   0.983  -0.448  0.00  0.00    +0.009 A 
ATOM     31  C   UNL     1       5.714  -0.344  -0.028  0.00  0.00    -0.018 A 
BRANCH  31  32
ATOM     32  C   UNL     1       6.903  -1.167   0.011  0.00  0.00    -0.018 A 
ATOM     33  C   UNL     1       7.680  -1.215   1.168  0.00  0.00    +0.008 A 
ATOM     34  C   UNL     1       7.273  -1.912  -1.109  0.00  0.00    +0.008 A 
ATOM     35  C   UNL     1       8.827  -2.008   1.206  0.00  0.00    +0.001 A 
ATOM     36  C   UNL     1       8.420  -2.705  -1.071  0.00  0.00    +0.001 A 
ATOM     37  C   UNL     1       9.197  -2.753   0.086  0.00  0.00    +0.000 A 
ENDBRANCH  31  32
ENDBRANCH  25  26
ENDBRANCH  16   5
ENDBRANCH  11  16
TORSDOF 6
