REMARK  Name = 45783963
REMARK  5 active torsions:
REMARK  status: ('A' for Active; 'I' for Inactive)
REMARK    1  A    between atoms: O_3  and  C_15
REMARK    2  A    between atoms: O_3  and  C_20
REMARK    3  A    between atoms: C_6  and  C_10
REMARK    4  A    between atoms: C_11  and  C_12
REMARK    5  A    between atoms: C_12  and  C_15
REMARK                            x       y       z     vdW  Elec       q    Type
REMARK                         _______ _______ _______ _____ _____    ______ ____
ROOT
ATOM      2  O   UNL     1      -3.384  -0.087  -1.336  0.00  0.00    -0.276 OA
ATOM      4  N   UNL     1      -1.798  -1.157  -0.040  0.00  0.00    -0.301 N 
ATOM      6  C   UNL     1       0.387  -1.978  -0.490  0.00  0.00    +0.094 C 
ATOM      7  C   UNL     1      -0.102  -2.532   0.858  0.00  0.00    +0.033 C 
ATOM      8  C   UNL     1      -0.926  -1.532  -1.146  0.00  0.00    +0.120 C 
ATOM      9  C   UNL     1      -1.259  -1.614   1.236  0.00  0.00    +0.108 C 
ATOM     11  C   UNL     1      -2.971  -0.450  -0.233  0.00  0.00    +0.218 C 
ENDROOT
BRANCH   6  10
ATOM      1  O   UNL     1       2.738  -1.352  -0.255  0.00  0.00    -0.439 OA
ATOM      5  N   UNL     1       1.290   0.390  -0.178  0.00  0.00    -0.213 NA
ATOM     10  C   UNL     1       1.450  -0.910  -0.302  0.00  0.00    +0.201 A 
ATOM     13  C   UNL     1       3.464  -0.209  -0.084  0.00  0.00    +0.155 A 
ATOM     14  C   UNL     1       2.575   0.855  -0.037  0.00  0.00    +0.110 A 
ATOM     16  C   UNL     1       4.844  -0.092   0.027  0.00  0.00    +0.048 A 
ATOM     17  C   UNL     1       3.078   2.152   0.134  0.00  0.00    +0.031 A 
ATOM     18  C   UNL     1       5.330   1.209   0.197  0.00  0.00    +0.004 A 
ATOM     19  C   UNL     1       4.467   2.310   0.250  0.00  0.00    +0.002 A 
ENDBRANCH   6  10
BRANCH  11  12
ATOM     12  C   UNL     1      -3.755  -0.137   1.016  0.00  0.00    +0.124 C 
BRANCH  12  15
ATOM     15  C   UNL     1      -5.004   0.635   0.649  0.00  0.00    +0.168 C 
BRANCH  15   3
ATOM      3  O   UNL     1      -4.640   1.866   0.039  0.00  0.00    -0.382 OA
ATOM     20  C   UNL     1      -5.784   2.635  -0.307  0.00  0.00    +0.194 C 
ENDBRANCH  15   3
ENDBRANCH  12  15
ENDBRANCH  11  12
TORSDOF 4
