REMARK  Name = 45361609
REMARK  10 active torsions:
REMARK  status: ('A' for Active; 'I' for Inactive)
REMARK    1  A    between atoms: O_1  and  C_11
REMARK    2  A    between atoms: N_5  and  C_15
REMARK    3  A    between atoms: N_6  and  C_25
REMARK    4  A    between atoms: C_8  and  C_18
REMARK    5  A    between atoms: C_10  and  C_20
REMARK    6  A    between atoms: C_14  and  C_19
REMARK    7  A    between atoms: C_19  and  C_21
REMARK    8  A    between atoms: C_19  and  C_22
REMARK    9  A    between atoms: C_23  and  C_24
REMARK   10  A    between atoms: C_25  and  C_27
REMARK                            x       y       z     vdW  Elec       q    Type
REMARK                         _______ _______ _______ _____ _____    ______ ____
ROOT
ATOM      8  C   UNL     1       0.035  -0.177  -1.524  0.00  0.00    -0.027 C 
ATOM      9  C   UNL     1      -0.180   0.309  -0.052  0.00  0.00    +0.028 C 
ATOM     10  C   UNL     1      -1.683   0.693   0.197  0.00  0.00    +0.012 C 
ATOM     11  C   UNL     1       0.861   1.397   0.340  0.00  0.00    +0.122 C 
ATOM     12  C   UNL     1       1.496  -0.652  -1.703  0.00  0.00    +0.007 C 
ATOM     13  C   UNL     1      -0.890  -1.386  -1.796  0.00  0.00    +0.009 C 
ATOM     14  C   UNL     1       2.317   0.955   0.062  0.00  0.00    +0.029 C 
ATOM     15  C   UNL     1      -2.609  -0.506  -0.152  0.00  0.00    +0.076 C 
ATOM     16  C   UNL     1       2.518   0.423  -1.357  0.00  0.00    +0.007 C 
ATOM     17  C   UNL     1      -2.360  -1.081  -1.546  0.00  0.00    +0.023 C 
ATOM     18  C   UNL     1      -0.258   0.934  -2.565  0.00  0.00    +0.011 C 
ATOM     20  C   UNL     1      -1.971   1.153   1.636  0.00  0.00    +0.010 C 
ENDROOT
BRANCH  15   5
ATOM      3  O   UNL     1      -4.764  -2.241   0.617  0.00  0.00    -0.269 OA
ATOM      5  N   UNL     1      -4.009  -0.151  -0.045  0.00  0.00    -0.307 N 
ATOM     23  C   UNL     1      -4.977  -1.065   0.335  0.00  0.00    +0.263 C 
ATOM     34  H   UNL     1      -4.290   0.787  -0.316  0.00  0.00    +0.149 HD
BRANCH  23  24
ATOM      7  N   UNL     1      -6.525   0.747   0.026  0.00  0.00    -0.250 NA
ATOM     24  C   UNL     1      -6.370  -0.550   0.371  0.00  0.00    +0.125 A 
ATOM     26  C   UNL     1      -7.413  -1.385   0.739  0.00  0.00    +0.033 A 
ATOM     28  C   UNL     1      -8.698  -0.854   0.754  0.00  0.00    +0.004 A 
ATOM     29  C   UNL     1      -7.788   1.229   0.052  0.00  0.00    +0.111 A 
ATOM     31  C   UNL     1      -8.898   0.477   0.405  0.00  0.00    +0.020 A 
ENDBRANCH  23  24
ENDBRANCH  15   5
BRANCH  11   1
ATOM      1  O   UNL     1       0.774   1.657   1.742  0.00  0.00    -0.391 OA
ATOM     35  H   UNL     1       0.960   0.828   2.215  0.00  0.00    +0.210 HD
ENDBRANCH  11   1
BRANCH  14  19
ATOM     19  C   UNL     1       3.316   2.087   0.331  0.00  0.00    +0.077 C 
ATOM     21  C   UNL     1       3.000   3.288  -0.552  0.00  0.00    +0.017 C 
BRANCH  19  22
ATOM      2  O   UNL     1       5.311   1.683  -0.982  0.00  0.00    -0.276 OA
ATOM      6  N   UNL     1       5.296   1.026   1.243  0.00  0.00    -0.308 N 
ATOM     22  C   UNL     1       4.740   1.588   0.103  0.00  0.00    +0.217 C 
ATOM     36  H   UNL     1       4.740   0.963   2.091  0.00  0.00    +0.149 HD
BRANCH   6  25
ATOM     25  C   UNL     1       6.634   0.483   1.273  0.00  0.00    +0.178 C 
BRANCH  25  27
ATOM      4  O   UNL     1       6.201  -1.247  -0.379  0.00  0.00    -0.466 OA
ATOM     27  C   UNL     1       6.662  -0.963   0.867  0.00  0.00    +0.122 A 
ATOM     30  C   UNL     1       7.071  -2.111   1.505  0.00  0.00    +0.046 A 
ATOM     32  C   UNL     1       6.845  -3.169   0.593  0.00  0.00    +0.041 A 
ATOM     33  C   UNL     1       6.315  -2.591  -0.538  0.00  0.00    +0.195 A 
ENDBRANCH  25  27
ENDBRANCH   6  25
ENDBRANCH  19  22
ENDBRANCH  14  19
TORSDOF 7
