REMARK  Name = 11866248
REMARK  6 active torsions:
REMARK  status: ('A' for Active; 'I' for Inactive)
REMARK    1  A    between atoms: S_2  and  N_8
REMARK    2  A    between atoms: S_2  and  C_25
REMARK    3  A    between atoms: C_10  and  C_18
REMARK    4  A    between atoms: C_15  and  C_22
REMARK    5  A    between atoms: C_17  and  C_23
REMARK    6  A    between atoms: C_30  and  C_31
REMARK                            x       y       z     vdW  Elec       q    Type
REMARK                         _______ _______ _______ _____ _____    ______ ____
ROOT
ATOM      1  S   UNL     1      -0.815  -2.526   0.953  0.00  0.00    -0.056 S 
ATOM      3  O   UNL     1       4.341   1.944  -0.117  0.00  0.00    -0.461 OA
ATOM      4  O   UNL     1       6.105   3.420  -0.153  0.00  0.00    -0.251 OA
ATOM      7  N   UNL     1      -0.830  -0.117   0.009  0.00  0.00    -0.228 NA
ATOM      8  N   UNL     1      -3.059  -0.997   0.373  0.00  0.00    -0.194 N 
ATOM      9  C   UNL     1       2.994  -0.151   0.263  0.00  0.00    +0.045 C 
ATOM     10  C   UNL     1       3.114  -1.721   0.039  0.00  0.00    -0.021 C 
ATOM     11  C   UNL     1       4.223   0.541  -0.350  0.00  0.00    +0.184 C 
ATOM     12  C   UNL     1       5.495   0.013   0.285  0.00  0.00    +0.044 C 
ATOM     13  C   UNL     1       4.497  -2.244   0.536  0.00  0.00    +0.008 C 
ATOM     14  C   UNL     1       5.696  -1.459  -0.014  0.00  0.00    +0.008 C 
ATOM     15  C   UNL     1       1.620   0.427  -0.233  0.00  0.00    +0.043 C 
ATOM     16  C   UNL     1       1.999  -2.441   0.859  0.00  0.00    +0.051 C 
ATOM     17  C   UNL     1       6.507   1.008  -0.249  0.00  0.00    +0.101 C 
ATOM     18  C   UNL     1       2.964  -2.114  -1.455  0.00  0.00    +0.012 C 
ATOM     19  C   UNL     1       0.492  -0.495   0.161  0.00  0.00    +0.057 A 
ATOM     20  C   UNL     1       0.682  -1.778   0.638  0.00  0.00    +0.015 A 
ATOM     21  C   UNL     1       5.677   2.276  -0.167  0.00  0.00    +0.311 C 
ATOM     22  C   UNL     1       1.356   1.844   0.294  0.00  0.00    +0.014 C 
ATOM     23  C   UNL     1       7.772   1.083   0.585  0.00  0.00    +0.019 C 
ATOM     24  C   UNL     1      -1.605  -1.103   0.404  0.00  0.00    +0.178 A 
ATOM     32  H   UNL     1      -3.516  -1.877   0.646  0.00  0.00    +0.176 HD
ENDROOT
BRANCH   8   2
ATOM      2  S   UNL     1      -3.726  -0.195  -0.999  0.00  0.00    +0.074 S 
ATOM      5  O   UNL     1      -3.918  -1.154  -2.069  0.00  0.00    -0.150 OA
ATOM      6  O   UNL     1      -3.010   1.044  -1.241  0.00  0.00    -0.150 OA
BRANCH   2  25
ATOM     25  C   UNL     1      -5.325   0.250  -0.385  0.00  0.00    +0.109 A 
ATOM     26  C   UNL     1      -5.488   1.470   0.247  0.00  0.00    +0.029 A 
ATOM     27  C   UNL     1      -6.379  -0.631  -0.548  0.00  0.00    +0.029 A 
ATOM     28  C   UNL     1      -6.748   1.820   0.731  0.00  0.00    +0.005 A 
ATOM     29  C   UNL     1      -7.639  -0.280  -0.064  0.00  0.00    +0.005 A 
ATOM     30  C   UNL     1      -7.823   0.946   0.576  0.00  0.00    -0.050 A 
ATOM     31  C   UNL     1      -9.171   1.321   1.094  0.00  0.00    +0.044 C 
ENDBRANCH   2  25
ENDBRANCH   8   2
TORSDOF 2
