REMARK  Name = 23757077
REMARK  5 active torsions:
REMARK  status: ('A' for Active; 'I' for Inactive)
REMARK    1  A    between atoms: S_1  and  N_7
REMARK    2  A    between atoms: S_1  and  C_21
REMARK    3  A    between atoms: N_9  and  C_28
REMARK    4  A    between atoms: C_19  and  C_22
REMARK    5  A    between atoms: C_31  and  C_32
REMARK                            x       y       z     vdW  Elec       q    Type
REMARK                         _______ _______ _______ _____ _____    ______ ____
ROOT
ATOM      5  O   UNL     1      -4.282   0.697  -1.784  0.00  0.00    -0.267 OA
ATOM      7  N   UNL     1       0.431  -0.139  -0.402  0.00  0.00    -0.176 NA
ATOM      8  N   UNL     1      -2.458   1.140  -0.400  0.00  0.00    -0.311 N 
ATOM     10  C   UNL     1      -0.252   2.094  -1.286  0.00  0.00    +0.025 C 
ATOM     11  C   UNL     1      -0.494   1.606   1.109  0.00  0.00    +0.052 C 
ATOM     12  C   UNL     1      -0.114   2.693   0.107  0.00  0.00    +0.017 C 
ATOM     13  C   UNL     1       0.687   0.888  -1.452  0.00  0.00    +0.114 C 
ATOM     14  C   UNL     1       0.483   0.423   0.981  0.00  0.00    +0.119 C 
ATOM     15  C   UNL     1      -1.722   1.728  -1.527  0.00  0.00    +0.130 C 
ATOM     16  C   UNL     1      -1.921   1.137   0.891  0.00  0.00    +0.026 A 
ATOM     17  C   UNL     1      -2.656   0.701   1.926  0.00  0.00    +0.022 A 
ATOM     18  C   UNL     1      -3.763   0.681  -0.667  0.00  0.00    +0.260 A 
ATOM     19  C   UNL     1      -4.545   0.166   0.510  0.00  0.00    +0.053 A 
ATOM     20  C   UNL     1      -3.989   0.205   1.729  0.00  0.00    +0.016 A 
ENDROOT
BRANCH  19  22
ATOM      2  S   UNL     1      -6.109  -1.706  -0.685  0.00  0.00    -0.096 S 
ATOM     22  C   UNL     1      -5.866  -0.352   0.336  0.00  0.00    +0.024 A 
ATOM     27  C   UNL     1      -7.044   0.092   0.895  0.00  0.00    +0.016 A 
ATOM     29  C   UNL     1      -8.161  -0.688   0.479  0.00  0.00    +0.008 A 
ATOM     30  C   UNL     1      -7.794  -1.699  -0.381  0.00  0.00    +0.046 A 
ENDBRANCH  19  22
BRANCH   7   1
ATOM      1  S   UNL     1       1.226  -1.638  -0.622  0.00  0.00    +0.061 S 
ATOM      3  O   UNL     1       1.233  -1.968  -2.031  0.00  0.00    -0.153 OA
ATOM      4  O   UNL     1       0.735  -2.580   0.361  0.00  0.00    -0.153 OA
BRANCH   1  21
ATOM     21  C   UNL     1       2.871  -1.186  -0.166  0.00  0.00    +0.106 A 
ATOM     23  C   UNL     1       3.757  -0.713  -1.134  0.00  0.00    +0.030 A 
ATOM     24  C   UNL     1       3.283  -1.302   1.161  0.00  0.00    +0.030 A 
ATOM     25  C   UNL     1       5.057  -0.356  -0.774  0.00  0.00    +0.025 A 
ATOM     26  C   UNL     1       4.583  -0.945   1.521  0.00  0.00    +0.025 A 
ATOM     28  C   UNL     1       5.470  -0.472   0.554  0.00  0.00    +0.033 A 
BRANCH  28   9
ATOM      6  O   UNL     1       7.739   0.589  -1.117  0.00  0.00    -0.276 OA
ATOM      9  N   UNL     1       6.770  -0.115   0.913  0.00  0.00    -0.286 N 
ATOM     31  C   UNL     1       7.792   0.375   0.089  0.00  0.00    +0.214 C 
ATOM     32  C   UNL     1       9.056   0.642   0.866  0.00  0.00    +0.109 C 
ATOM     33  H   UNL     1       6.994  -0.228   1.900  0.00  0.00    +0.155 HD
ENDBRANCH  28   9
ENDBRANCH   1  21
ENDBRANCH   7   1
TORSDOF 4
