REMARK  Name = 11885132
REMARK  4 active torsions:
REMARK  status: ('A' for Active; 'I' for Inactive)
REMARK    1  A    between atoms: O_4  and  C_28
REMARK    2  A    between atoms: O_4  and  C_32
REMARK    3  A    between atoms: N_7  and  C_21
REMARK    4  A    between atoms: C_18  and  C_20
REMARK                            x       y       z     vdW  Elec       q    Type
REMARK                         _______ _______ _______ _____ _____    ______ ____
ROOT
ATOM      2  O   UNL     1       1.192  -0.941  -1.971  0.00  0.00    -0.267 OA
ATOM      3  O   UNL     1      -2.831   0.114   2.061  0.00  0.00    -0.252 OA
ATOM      5  N   UNL     1      -3.191  -1.472   0.415  0.00  0.00    -0.284 N 
ATOM      6  N   UNL     1      -0.283  -2.205  -0.682  0.00  0.00    -0.311 N 
ATOM      7  N   UNL     1      -3.456   0.824  -0.057  0.00  0.00    -0.269 N 
ATOM      8  C   UNL     1      -2.586  -2.927  -1.533  0.00  0.00    +0.027 C 
ATOM      9  C   UNL     1      -1.870  -3.558   0.730  0.00  0.00    +0.054 C 
ATOM     10  C   UNL     1      -2.419  -4.106  -0.585  0.00  0.00    +0.018 C 
ATOM     11  C   UNL     1      -3.556  -1.879  -0.951  0.00  0.00    +0.114 C 
ATOM     12  C   UNL     1      -1.203  -2.328  -1.820  0.00  0.00    +0.130 C 
ATOM     13  C   UNL     1      -2.891  -2.578   1.333  0.00  0.00    +0.119 C 
ATOM     14  C   UNL     1      -0.541  -2.856   0.526  0.00  0.00    +0.027 A 
ATOM     15  C   UNL     1       0.370  -2.832   1.513  0.00  0.00    +0.022 A 
ATOM     16  C   UNL     1       0.913  -1.496  -0.907  0.00  0.00    +0.259 A 
ATOM     17  C   UNL     1      -3.130  -0.144   0.892  0.00  0.00    +0.306 C 
ATOM     18  C   UNL     1       1.896  -1.451   0.231  0.00  0.00    +0.047 A 
ATOM     19  C   UNL     1       1.602  -2.112   1.361  0.00  0.00    +0.015 A 
ATOM     33  H   UNL     1      -4.089   0.568  -0.807  0.00  0.00    +0.156 HD
ENDROOT
BRANCH   7  21
ATOM      1 CL   UNL     1      -1.704   6.480  -0.147  0.00  0.00    -0.084 Cl
ATOM     21  C   UNL     1      -3.037   2.177  -0.079  0.00  0.00    +0.035 A 
ATOM     26  C   UNL     1      -3.532   3.039  -1.053  0.00  0.00    +0.025 A 
ATOM     27  C   UNL     1      -2.132   2.637   0.875  0.00  0.00    +0.025 A 
ATOM     29  C   UNL     1      -3.119   4.372  -1.074  0.00  0.00    +0.022 A 
ATOM     30  C   UNL     1      -1.720   3.969   0.853  0.00  0.00    +0.022 A 
ATOM     31  C   UNL     1      -2.213   4.836  -0.121  0.00  0.00    +0.041 A 
ENDBRANCH   7  21
BRANCH  18  20
ATOM     20  C   UNL     1       3.154  -0.691   0.124  0.00  0.00    -0.012 A 
ATOM     22  C   UNL     1       4.306  -1.313  -0.357  0.00  0.00    +0.012 A 
ATOM     23  C   UNL     1       3.194   0.651   0.504  0.00  0.00    +0.012 A 
ATOM     24  C   UNL     1       5.497  -0.594  -0.458  0.00  0.00    +0.046 A 
ATOM     25  C   UNL     1       4.385   1.370   0.403  0.00  0.00    +0.046 A 
ATOM     28  C   UNL     1       5.537   0.747  -0.078  0.00  0.00    +0.120 A 
BRANCH  28   4
ATOM      4  O   UNL     1       6.699   1.449  -0.176  0.00  0.00    -0.495 OA
ATOM     32  C   UNL     1       6.668   2.816   0.229  0.00  0.00    +0.277 C 
ENDBRANCH  28   4
ENDBRANCH  18  20
TORSDOF 3
