REMARK  Name = 75536723
REMARK  8 active torsions:
REMARK  status: ('A' for Active; 'I' for Inactive)
REMARK    1  A    between atoms: O_2  and  C_9
REMARK    2  A    between atoms: N_5  and  C_8
REMARK    3  A    between atoms: N_5  and  C_11
REMARK    4  A    between atoms: N_6  and  C_15
REMARK    5  A    between atoms: N_7  and  C_19
REMARK    6  A    between atoms: C_10  and  C_15
REMARK    7  A    between atoms: C_19  and  C_20
REMARK    8  A    between atoms: C_19  and  C_21
REMARK                            x       y       z     vdW  Elec       q    Type
REMARK                         _______ _______ _______ _____ _____    ______ ____
ROOT
ATOM      1  O   UNL     1       0.358   0.434  -1.190  0.00  0.00    -0.371 OA
ATOM      8  C   UNL     1      -1.636  -0.300  -0.128  0.00  0.00    +0.111 C 
ATOM      9  C   UNL     1      -0.563  -1.358   0.049  0.00  0.00    +0.164 C 
ATOM     10  C   UNL     1       0.699  -0.539  -0.188  0.00  0.00    +0.165 C 
ATOM     12  C   UNL     1      -1.075   0.506  -1.288  0.00  0.00    +0.181 C 
ENDROOT
BRANCH   9   2
ATOM      2  O   UNL     1      -0.578  -1.941   1.338  0.00  0.00    -0.388 OA
ATOM     23  H   UNL     1      -0.490  -1.231   1.996  0.00  0.00    +0.210 HD
ENDBRANCH   9   2
BRANCH   8   5
ATOM      5  N   UNL     1      -2.955  -0.847  -0.404  0.00  0.00    -0.306 NA
ATOM     22  H   UNL     1      -3.141  -1.639   0.210  0.00  0.00    +0.123 HD
BRANCH   5  11
ATOM      3  O   UNL     1      -6.627   0.865   0.695  0.00  0.00    -0.380 OA
ATOM     11  C   UNL     1      -3.991   0.167  -0.230  0.00  0.00    +0.058 C 
ATOM     13  C   UNL     1      -5.260  -0.233  -0.988  0.00  0.00    +0.047 C 
ATOM     14  C   UNL     1      -4.312   0.379   1.253  0.00  0.00    +0.047 C 
ATOM     16  C   UNL     1      -6.382   0.761  -0.708  0.00  0.00    +0.161 C 
ATOM     17  C   UNL     1      -5.486   1.340   1.409  0.00  0.00    +0.161 C 
ENDBRANCH   5  11
ENDBRANCH   8   5
BRANCH  10  15
ATOM     15  C   UNL     1       1.876  -1.372  -0.662  0.00  0.00    +0.140 C 
BRANCH  15   6
ATOM      4  O   UNL     1       3.924  -0.727   1.265  0.00  0.00    -0.253 OA
ATOM      6  N   UNL     1       3.038  -0.559  -0.875  0.00  0.00    -0.297 N 
ATOM      7  N   UNL     1       5.012   0.521  -0.361  0.00  0.00    -0.297 N 
ATOM     18  C   UNL     1       3.988  -0.293   0.116  0.00  0.00    +0.300 C 
ATOM     24  H   UNL     1       3.171  -0.143  -1.792  0.00  0.00    +0.150 HD
ATOM     25  H   UNL     1       5.015   0.765  -1.347  0.00  0.00    +0.150 HD
BRANCH   7  19
ATOM     19  C   UNL     1       6.120   0.946   0.461  0.00  0.00    +0.068 C 
ATOM     20  C   UNL     1       7.250  -0.075   0.406  0.00  0.00    +0.027 C 
ATOM     21  C   UNL     1       6.601   2.325   0.030  0.00  0.00    +0.027 C 
ENDBRANCH   7  19
ENDBRANCH  15   6
ENDBRANCH  10  15
TORSDOF 6
