REMARK  Name = 38030854
REMARK  13 active torsions:
REMARK  status: ('A' for Active; 'I' for Inactive)
REMARK    1  A    between atoms: O_2  and  C_32
REMARK    2  A    between atoms: O_2  and  C_33
REMARK    3  A    between atoms: N_3  and  C_14
REMARK    4  A    between atoms: N_3  and  C_20
REMARK    5  A    between atoms: C_7  and  C_11
REMARK    6  A    between atoms: C_8  and  C_14
REMARK    7  A    between atoms: C_10  and  C_15
REMARK    8  A    between atoms: C_11  and  C_16
REMARK    9  A    between atoms: C_11  and  C_17
REMARK   10  A    between atoms: C_12  and  C_18
REMARK   11  A    between atoms: C_15  and  C_19
REMARK   12  A    between atoms: C_20  and  C_21
REMARK   13  A    between atoms: C_22  and  C_25
REMARK                            x       y       z     vdW  Elec       q    Type
REMARK                         _______ _______ _______ _____ _____    ______ ____
ROOT
ATOM      7  C   UNL     1       1.164   1.630  -1.450  0.00  0.00    +0.000 C 
ATOM      8  C   UNL     1       2.664   1.989  -1.590  0.00  0.00    +0.029 C 
ATOM      9  C   UNL     1       0.422   2.723  -0.666  0.00  0.00    +0.012 C 
ATOM     10  C   UNL     1       1.008   2.929   0.744  0.00  0.00    +0.024 C 
ATOM     12  C   UNL     1       2.520   3.024   0.716  0.00  0.00    -0.073 C 
ATOM     13  C   UNL     1       3.242   2.611  -0.341  0.00  0.00    -0.023 C 
ATOM     18  C   UNL     1       3.182   3.647   1.914  0.00  0.00    +0.039 C 
ENDROOT
BRANCH   7  11
ATOM     11  C   UNL     1       0.497   1.427  -2.814  0.00  0.00    -0.013 C 
ATOM     16  C   UNL     1      -0.728   0.528  -2.680  0.00  0.00    +0.007 C 
ATOM     17  C   UNL     1       0.117   2.772  -3.425  0.00  0.00    +0.007 C 
ENDBRANCH   7  11
BRANCH   8  14
ATOM     14  C   UNL     1       3.493   0.760  -1.979  0.00  0.00    +0.089 C 
BRANCH  14   3
ATOM      3  N   UNL     1       3.460  -0.237  -0.923  0.00  0.00    -0.311 NA
ATOM     34  H   UNL     1       3.832   0.156  -0.059  0.00  0.00    +0.122 HD
BRANCH   3  20
ATOM     20  C   UNL     1       4.237  -1.415  -1.288  0.00  0.00    +0.116 C 
BRANCH  20  21
ATOM      6  N   UNL     1       4.132  -4.419   1.788  0.00  0.00    -0.263 NA
ATOM     21  C   UNL     1       4.200  -2.467  -0.211  0.00  0.00    -0.031 A 
ATOM     23  C   UNL     1       4.965  -2.314   0.940  0.00  0.00    +0.024 A 
ATOM     24  C   UNL     1       3.401  -3.595  -0.364  0.00  0.00    +0.024 A 
ATOM     26  C   UNL     1       4.896  -3.310   1.901  0.00  0.00    +0.111 A 
ATOM     27  C   UNL     1       3.402  -4.533   0.656  0.00  0.00    +0.111 A 
ENDBRANCH  20  21
ENDBRANCH   3  20
ENDBRANCH  14   3
ENDBRANCH   8  14
BRANCH  10  15
ATOM     15  C   UNL     1       0.545   1.825   1.701  0.00  0.00    +0.105 C 
BRANCH  15  19
ATOM      1  O   UNL     1      -1.543   0.723   1.086  0.00  0.00    -0.420 OA
ATOM      4  N   UNL     1      -1.807   2.526   2.383  0.00  0.00    -0.112 NA
ATOM      5  N   UNL     1      -3.059   2.006   2.114  0.00  0.00    -0.107 NA
ATOM     19  C   UNL     1      -0.953   1.745   1.763  0.00  0.00    +0.218 A 
ATOM     22  C   UNL     1      -2.857   0.956   1.354  0.00  0.00    +0.248 A 
BRANCH  22  25
ATOM     25  C   UNL     1      -3.789   0.033   0.774  0.00  0.00    +0.039 A 
ATOM     28  C   UNL     1      -5.157   0.191   0.995  0.00  0.00    +0.017 A 
ATOM     29  C   UNL     1      -3.327  -1.024  -0.010  0.00  0.00    +0.017 A 
ATOM     30  C   UNL     1      -6.064  -0.707   0.432  0.00  0.00    +0.046 A 
ATOM     31  C   UNL     1      -4.234  -1.923  -0.573  0.00  0.00    +0.046 A 
ATOM     32  C   UNL     1      -5.602  -1.764  -0.352  0.00  0.00    +0.120 A 
BRANCH  32   2
ATOM      2  O   UNL     1      -6.486  -2.640  -0.903  0.00  0.00    -0.495 OA
ATOM     33  C   UNL     1      -5.945  -3.697  -1.694  0.00  0.00    +0.277 C 
ENDBRANCH  32   2
ENDBRANCH  22  25
ENDBRANCH  15  19
ENDBRANCH  10  15
TORSDOF 9
