REMARK  Name = 75368477
REMARK  3 active torsions:
REMARK  status: ('A' for Active; 'I' for Inactive)
REMARK    1  A    between atoms: S_1  and  N_6
REMARK    2  A    between atoms: S_1  and  C_15
REMARK    3  A    between atoms: N_7  and  C_14
REMARK                            x       y       z     vdW  Elec       q    Type
REMARK                         _______ _______ _______ _____ _____    ______ ____
ROOT
ATOM      2  O   UNL     1      -3.203  -1.653   0.334  0.00  0.00    -0.252 OA
ATOM      5  N   UNL     1      -1.186  -0.632  -0.305  0.00  0.00    -0.278 N 
ATOM      6  N   UNL     1       1.560  -0.107  -0.332  0.00  0.00    -0.178 NA
ATOM      7  N   UNL     1      -2.972   0.679   0.071  0.00  0.00    -0.287 N 
ATOM      8  C   UNL     1      -0.740   0.701  -0.663  0.00  0.00    +0.111 C 
ATOM      9  C   UNL     1       0.605   1.006  -0.012  0.00  0.00    +0.133 C 
ATOM     10  C   UNL     1      -1.886   1.602  -0.206  0.00  0.00    +0.132 C 
ATOM     11  C   UNL     1      -0.282  -1.755  -0.458  0.00  0.00    +0.127 C 
ATOM     12  C   UNL     1       1.066  -1.431   0.177  0.00  0.00    +0.128 C 
ATOM     13  C   UNL     1      -2.538  -0.662   0.064  0.00  0.00    +0.305 C 
ATOM     14  C   UNL     1      -4.293   1.138   0.438  0.00  0.00    +0.133 C 
ENDROOT
BRANCH   6   1
ATOM      1  S   UNL     1       3.208   0.231  -0.005  0.00  0.00    +0.029 S 
ATOM      3  O   UNL     1       3.488   1.594  -0.397  0.00  0.00    -0.158 OA
ATOM      4  O   UNL     1       4.010  -0.877  -0.474  0.00  0.00    -0.158 OA
ATOM     15  C   UNL     1       3.163   0.166   1.767  0.00  0.00    +0.215 C 
ENDBRANCH   6   1
TORSDOF 1
