REMARK  Name = 45783475
REMARK  8 active torsions:
REMARK  status: ('A' for Active; 'I' for Inactive)
REMARK    1  A    between atoms: O_2  and  C_26
REMARK    2  A    between atoms: O_2  and  C_27
REMARK    3  A    between atoms: N_3  and  C_8
REMARK    4  A    between atoms: N_7  and  C_24
REMARK    5  A    between atoms: N_7  and  C_25
REMARK    6  A    between atoms: C_9  and  C_18
REMARK    7  A    between atoms: C_19  and  C_20
REMARK    8  A    between atoms: C_25  and  C_26
REMARK                            x       y       z     vdW  Elec       q    Type
REMARK                         _______ _______ _______ _____ _____    ______ ____
ROOT
ATOM      1  O   UNL     1      -1.910  -2.101   1.583  0.00  0.00    -0.336 OA
ATOM      4  N   UNL     1      -1.104  -0.937  -0.153  0.00  0.00    -0.190 NA
ATOM      5  N   UNL     1      -0.522  -2.042   1.764  0.00  0.00    -0.056 NA
ATOM     18  C   UNL     1      -2.168  -1.427   0.432  0.00  0.00    +0.245 A 
ATOM     19  C   UNL     1      -0.119  -1.340   0.701  0.00  0.00    +0.204 A 
ENDROOT
BRANCH  19  20
ATOM      6  N   UNL     1       3.566  -1.178   1.171  0.00  0.00    -0.240 NA
ATOM     20  C   UNL     1       1.260  -1.025   0.462  0.00  0.00    +0.041 A 
ATOM     21  C   UNL     1       1.645  -0.294  -0.656  0.00  0.00    +0.016 A 
ATOM     22  C   UNL     1       2.250  -1.440   1.337  0.00  0.00    +0.124 A 
ATOM     23  C   UNL     1       2.989  -0.004  -0.862  0.00  0.00    +0.044 A 
ATOM     24  C   UNL     1       3.902  -0.464   0.073  0.00  0.00    +0.119 A 
BRANCH  24   7
ATOM      7  N   UNL     1       5.268  -0.162  -0.151  0.00  0.00    -0.327 N 
ATOM     28  H   UNL     1       5.925  -0.501   0.542  0.00  0.00    +0.148 HD
BRANCH   7  25
ATOM     25  C   UNL     1       5.716   0.584  -1.282  0.00  0.00    +0.131 C 
BRANCH  25  26
ATOM     26  C   UNL     1       7.230   0.710  -1.254  0.00  0.00    +0.178 C 
BRANCH  26   2
ATOM      2  O   UNL     1       7.626   1.410  -0.081  0.00  0.00    -0.381 OA
ATOM     27  C   UNL     1       9.038   1.558  -0.014  0.00  0.00    +0.194 C 
ENDBRANCH  26   2
ENDBRANCH  25  26
ENDBRANCH   7  25
ENDBRANCH  24   7
ENDBRANCH  19  20
BRANCH  18   9
ATOM      3  N   UNL     1      -3.908  -0.145  -0.802  0.00  0.00    -0.288 NA
ATOM      9  C   UNL     1      -3.620  -1.345   0.009  0.00  0.00    +0.146 C 
ATOM     12  C   UNL     1      -5.015  -0.502  -1.689  0.00  0.00    +0.085 C 
ATOM     13  C   UNL     1      -4.049  -2.529  -0.877  0.00  0.00    +0.030 C 
ATOM     14  C   UNL     1      -4.621  -1.895  -2.138  0.00  0.00    +0.017 C 
BRANCH   3   8
ATOM      8  C   UNL     1      -4.209   1.036   0.004  0.00  0.00    +0.057 C 
ATOM     10  C   UNL     1      -3.019   1.364   0.913  0.00  0.00    +0.019 C 
ATOM     11  C   UNL     1      -4.548   2.218  -0.910  0.00  0.00    +0.019 C 
ATOM     15  C   UNL     1      -3.266   2.640   1.716  0.00  0.00    +0.002 C 
ATOM     16  C   UNL     1      -4.794   3.493  -0.104  0.00  0.00    +0.002 C 
ATOM     17  C   UNL     1      -3.616   3.817   0.810  0.00  0.00    +0.000 C 
ENDBRANCH   3   8
ENDBRANCH  18   9
TORSDOF 7
