REMARK  Name = 7672478
REMARK  5 active torsions:
REMARK  status: ('A' for Active; 'I' for Inactive)
REMARK    1  A    between atoms: S_1  and  N_7
REMARK    2  A    between atoms: S_1  and  C_21
REMARK    3  A    between atoms: N_9  and  C_28
REMARK    4  A    between atoms: C_19  and  C_22
REMARK    5  A    between atoms: C_35  and  C_36
REMARK                            x       y       z     vdW  Elec       q    Type
REMARK                         _______ _______ _______ _____ _____    ______ ____
ROOT
ATOM      5  O   UNL     1      -3.242   1.311  -1.596  0.00  0.00    -0.267 OA
ATOM      7  N   UNL     1       1.518   0.142  -0.704  0.00  0.00    -0.176 NA
ATOM      8  N   UNL     1      -1.304   1.503  -0.309  0.00  0.00    -0.311 N 
ATOM     10  C   UNL     1       0.870   2.495  -1.230  0.00  0.00    +0.025 C 
ATOM     11  C   UNL     1       0.781   1.697   1.091  0.00  0.00    +0.052 C 
ATOM     12  C   UNL     1       1.134   2.896   0.215  0.00  0.00    +0.017 C 
ATOM     13  C   UNL     1       1.742   1.292  -1.625  0.00  0.00    +0.114 C 
ATOM     14  C   UNL     1       1.695   0.511   0.733  0.00  0.00    +0.119 C 
ATOM     15  C   UNL     1      -0.628   2.214  -1.403  0.00  0.00    +0.130 C 
ATOM     16  C   UNL     1      -0.677   1.309   0.924  0.00  0.00    +0.026 A 
ATOM     17  C   UNL     1      -1.353   0.762   1.946  0.00  0.00    +0.022 A 
ATOM     18  C   UNL     1      -2.644   1.127  -0.534  0.00  0.00    +0.260 A 
ATOM     19  C   UNL     1      -3.361   0.485   0.622  0.00  0.00    +0.053 A 
ATOM     20  C   UNL     1      -2.717   0.341   1.789  0.00  0.00    +0.016 A 
ENDROOT
BRANCH  19  22
ATOM      2  S   UNL     1      -5.026  -1.560  -0.030  0.00  0.00    -0.088 S 
ATOM     22  C   UNL     1      -4.711   0.038   0.484  0.00  0.00    +0.026 A 
ATOM     25  C   UNL     1      -5.880   0.735   0.715  0.00  0.00    +0.024 A 
ATOM     29  C   UNL     1      -7.060  -0.044   0.469  0.00  0.00    -0.010 A 
ATOM     30  C   UNL     1      -6.734  -1.338   0.050  0.00  0.00    +0.020 A 
ATOM     31  C   UNL     1      -8.429   0.297   0.586  0.00  0.00    +0.009 A 
ATOM     32  C   UNL     1      -7.730  -2.287  -0.252  0.00  0.00    +0.015 A 
ATOM     33  C   UNL     1      -9.420  -0.643   0.288  0.00  0.00    +0.001 A 
ATOM     34  C   UNL     1      -9.072  -1.920  -0.127  0.00  0.00    +0.001 A 
ENDBRANCH  19  22
BRANCH   7   1
ATOM      1  S   UNL     1       2.231  -1.339  -1.180  0.00  0.00    +0.061 S 
ATOM      3  O   UNL     1       2.122  -1.476  -2.618  0.00  0.00    -0.153 OA
ATOM      4  O   UNL     1       1.772  -2.389  -0.295  0.00  0.00    -0.153 OA
BRANCH   1  21
ATOM     21  C   UNL     1       3.922  -1.007  -0.798  0.00  0.00    +0.106 A 
ATOM     23  C   UNL     1       4.405  -1.317   0.463  0.00  0.00    +0.030 A 
ATOM     24  C   UNL     1       4.737  -0.441  -1.764  0.00  0.00    +0.030 A 
ATOM     26  C   UNL     1       5.741  -1.055   0.765  0.00  0.00    +0.025 A 
ATOM     27  C   UNL     1       6.073  -0.179  -1.462  0.00  0.00    +0.025 A 
ATOM     28  C   UNL     1       6.575  -0.486  -0.197  0.00  0.00    +0.033 A 
BRANCH  28   9
ATOM      6  O   UNL     1       8.133  -0.953   2.337  0.00  0.00    -0.276 OA
ATOM      9  N   UNL     1       7.912  -0.224   0.106  0.00  0.00    -0.286 N 
ATOM     35  C   UNL     1       8.589  -0.461   1.309  0.00  0.00    +0.214 C 
ATOM     36  C   UNL     1      10.034  -0.036   1.232  0.00  0.00    +0.109 C 
ATOM     37  H   UNL     1       8.455   0.192  -0.648  0.00  0.00    +0.155 HD
ENDBRANCH  28   9
ENDBRANCH   1  21
ENDBRANCH   7   1
TORSDOF 4
