REMARK  Name = 75536519
REMARK  11 active torsions:
REMARK  status: ('A' for Active; 'I' for Inactive)
REMARK    1  A    between atoms: O_2  and  C_7
REMARK    2  A    between atoms: N_4  and  C_6
REMARK    3  A    between atoms: N_4  and  C_12
REMARK    4  A    between atoms: N_5  and  C_10
REMARK    5  A    between atoms: C_8  and  C_10
REMARK    6  A    between atoms: C_11  and  C_13
REMARK    7  A    between atoms: C_11  and  C_15
REMARK    8  A    between atoms: C_11  and  C_16
REMARK    9  A    between atoms: C_11  and  C_17
REMARK   10  A    between atoms: C_12  and  C_18
REMARK   11  A    between atoms: C_13  and  C_14
REMARK                            x       y       z     vdW  Elec       q    Type
REMARK                         _______ _______ _______ _____ _____    ______ ____
ROOT
ATOM      1  O   UNL     1       1.148   0.192   0.016  0.00  0.00    -0.371 OA
ATOM      6  C   UNL     1      -1.054  -0.557   0.497  0.00  0.00    +0.111 C 
ATOM      7  C   UNL     1      -0.265  -1.700  -0.114  0.00  0.00    +0.164 C 
ATOM      8  C   UNL     1       1.163  -1.240   0.142  0.00  0.00    +0.165 C 
ATOM      9  C   UNL     1      -0.217   0.642   0.082  0.00  0.00    +0.181 C 
ENDROOT
BRANCH   7   2
ATOM      2  O   UNL     1      -0.537  -2.943   0.505  0.00  0.00    -0.388 OA
ATOM     26  H   UNL     1      -0.358  -2.857   1.456  0.00  0.00    +0.210 HD
ENDBRANCH   7   2
BRANCH   6   4
ATOM      4  N   UNL     1      -2.427  -0.478   0.025  0.00  0.00    -0.305 NA
ATOM     24  H   UNL     1      -2.838  -1.412   0.039  0.00  0.00    +0.123 HD
BRANCH   4  12
ATOM     12  C   UNL     1      -3.224   0.401   0.873  0.00  0.00    +0.116 C 
BRANCH  12  18
ATOM     18  C   UNL     1      -4.646   0.508   0.390  0.00  0.00    -0.034 A 
ATOM     19  C   UNL     1      -4.999   1.500  -0.525  0.00  0.00    +0.005 A 
ATOM     20  C   UNL     1      -5.610  -0.385   0.857  0.00  0.00    +0.005 A 
ATOM     21  C   UNL     1      -6.317   1.599  -0.972  0.00  0.00    +0.000 A 
ATOM     22  C   UNL     1      -6.927  -0.286   0.409  0.00  0.00    +0.000 A 
ATOM     23  C   UNL     1      -7.281   0.706  -0.505  0.00  0.00    +0.000 A 
ENDBRANCH  12  18
ENDBRANCH   4  12
ENDBRANCH   6   4
BRANCH   8  10
ATOM     10  C   UNL     1       2.168  -1.830  -0.832  0.00  0.00    +0.138 C 
BRANCH  10   5
ATOM      3  O   UNL     1       3.469   0.520  -1.917  0.00  0.00    -0.276 OA
ATOM      5  N   UNL     1       3.508  -1.365  -0.557  0.00  0.00    -0.313 N 
ATOM     14  C   UNL     1       4.047  -0.223  -1.126  0.00  0.00    +0.214 C 
ATOM     25  H   UNL     1       4.067  -1.907   0.095  0.00  0.00    +0.149 HD
BRANCH  14  13
ATOM     13  C   UNL     1       5.475   0.045  -0.682  0.00  0.00    +0.102 C 
BRANCH  13  11
ATOM     11  C   UNL     1       5.606   0.970   0.552  0.00  0.00    -0.029 C 
ATOM     15  C   UNL     1       7.082   1.197   0.920  0.00  0.00    +0.011 C 
ATOM     16  C   UNL     1       4.978   2.332   0.196  0.00  0.00    +0.011 C 
ATOM     17  C   UNL     1       4.862   0.395   1.768  0.00  0.00    +0.011 C 
ENDBRANCH  13  11
ENDBRANCH  14  13
ENDBRANCH  10   5
ENDBRANCH   8  10
TORSDOF 8
