REMARK  Name = 11886269
REMARK  8 active torsions:
REMARK  status: ('A' for Active; 'I' for Inactive)
REMARK    1  A    between atoms: S_1  and  N_7
REMARK    2  A    between atoms: S_1  and  C_22
REMARK    3  A    between atoms: O_4  and  C_21
REMARK    4  A    between atoms: O_4  and  C_25
REMARK    5  A    between atoms: N_7  and  C_17
REMARK    6  A    between atoms: N_8  and  C_18
REMARK    7  A    between atoms: N_12  and  C_34
REMARK    8  A    between atoms: C_28  and  C_31
REMARK                            x       y       z     vdW  Elec       q    Type
REMARK                         _______ _______ _______ _____ _____    ______ ____
ROOT
ATOM      2  O   UNL     1       1.864   2.955   0.038  0.00  0.00    -0.370 OA
ATOM      3  O   UNL     1       2.784   0.689   1.978  0.00  0.00    -0.370 OA
ATOM     15  C   UNL     1       2.991   0.934   0.577  0.00  0.00    +0.170 C 
ATOM     16  C   UNL     1       1.709   1.523   0.023  0.00  0.00    +0.175 C 
ATOM     17  C   UNL     1       4.021   2.025   0.383  0.00  0.00    +0.133 C 
ATOM     18  C   UNL     1       0.638   1.113   1.016  0.00  0.00    +0.171 C 
ATOM     19  C   UNL     1       3.175   3.280   0.523  0.00  0.00    +0.183 C 
ATOM     20  C   UNL     1       1.419   0.971   2.319  0.00  0.00    +0.190 C 
ENDROOT
BRANCH  18   8
ATOM      8  N   UNL     1      -0.091  -0.085   0.593  0.00  0.00    -0.187 N 
ATOM      9  N   UNL     1       0.552  -1.232   0.354  0.00  0.00    -0.041 NA
ATOM     10  N   UNL     1      -1.637  -1.479   0.011  0.00  0.00    -0.071 NA
ATOM     11  N   UNL     1      -0.401  -2.085  -0.002  0.00  0.00    -0.020 NA
ATOM     21  C   UNL     1      -1.420  -0.239   0.384  0.00  0.00    +0.342 A 
BRANCH  21   4
ATOM      4  O   UNL     1      -2.325   0.710   0.533  0.00  0.00    -0.423 OA
BRANCH   4  25
ATOM     25  C   UNL     1      -3.677   0.496   0.302  0.00  0.00    +0.132 A 
ATOM     29  C   UNL     1      -4.477   0.071   1.346  0.00  0.00    +0.048 A 
ATOM     30  C   UNL     1      -4.184   0.714  -0.965  0.00  0.00    +0.048 A 
ATOM     32  C   UNL     1      -5.835  -0.143   1.115  0.00  0.00    +0.031 A 
ATOM     33  C   UNL     1      -5.543   0.500  -1.196  0.00  0.00    +0.031 A 
ATOM     34  C   UNL     1      -6.368   0.071  -0.156  0.00  0.00    +0.067 A 
BRANCH  34  12
ATOM     12  N   UNL     1      -7.715  -0.142  -0.386  0.00  0.00    -0.220 N 
ATOM     13  N   UNL     1      -8.273   0.051  -1.595  0.00  0.00    -0.154 NA
ATOM     14  N   UNL     1      -9.824  -0.647  -0.067  0.00  0.00    -0.222 NA
ATOM     35  C   UNL     1      -8.651  -0.558   0.516  0.00  0.00    +0.225 A 
ATOM     36  C   UNL     1      -9.545  -0.268  -1.348  0.00  0.00    +0.245 A 
ENDBRANCH  34  12
ENDBRANCH   4  25
ENDBRANCH  21   4
ENDBRANCH  18   8
BRANCH  17   7
ATOM      7  N   UNL     1       4.589   1.961  -0.962  0.00  0.00    -0.182 NA
ATOM     37  H   UNL     1       3.935   2.066  -1.747  0.00  0.00    +0.148 HD
BRANCH   7   1
ATOM      1  S   UNL     1       6.056   1.144  -1.223  0.00  0.00    +0.059 S 
ATOM      5  O   UNL     1       7.067   1.671  -0.326  0.00  0.00    -0.153 OA
ATOM      6  O   UNL     1       6.308   1.080  -2.650  0.00  0.00    -0.153 OA
BRANCH   1  22
ATOM     22  C   UNL     1       5.659  -0.495  -0.695  0.00  0.00    +0.105 A 
ATOM     23  C   UNL     1       5.860  -0.847   0.628  0.00  0.00    +0.029 A 
ATOM     24  C   UNL     1       5.154  -1.397  -1.616  0.00  0.00    +0.029 A 
ATOM     26  C   UNL     1       5.546  -2.141   1.044  0.00  0.00    +0.005 A 
ATOM     27  C   UNL     1       4.840  -2.691  -1.200  0.00  0.00    +0.005 A 
ATOM     28  C   UNL     1       5.036  -3.063   0.130  0.00  0.00    -0.050 A 
ATOM     31  C   UNL     1       4.701  -4.446   0.575  0.00  0.00    +0.044 C 
ENDBRANCH   1  22
ENDBRANCH   7   1
ENDBRANCH  17   7
TORSDOF 7
