REMARK  Name = 38026916
REMARK  10 active torsions:
REMARK  status: ('A' for Active; 'I' for Inactive)
REMARK    1  A    between atoms: N_5  and  C_17
REMARK    2  A    between atoms: C_9  and  C_13
REMARK    3  A    between atoms: C_10  and  C_17
REMARK    4  A    between atoms: C_12  and  C_16
REMARK    5  A    between atoms: C_13  and  C_18
REMARK    6  A    between atoms: C_13  and  C_19
REMARK    7  A    between atoms: C_14  and  C_20
REMARK    8  A    between atoms: C_16  and  C_21
REMARK    9  A    between atoms: C_26  and  C_28
REMARK   10  A    between atoms: C_27  and  C_29
REMARK                            x       y       z     vdW  Elec       q    Type
REMARK                         _______ _______ _______ _____ _____    ______ ____
ROOT
ATOM      9  C   UNL     1      -2.556  -1.679  -0.605  0.00  0.00    +0.000 C 
ATOM     10  C   UNL     1      -3.584  -1.470   0.535  0.00  0.00    +0.032 C 
ATOM     11  C   UNL     1      -1.546  -2.771  -0.224  0.00  0.00    +0.012 C 
ATOM     12  C   UNL     1      -0.779  -2.430   1.068  0.00  0.00    +0.023 C 
ATOM     14  C   UNL     1      -1.709  -1.954   2.166  0.00  0.00    -0.073 C 
ATOM     15  C   UNL     1      -2.963  -1.542   1.910  0.00  0.00    -0.022 C 
ATOM     20  C   UNL     1      -1.179  -2.007   3.572  0.00  0.00    +0.039 C 
ENDROOT
BRANCH   9  13
ATOM     13  C   UNL     1      -3.240  -2.043  -1.927  0.00  0.00    -0.013 C 
ATOM     18  C   UNL     1      -2.352  -1.664  -3.108  0.00  0.00    +0.007 C 
ATOM     19  C   UNL     1      -3.576  -3.530  -1.960  0.00  0.00    +0.007 C 
ENDBRANCH   9  13
BRANCH  12  16
ATOM     16  C   UNL     1       0.324  -1.401   0.799  0.00  0.00    +0.103 C 
BRANCH  16  21
ATOM      1  O   UNL     1       1.422  -3.267  -0.164  0.00  0.00    -0.276 OA
ATOM      3  O   UNL     1       6.201   2.048  -0.100  0.00  0.00    -0.276 OA
ATOM      4  N   UNL     1       2.563  -1.245  -0.231  0.00  0.00    -0.298 N 
ATOM      6  N   UNL     1       5.088   0.013   0.027  0.00  0.00    -0.299 N 
ATOM     21  C   UNL     1       1.480  -2.062   0.091  0.00  0.00    +0.216 C 
ATOM     22  C   UNL     1       3.727  -1.811  -0.917  0.00  0.00    +0.126 C 
ATOM     23  C   UNL     1       2.631   0.205  -0.008  0.00  0.00    +0.126 C 
ATOM     24  C   UNL     1       5.020  -1.437  -0.196  0.00  0.00    +0.126 C 
ATOM     25  C   UNL     1       3.924   0.579   0.713  0.00  0.00    +0.126 C 
ATOM     27  C   UNL     1       6.170   0.831  -0.298  0.00  0.00    +0.213 C 
ATOM     29  C   UNL     1       7.359   0.155  -0.932  0.00  0.00    +0.109 C 
ENDBRANCH  16  21
ENDBRANCH  12  16
BRANCH  10  17
ATOM     17  C   UNL     1      -4.322  -0.136   0.377  0.00  0.00    +0.112 C 
BRANCH  17   5
ATOM      2  O   UNL     1      -3.733   1.897  -1.563  0.00  0.00    -0.270 OA
ATOM      5  N   UNL     1      -3.423   0.964   0.539  0.00  0.00    -0.311 N 
ATOM     26  C   UNL     1      -3.195   1.910  -0.460  0.00  0.00    +0.247 C 
ATOM     33  H   UNL     1      -3.000   1.090   1.452  0.00  0.00    +0.149 HD
BRANCH  26  28
ATOM      7  N   UNL     1      -1.389   5.216  -0.472  0.00  0.00    -0.243 NA
ATOM      8  N   UNL     1      -0.272   3.734   1.065  0.00  0.00    -0.243 NA
ATOM     28  C   UNL     1      -2.211   2.978  -0.145  0.00  0.00    +0.073 A 
ATOM     30  C   UNL     1      -2.265   4.224  -0.734  0.00  0.00    +0.127 A 
ATOM     31  C   UNL     1      -1.183   2.787   0.756  0.00  0.00    +0.127 A 
ATOM     32  C   UNL     1      -0.432   4.907   0.424  0.00  0.00    +0.221 A 
ENDBRANCH  26  28
ENDBRANCH  17   5
ENDBRANCH  10  17
TORSDOF 6
