REMARK  Name = 75536533
REMARK  8 active torsions:
REMARK  status: ('A' for Active; 'I' for Inactive)
REMARK    1  A    between atoms: O_2  and  C_11
REMARK    2  A    between atoms: N_4  and  C_7
REMARK    3  A    between atoms: N_4  and  C_15
REMARK    4  A    between atoms: N_5  and  C_13
REMARK    5  A    between atoms: C_6  and  C_14
REMARK    6  A    between atoms: C_10  and  C_13
REMARK    7  A    between atoms: C_15  and  C_16
REMARK    8  A    between atoms: C_15  and  C_17
REMARK                            x       y       z     vdW  Elec       q    Type
REMARK                         _______ _______ _______ _____ _____    ______ ____
ROOT
ATOM      1  O   UNL     1      -0.111   1.039  -0.564  0.00  0.00    -0.371 OA
ATOM      7  C   UNL     1      -2.162   0.026   0.073  0.00  0.00    +0.111 C 
ATOM     10  C   UNL     1       0.136  -0.339  -0.236  0.00  0.00    +0.165 C 
ATOM     11  C   UNL     1      -1.200  -1.053  -0.389  0.00  0.00    +0.164 C 
ATOM     12  C   UNL     1      -1.530   1.270  -0.528  0.00  0.00    +0.181 C 
ENDROOT
BRANCH  11   2
ATOM      2  O   UNL     1      -1.267  -2.221   0.406  0.00  0.00    -0.388 OA
ATOM     20  H   UNL     1      -1.104  -1.971   1.332  0.00  0.00    +0.210 HD
ENDBRANCH  11   2
BRANCH   7   4
ATOM      4  N   UNL     1      -3.531  -0.184  -0.370  0.00  0.00    -0.307 NA
ATOM     18  H   UNL     1      -3.792  -1.163  -0.252  0.00  0.00    +0.123 HD
BRANCH   4  15
ATOM     15  C   UNL     1      -4.458   0.669   0.363  0.00  0.00    +0.048 C 
ATOM     16  C   UNL     1      -4.747   0.076   1.739  0.00  0.00    +0.023 C 
ATOM     17  C   UNL     1      -5.742   0.836  -0.443  0.00  0.00    +0.023 C 
ENDBRANCH   4  15
ENDBRANCH   7   4
BRANCH  10  13
ATOM     13  C   UNL     1       1.221  -0.895  -1.142  0.00  0.00    +0.138 C 
BRANCH  13   5
ATOM      3  O   UNL     1       3.364  -1.512   0.724  0.00  0.00    -0.276 OA
ATOM      5  N   UNL     1       2.458  -0.190  -0.967  0.00  0.00    -0.313 N 
ATOM     14  C   UNL     1       3.427  -0.561  -0.046  0.00  0.00    +0.216 C 
ATOM     19  H   UNL     1       2.625   0.621  -1.555  0.00  0.00    +0.149 HD
BRANCH  14   6
ATOM      6  C   UNL     1       4.636   0.314  -0.037  0.00  0.00    +0.075 C 
ATOM      8  C   UNL     1       4.453   1.782   0.164  0.00  0.00    +0.013 C 
ATOM      9  C   UNL     1       5.052   0.941   1.252  0.00  0.00    +0.013 C 
ENDBRANCH  14   6
ENDBRANCH  13   5
ENDBRANCH  10  13
TORSDOF 6
