REMARK  Name = 45783442
REMARK  9 active torsions:
REMARK  status: ('A' for Active; 'I' for Inactive)
REMARK    1  A    between atoms: O_3  and  C_22
REMARK    2  A    between atoms: O_3  and  C_25
REMARK    3  A    between atoms: O_4  and  C_26
REMARK    4  A    between atoms: O_4  and  C_27
REMARK    5  A    between atoms: N_5  and  C_13
REMARK    6  A    between atoms: C_9  and  C_14
REMARK    7  A    between atoms: C_13  and  C_15
REMARK    8  A    between atoms: C_17  and  C_20
REMARK    9  A    between atoms: C_25  and  C_26
REMARK                            x       y       z     vdW  Elec       q    Type
REMARK                         _______ _______ _______ _____ _____    ______ ____
ROOT
ATOM      1  O   UNL     1      -2.544  -2.148   0.699  0.00  0.00    -0.336 OA
ATOM      6  N   UNL     1      -1.151  -0.766  -0.382  0.00  0.00    -0.189 NA
ATOM      7  N   UNL     1      -1.254  -2.650   0.912  0.00  0.00    -0.054 NA
ATOM     14  C   UNL     1      -2.393  -1.039  -0.071  0.00  0.00    +0.245 A 
ATOM     17  C   UNL     1      -0.489  -1.781   0.244  0.00  0.00    +0.221 A 
ENDROOT
BRANCH  17  20
ATOM      8  N   UNL     1       1.469  -2.953   0.845  0.00  0.00    -0.252 NA
ATOM     20  C   UNL     1       0.939  -1.901   0.181  0.00  0.00    +0.115 A 
ATOM     21  C   UNL     1       1.688  -0.974  -0.527  0.00  0.00    +0.077 A 
ATOM     22  C   UNL     1       3.068  -1.137  -0.555  0.00  0.00    +0.124 A 
ATOM     23  C   UNL     1       2.814  -3.079   0.795  0.00  0.00    +0.115 A 
ATOM     24  C   UNL     1       3.650  -2.207   0.116  0.00  0.00    +0.065 A 
BRANCH  22   3
ATOM      3  O   UNL     1       3.847  -0.254  -1.237  0.00  0.00    -0.490 OA
BRANCH   3  25
ATOM     25  C   UNL     1       3.374   1.090  -1.333  0.00  0.00    +0.257 C 
BRANCH  25  26
ATOM     26  C   UNL     1       4.562   2.030  -1.392  0.00  0.00    +0.200 C 
BRANCH  26   4
ATOM      4  O   UNL     1       5.326   1.888  -0.200  0.00  0.00    -0.380 OA
ATOM     27  C   UNL     1       6.468   2.732  -0.209  0.00  0.00    +0.194 C 
ENDBRANCH  26   4
ENDBRANCH  25  26
ENDBRANCH   3  25
ENDBRANCH  22   3
ENDBRANCH  17  20
BRANCH  14   9
ATOM      5  N   UNL     1      -3.431   1.137  -0.689  0.00  0.00    -0.284 NA
ATOM      9  C   UNL     1      -3.661  -0.301  -0.446  0.00  0.00    +0.146 C 
ATOM     10  C   UNL     1      -4.288  -0.822  -1.753  0.00  0.00    +0.030 C 
ATOM     11  C   UNL     1      -4.427   0.404  -2.644  0.00  0.00    +0.017 C 
ATOM     12  C   UNL     1      -4.437   1.559  -1.663  0.00  0.00    +0.085 C 
BRANCH   5  13
ATOM     13  C   UNL     1      -3.475   1.939   0.527  0.00  0.00    +0.159 C 
BRANCH  13  15
ATOM      2  O   UNL     1      -1.063   2.245   0.650  0.00  0.00    -0.467 OA
ATOM     15  C   UNL     1      -2.188   1.852   1.304  0.00  0.00    +0.119 A 
ATOM     16  C   UNL     1      -1.886   1.446   2.583  0.00  0.00    +0.046 A 
ATOM     18  C   UNL     1      -0.487   1.599   2.724  0.00  0.00    +0.041 A 
ATOM     19  C   UNL     1      -0.032   2.088   1.521  0.00  0.00    +0.195 A 
ENDBRANCH  13  15
ENDBRANCH   5  13
ENDBRANCH  14   9
TORSDOF 8
