REMARK  Name = 7114631
REMARK  12 active torsions:
REMARK  status: ('A' for Active; 'I' for Inactive)
REMARK    1  A    between atoms: O_3  and  C_22
REMARK    2  A    between atoms: O_3  and  C_31
REMARK    3  A    between atoms: O_5  and  C_25
REMARK    4  A    between atoms: O_5  and  C_34
REMARK    5  A    between atoms: N_8  and  C_12
REMARK    6  A    between atoms: N_9  and  C_19
REMARK    7  A    between atoms: C_13  and  C_17
REMARK    8  A    between atoms: C_18  and  C_22
REMARK    9  A    between atoms: C_19  and  C_21
REMARK   10  A    between atoms: C_19  and  C_24
REMARK   11  A    between atoms: C_20  and  C_25
REMARK   12  A    between atoms: C_21  and  C_23
REMARK                            x       y       z     vdW  Elec       q    Type
REMARK                         _______ _______ _______ _____ _____    ______ ____
ROOT
ATOM      1  O   UNL     1      -1.735   0.069  -1.831  0.00  0.00    -0.274 OA
ATOM      9  N   UNL     1      -1.282   1.364   0.049  0.00  0.00    -0.302 N 
ATOM     17  C   UNL     1      -1.575   0.188  -0.620  0.00  0.00    +0.234 C 
ATOM     36  H   UNL     1      -1.232   1.356   1.063  0.00  0.00    +0.150 HD
ENDROOT
BRANCH  17  13
ATOM      2  O   UNL     1      -4.846  -2.631  -0.511  0.00  0.00    -0.273 OA
ATOM      7  N   UNL     1      -2.643  -1.919  -0.268  0.00  0.00    -0.288 N 
ATOM     12  C   UNL     1       0.202  -2.471  -0.627  0.00  0.00    +0.077 C 
ATOM     13  C   UNL     1      -1.660  -0.988   0.310  0.00  0.00    +0.164 C 
ATOM     14  C   UNL     1      -0.292  -1.629   0.553  0.00  0.00    +0.054 C 
ATOM     15  C   UNL     1      -0.873  -3.471  -1.050  0.00  0.00    +0.041 C 
ATOM     16  C   UNL     1      -2.178  -2.759  -1.378  0.00  0.00    +0.110 C 
ATOM     18  C   UNL     1      -4.001  -1.943   0.069  0.00  0.00    +0.242 C 
BRANCH  12   8
ATOM      4  O   UNL     1       2.906  -1.487  -0.963  0.00  0.00    -0.273 OA
ATOM      8  N   UNL     1       1.428  -3.154  -0.293  0.00  0.00    -0.310 N 
ATOM     20  C   UNL     1       2.684  -2.599  -0.491  0.00  0.00    +0.239 C 
ATOM     35  H   UNL     1       1.360  -4.061   0.161  0.00  0.00    +0.149 HD
BRANCH  20  25
ATOM     25  C   UNL     1       3.787  -3.537  -0.050  0.00  0.00    +0.255 C 
BRANCH  25   5
ATOM      5  O   UNL     1       5.053  -2.945  -0.248  0.00  0.00    -0.374 OA
ATOM     34  C   UNL     1       6.112  -3.806   0.159  0.00  0.00    +0.194 C 
ENDBRANCH  25   5
ENDBRANCH  20  25
ENDBRANCH  12   8
BRANCH  18  22
ATOM     22  C   UNL     1      -4.431  -1.073   1.224  0.00  0.00    +0.255 C 
BRANCH  22   3
ATOM      3  O   UNL     1      -5.823  -1.233   1.350  0.00  0.00    -0.374 OA
ATOM     31  C   UNL     1      -6.357  -0.454   2.419  0.00  0.00    +0.194 C 
ENDBRANCH  22   3
ENDBRANCH  18  22
ENDBRANCH  17  13
BRANCH   9  19
ATOM     19  C   UNL     1      -1.123   2.635  -0.621  0.00  0.00    +0.163 C 
BRANCH  19  24
ATOM      6  O   UNL     1      -3.388   3.129   0.109  0.00  0.00    -0.274 OA
ATOM     11  N   UNL     1      -2.656   4.014  -1.881  0.00  0.00    -0.328 N 
ATOM     24  C   UNL     1      -2.508   3.254  -0.740  0.00  0.00    +0.231 C 
ATOM     38  H   UNL     1      -3.529   4.494  -2.076  0.00  0.00    +0.145 HD
ATOM     39  H   UNL     1      -1.913   4.127  -2.562  0.00  0.00    +0.145 HD
ENDBRANCH  19  24
BRANCH  19  21
ATOM     21  C   UNL     1      -0.179   3.577   0.137  0.00  0.00    +0.069 C 
BRANCH  21  23
ATOM     10  N   UNL     1       3.317   3.252  -0.951  0.00  0.00    -0.360 N 
ATOM     23  C   UNL     1       1.273   3.262  -0.087  0.00  0.00    -0.020 A 
ATOM     26  C   UNL     1       2.077   2.376   0.683  0.00  0.00    +0.003 A 
ATOM     27  C   UNL     1       2.063   3.785  -1.085  0.00  0.00    +0.087 A 
ATOM     28  C   UNL     1       3.355   2.388   0.120  0.00  0.00    +0.047 A 
ATOM     29  C   UNL     1       1.840   1.563   1.809  0.00  0.00    +0.010 A 
ATOM     30  C   UNL     1       4.412   1.625   0.629  0.00  0.00    +0.026 A 
ATOM     32  C   UNL     1       2.887   0.794   2.329  0.00  0.00    +0.001 A 
ATOM     33  C   UNL     1       4.153   0.826   1.746  0.00  0.00    +0.002 A 
ATOM     37  H   UNL     1       4.103   3.461  -1.552  0.00  0.00    +0.165 HD
ENDBRANCH  21  23
ENDBRANCH  19  21
ENDBRANCH   9  19
TORSDOF 10
