REMARK  Name = 25388703
REMARK  3 active torsions:
REMARK  status: ('A' for Active; 'I' for Inactive)
REMARK    1  A    between atoms: C_19  and  C_22
REMARK    2  A    between atoms: C_20  and  C_23
REMARK    3  A    between atoms: C_28  and  C_31
REMARK                            x       y       z     vdW  Elec       q    Type
REMARK                         _______ _______ _______ _____ _____    ______ ____
ROOT
ATOM      4  O   UNL     1      -0.937  -2.037   1.375  0.00  0.00    -0.267 OA
ATOM      5  O   UNL     1       2.717   1.370   2.416  0.00  0.00    -0.270 OA
ATOM      6  N   UNL     1       3.586  -0.063   0.784  0.00  0.00    -0.296 N 
ATOM      7  N   UNL     1       1.086  -1.909   0.221  0.00  0.00    -0.311 N 
ATOM     10  C   UNL     1       3.333  -2.479   1.312  0.00  0.00    +0.027 C 
ATOM     11  C   UNL     1       3.263  -1.727  -1.031  0.00  0.00    +0.054 C 
ATOM     12  C   UNL     1       3.773  -2.830  -0.105  0.00  0.00    +0.018 C 
ATOM     13  C   UNL     1       3.922  -1.121   1.736  0.00  0.00    +0.113 C 
ATOM     14  C   UNL     1       1.800  -2.487   1.369  0.00  0.00    +0.130 C 
ATOM     15  C   UNL     1       3.890  -0.378  -0.622  0.00  0.00    +0.117 C 
ATOM     16  C   UNL     1       1.751  -1.621  -0.973  0.00  0.00    +0.027 A 
ATOM     17  C   UNL     1       1.060  -1.210  -2.049  0.00  0.00    +0.022 A 
ATOM     18  C   UNL     1      -0.309  -1.761   0.351  0.00  0.00    +0.259 A 
ATOM     19  C   UNL     1       2.973   1.105   1.242  0.00  0.00    +0.250 C 
ATOM     20  C   UNL     1      -1.049  -1.254  -0.857  0.00  0.00    +0.047 A 
ATOM     21  C   UNL     1      -0.360  -1.020  -1.984  0.00  0.00    +0.015 A 
ENDROOT
BRANCH  19  22
ATOM      8  N   UNL     1       0.916   3.001  -1.254  0.00  0.00    -0.243 NA
ATOM      9  N   UNL     1       3.073   4.059  -1.065  0.00  0.00    -0.243 NA
ATOM     22  C   UNL     1       2.569   2.107   0.250  0.00  0.00    +0.073 A 
ATOM     26  C   UNL     1       1.321   2.096  -0.338  0.00  0.00    +0.127 A 
ATOM     27  C   UNL     1       3.412   3.121  -0.156  0.00  0.00    +0.127 A 
ATOM     32  C   UNL     1       1.829   3.941  -1.566  0.00  0.00    +0.221 A 
ENDBRANCH  19  22
BRANCH  20  23
ATOM     23  C   UNL     1      -2.499  -0.998  -0.811  0.00  0.00    -0.012 A 
ATOM     24  C   UNL     1      -3.017  -0.080   0.102  0.00  0.00    +0.021 A 
ATOM     25  C   UNL     1      -3.354  -1.676  -1.680  0.00  0.00    +0.009 A 
ATOM     28  C   UNL     1      -4.390   0.162   0.146  0.00  0.00    +0.055 A 
ATOM     29  C   UNL     1      -4.727  -1.434  -1.636  0.00  0.00    +0.001 A 
ATOM     30  C   UNL     1      -5.245  -0.515  -0.724  0.00  0.00    +0.012 A 
BRANCH  28  31
ATOM      1  F   UNL     1      -4.685   0.824   2.425  0.00  0.00    -0.166 F 
ATOM      2  F   UNL     1      -6.300   1.261   1.037  0.00  0.00    -0.166 F 
ATOM      3  F   UNL     1      -4.455   2.409   0.963  0.00  0.00    -0.166 F 
ATOM     31  C   UNL     1      -4.943   1.143   1.123  0.00  0.00    +0.417 C 
ENDBRANCH  28  31
ENDBRANCH  20  23
TORSDOF 3
