REMARK  Name = 45783985
REMARK  11 active torsions:
REMARK  status: ('A' for Active; 'I' for Inactive)
REMARK    1  A    between atoms: N_5  and  C_15
REMARK    2  A    between atoms: N_9  and  C_35
REMARK    3  A    between atoms: C_10  and  C_14
REMARK    4  A    between atoms: C_11  and  C_15
REMARK    5  A    between atoms: C_13  and  C_18
REMARK    6  A    between atoms: C_14  and  C_19
REMARK    7  A    between atoms: C_14  and  C_20
REMARK    8  A    between atoms: C_17  and  C_23
REMARK    9  A    between atoms: C_18  and  C_26
REMARK   10  A    between atoms: C_27  and  C_29
REMARK   11  A    between atoms: C_28  and  C_30
REMARK                            x       y       z     vdW  Elec       q    Type
REMARK                         _______ _______ _______ _____ _____    ______ ____
ROOT
ATOM     10  C   UNL     1      -1.978  -0.400  -0.731  0.00  0.00    +0.000 C 
ATOM     11  C   UNL     1      -2.827  -1.645  -0.385  0.00  0.00    +0.029 C 
ATOM     12  C   UNL     1      -0.926  -0.147   0.358  0.00  0.00    +0.012 C 
ATOM     13  C   UNL     1       0.007  -1.354   0.600  0.00  0.00    +0.024 C 
ATOM     16  C   UNL     1      -1.991  -2.796   0.115  0.00  0.00    -0.023 C 
ATOM     17  C   UNL     1      -0.721  -2.689   0.546  0.00  0.00    -0.073 C 
ATOM     23  C   UNL     1       0.051  -3.917   0.942  0.00  0.00    +0.039 C 
ENDROOT
BRANCH  10  14
ATOM     14  C   UNL     1      -1.325  -0.535  -2.113  0.00  0.00    -0.013 C 
ATOM     19  C   UNL     1      -0.175   0.457  -2.257  0.00  0.00    +0.007 C 
ATOM     20  C   UNL     1      -2.360  -0.326  -3.213  0.00  0.00    +0.007 C 
ENDBRANCH  10  14
BRANCH  11  15
ATOM     15  C   UNL     1      -3.909  -1.322   0.651  0.00  0.00    +0.092 C 
BRANCH  15   5
ATOM      2  O   UNL     1      -9.041   2.220   0.821  0.00  0.00    -0.276 OA
ATOM      5  N   UNL     1      -4.756  -0.224   0.188  0.00  0.00    -0.299 NA
ATOM      6  N   UNL     1      -7.226   1.179  -0.187  0.00  0.00    -0.299 N 
ATOM     21  C   UNL     1      -5.423   0.428   1.324  0.00  0.00    +0.103 C 
ATOM     22  C   UNL     1      -5.750  -0.711  -0.781  0.00  0.00    +0.103 C 
ATOM     24  C   UNL     1      -6.282   1.599   0.848  0.00  0.00    +0.123 C 
ATOM     25  C   UNL     1      -6.621   0.436  -1.296  0.00  0.00    +0.123 C 
ATOM     27  C   UNL     1      -8.555   1.595  -0.125  0.00  0.00    +0.213 C 
ATOM     29  C   UNL     1      -9.428   1.240  -1.302  0.00  0.00    +0.109 C 
ENDBRANCH  15   5
ENDBRANCH  11  15
BRANCH  13  18
ATOM     18  C   UNL     1       0.757  -1.136   1.919  0.00  0.00    +0.105 C 
BRANCH  18  26
ATOM      1  O   UNL     1       2.971  -0.468   1.139  0.00  0.00    -0.420 OA
ATOM      7  N   UNL     1       1.838   1.157   2.178  0.00  0.00    -0.112 NA
ATOM      8  N   UNL     1       3.063   1.669   1.792  0.00  0.00    -0.107 NA
ATOM     26  C   UNL     1       1.829  -0.093   1.776  0.00  0.00    +0.218 A 
ATOM     28  C   UNL     1       3.690   0.686   1.190  0.00  0.00    +0.248 A 
BRANCH  28  30
ATOM     30  C   UNL     1       4.992   0.642   0.589  0.00  0.00    +0.039 A 
ATOM     31  C   UNL     1       5.801   1.778   0.594  0.00  0.00    +0.015 A 
ATOM     32  C   UNL     1       5.449  -0.537   0.001  0.00  0.00    +0.015 A 
ATOM     33  C   UNL     1       7.066   1.736   0.009  0.00  0.00    +0.033 A 
ATOM     34  C   UNL     1       6.714  -0.580  -0.584  0.00  0.00    +0.033 A 
ATOM     35  C   UNL     1       7.523   0.557  -0.580  0.00  0.00    +0.126 A 
BRANCH  35   9
ATOM      3  O   UNL     1       9.525   1.545  -1.156  0.00  0.00    -0.126 OA
ATOM      4  O   UNL     1       9.204  -0.558  -1.697  0.00  0.00    -0.126 OA
ATOM      9  N   UNL     1       8.813   0.512  -1.173  0.00  0.00    +0.056 N 
ENDBRANCH  35   9
ENDBRANCH  28  30
ENDBRANCH  18  26
ENDBRANCH  13  18
TORSDOF 7
