REMARK  Name = 11912310
REMARK  12 active torsions:
REMARK  status: ('A' for Active; 'I' for Inactive)
REMARK    1  A    between atoms: O_4  and  C_21
REMARK    2  A    between atoms: N_6  and  CA_17
REMARK    3  A    between atoms: C_7  and  C_12
REMARK    4  A    between atoms: C_8  and  C_13
REMARK    5  A    between atoms: C_12  and  C_14
REMARK    6  A    between atoms: C_13  and  C_15
REMARK    7  A    between atoms: C_16  and  C_19
REMARK    8  A    between atoms: CA_17  and  CB_18
REMARK    9  A    between atoms: CA_17  and  C_21
REMARK   10  A    between atoms: CB_18  and  CG_20
REMARK   11  A    between atoms: CG_20  and  CD1_22
REMARK   12  A    between atoms: CG_20  and  CD2_23
REMARK                            x       y       z     vdW  Elec       q    Type
REMARK                         _______ _______ _______ _____ _____    ______ ____
ROOT
ATOM      3  O   UNL     1      -3.751   2.394   1.406  0.00  0.00    -0.270 OA
ATOM      5  N   UNL     1      -2.260   1.331  -0.050  0.00  0.00    -0.297 N 
ATOM      7  C   UNL     1       0.428   0.266  -0.217  0.00  0.00    +0.004 C 
ATOM      8  C   UNL     1      -0.799  -0.604  -0.594  0.00  0.00    +0.010 C 
ATOM      9  C   UNL     1       0.054   1.362   0.795  0.00  0.00    +0.023 C 
ATOM     10  C   UNL     1      -1.961   0.297  -1.050  0.00  0.00    +0.112 C 
ATOM     11  C   UNL     1      -1.131   2.189   0.303  0.00  0.00    +0.108 C 
ATOM     16  C   UNL     1      -3.498   1.534   0.564  0.00  0.00    +0.247 C 
ENDROOT
BRANCH  16  19
ATOM      1  F   UNL     1      -7.733  -1.824  -0.886  0.00  0.00    -0.205 F 
ATOM     19  C   UNL     1      -4.609   0.654   0.184  0.00  0.00    +0.037 A 
ATOM     24  C   UNL     1      -5.042   0.610  -1.141  0.00  0.00    +0.016 A 
ATOM     25  C   UNL     1      -5.232  -0.139   1.148  0.00  0.00    +0.016 A 
ATOM     26  C   UNL     1      -6.097  -0.227  -1.503  0.00  0.00    +0.039 A 
ATOM     27  C   UNL     1      -6.287  -0.976   0.786  0.00  0.00    +0.039 A 
ATOM     28  C   UNL     1      -6.720  -1.020  -0.539  0.00  0.00    +0.123 A 
ENDBRANCH  16  19
BRANCH   8  13
ATOM     13  C   UNL     1      -1.262  -1.544   0.526  0.00  0.00    +0.002 C 
ATOM     15  C   UNL     1      -2.394  -2.434   0.058  0.00  0.00    +0.004 C 
ENDBRANCH   8  13
BRANCH   7  12
ATOM     12  C   UNL     1       1.614  -0.554   0.289  0.00  0.00    +0.099 C 
BRANCH  12  14
ATOM      2  O   UNL     1       3.023   1.302  -0.360  0.00  0.00    -0.276 OA
ATOM      6  N   UNL     1       3.985  -0.574   0.619  0.00  0.00    -0.310 N 
ATOM     14  C   ACE A   0       2.927   0.182   0.135  0.00  0.00    +0.214 C 
ATOM     29  H   UNL     1       3.804  -1.516   0.954  0.00  0.00    +0.149 HD
BRANCH   6  17
ATOM     17  CA  UNL     1       5.356  -0.119   0.596  0.00  0.00    +0.098 C 
BRANCH  17  18
ATOM     18  CB  UNL     1       6.051  -0.530  -0.715  0.00  0.00    +0.027 C 
BRANCH  18  20
ATOM     20  CG  UNL     1       7.479   0.029  -0.900  0.00  0.00    -0.015 C 
ATOM     22  CD1 UNL     1       7.438   1.560  -0.890  0.00  0.00    +0.007 C 
ATOM     23  CD2 UNL     1       8.136  -0.459  -2.192  0.00  0.00    +0.007 C 
ENDBRANCH  18  20
ENDBRANCH  17  18
BRANCH  17  21
ATOM     21  C   UNL     1       6.103  -0.643   1.827  0.00  0.00    +0.178 C 
BRANCH  21   4
ATOM      4  O   UNL     1       6.183  -2.062   1.802  0.00  0.00    -0.393 OA
ATOM     30  H   UNL     1       6.655  -2.336   2.606  0.00  0.00    +0.209 HD
ENDBRANCH  21   4
ENDBRANCH  17  21
ENDBRANCH   6  17
ENDBRANCH  12  14
ENDBRANCH   7  12
TORSDOF 9
