REMARK  Name = 7144073
REMARK  5 active torsions:
REMARK  status: ('A' for Active; 'I' for Inactive)
REMARK    1  A    between atoms: N_3  and  C_13
REMARK    2  A    between atoms: C_13  and  C_18
REMARK    3  A    between atoms: C_16  and  C_19
REMARK    4  A    between atoms: C_22  and  C_27
REMARK    5  A    between atoms: C_24  and  C_26
REMARK                            x       y       z     vdW  Elec       q    Type
REMARK                         _______ _______ _______ _____ _____    ______ ____
ROOT
ATOM      2  O   UNL     1       0.772   2.614   1.534  0.00  0.00    -0.267 OA
ATOM      3  N   UNL     1      -3.764   0.693   0.643  0.00  0.00    -0.297 NA
ATOM      4  N   UNL     1      -1.056   2.298   0.122  0.00  0.00    -0.311 N 
ATOM      6  C   UNL     1      -3.400   3.172   0.680  0.00  0.00    +0.024 C 
ATOM      7  C   UNL     1      -3.029   1.933  -1.398  0.00  0.00    +0.050 C 
ATOM      8  C   UNL     1      -3.572   3.241  -0.831  0.00  0.00    +0.017 C 
ATOM      9  C   UNL     1      -4.177   1.965   1.247  0.00  0.00    +0.090 C 
ATOM     10  C   UNL     1      -3.837   0.746  -0.825  0.00  0.00    +0.094 C 
ATOM     11  C   UNL     1      -1.901   3.114   1.006  0.00  0.00    +0.130 C 
ATOM     12  C   UNL     1      -1.554   1.777  -1.074  0.00  0.00    +0.026 A 
ATOM     14  C   UNL     1      -0.737   1.128  -1.918  0.00  0.00    +0.022 A 
ATOM     15  C   UNL     1       0.296   2.152   0.495  0.00  0.00    +0.259 A 
ATOM     16  C   UNL     1       1.182   1.397  -0.459  0.00  0.00    +0.040 A 
ATOM     17  C   UNL     1       0.649   0.937  -1.599  0.00  0.00    +0.015 A 
ENDROOT
BRANCH  16  19
ATOM     19  C   UNL     1       2.573   1.193  -0.140  0.00  0.00    +0.014 C 
ATOM     24  C   UNL     1       3.264   0.123  -0.553  0.00  0.00    +0.008 C 
BRANCH  24  26
ATOM      1 CL   UNL     1       9.005  -0.918   0.689  0.00  0.00    -0.084 Cl
ATOM     26  C   UNL     1       4.682  -0.134  -0.246  0.00  0.00    -0.025 A 
ATOM     28  C   UNL     1       5.493   0.919   0.145  0.00  0.00    +0.009 A 
ATOM     29  C   UNL     1       5.177  -1.424  -0.354  0.00  0.00    +0.009 A 
ATOM     30  C   UNL     1       6.836   0.675   0.436  0.00  0.00    +0.020 A 
ATOM     31  C   UNL     1       6.519  -1.667  -0.064  0.00  0.00    +0.020 A 
ATOM     32  C   UNL     1       7.349  -0.618   0.331  0.00  0.00    +0.041 A 
ENDBRANCH  24  26
ENDBRANCH  16  19
BRANCH   3  13
ATOM     13  C   UNL     1      -4.557  -0.417   1.166  0.00  0.00    +0.119 C 
BRANCH  13  18
ATOM     18  C   UNL     1      -4.064  -1.734   0.631  0.00  0.00    -0.032 A 
ATOM     20  C   UNL     1      -2.701  -1.996   0.606  0.00  0.00    +0.023 A 
ATOM     21  C   UNL     1      -4.979  -2.671   0.170  0.00  0.00    +0.005 A 
ATOM     22  C   UNL     1      -2.244  -3.217   0.110  0.00  0.00    +0.052 A 
ATOM     23  C   UNL     1      -4.523  -3.892  -0.326  0.00  0.00    +0.002 A 
ATOM     25  C   UNL     1      -3.155  -4.165  -0.356  0.00  0.00    +0.019 A 
BRANCH  22  27
ATOM      5  N   UNL     1       0.296  -3.726   0.054  0.00  0.00    -0.191 NA
ATOM     27  C   UNL     1      -0.843  -3.498   0.079  0.00  0.00    +0.099 C 
ENDBRANCH  22  27
ENDBRANCH  13  18
ENDBRANCH   3  13
TORSDOF 5
