REMARK  Name = 11865735
REMARK  8 active torsions:
REMARK  status: ('A' for Active; 'I' for Inactive)
REMARK    1  A    between atoms: N_8  and  C_13
REMARK    2  A    between atoms: N_9  and  C_19
REMARK    3  A    between atoms: N_10  and  C_29
REMARK    4  A    between atoms: C_14  and  C_17
REMARK    5  A    between atoms: C_18  and  C_22
REMARK    6  A    between atoms: C_19  and  C_20
REMARK    7  A    between atoms: C_19  and  C_24
REMARK    8  A    between atoms: C_20  and  C_23
REMARK                            x       y       z     vdW  Elec       q    Type
REMARK                         _______ _______ _______ _____ _____    ______ ____
ROOT
ATOM      4  O   UNL     1      -5.927   0.856   1.024  0.00  0.00    -0.276 OA
ATOM      7  N   UNL     1      -4.105   1.940   0.096  0.00  0.00    -0.288 N 
ATOM     13  C   UNL     1      -2.100   2.655  -0.959  0.00  0.00    +0.094 C 
ATOM     14  C   UNL     1      -3.685   0.843  -0.763  0.00  0.00    +0.164 C 
ATOM     15  C   UNL     1      -2.667   1.455  -1.722  0.00  0.00    +0.055 C 
ATOM     16  C   UNL     1      -3.280   3.130  -0.116  0.00  0.00    +0.131 C 
ATOM     18  C   UNL     1      -5.255   1.877   0.867  0.00  0.00    +0.213 C 
ATOM     22  C   UNL     1      -5.656   3.164   1.545  0.00  0.00    +0.109 C 
ENDROOT
BRANCH  13   8
ATOM      5  O   UNL     1       0.663   2.756  -1.710  0.00  0.00    -0.252 OA
ATOM      8  N   UNL     1      -0.971   2.287  -0.142  0.00  0.00    -0.295 N 
ATOM     10  N   UNL     1       1.231   1.945   0.419  0.00  0.00    -0.267 N 
ATOM     21  C   UNL     1       0.355   2.366  -0.586  0.00  0.00    +0.304 C 
ATOM     38  H   UNL     1      -1.148   1.893   0.777  0.00  0.00    +0.151 HD
ATOM     40  H   UNL     1       0.812   1.650   1.297  0.00  0.00    +0.156 HD
BRANCH  10  29
ATOM      1  F   UNL     1       2.709   1.057   2.595  0.00  0.00    -0.203 F 
ATOM      2  F   UNL     1       6.745   1.677   0.206  0.00  0.00    -0.205 F 
ATOM     29  C   UNL     1       2.643   1.876   0.367  0.00  0.00    +0.070 A 
ATOM     33  C   UNL     1       3.344   1.427   1.474  0.00  0.00    +0.147 A 
ATOM     34  C   UNL     1       3.296   2.259  -0.794  0.00  0.00    +0.029 A 
ATOM     35  C   UNL     1       4.736   1.359   1.420  0.00  0.00    +0.078 A 
ATOM     36  C   UNL     1       4.688   2.191  -0.848  0.00  0.00    +0.040 A 
ATOM     37  C   UNL     1       5.408   1.741   0.259  0.00  0.00    +0.126 A 
ENDBRANCH  10  29
ENDBRANCH  13   8
BRANCH  14  17
ATOM      3  O   UNL     1      -2.975  -0.111   1.307  0.00  0.00    -0.274 OA
ATOM      9  N   UNL     1      -2.614  -1.297  -0.663  0.00  0.00    -0.302 N 
ATOM     17  C   UNL     1      -3.066  -0.226   0.088  0.00  0.00    +0.234 C 
ATOM     39  H   UNL     1      -2.821  -1.321  -1.658  0.00  0.00    +0.150 HD
BRANCH   9  19
ATOM     19  C   UNL     1      -1.957  -2.447  -0.084  0.00  0.00    +0.163 C 
BRANCH  19  24
ATOM      6  O   UNL     1      -4.096  -3.582  -0.291  0.00  0.00    -0.274 OA
ATOM     12  N   UNL     1      -2.714  -4.151   1.454  0.00  0.00    -0.328 N 
ATOM     24  C   UNL     1      -3.048  -3.423   0.331  0.00  0.00    +0.231 C 
ATOM     42  H   UNL     1      -1.834  -4.026   1.943  0.00  0.00    +0.145 HD
ATOM     43  H   UNL     1      -3.349  -4.848   1.830  0.00  0.00    +0.145 HD
ENDBRANCH  19  24
BRANCH  19  20
ATOM     20  C   UNL     1      -0.987  -3.115  -1.065  0.00  0.00    +0.069 C 
BRANCH  20  23
ATOM     11  N   UNL     1       1.895  -1.004  -1.821  0.00  0.00    -0.360 N 
ATOM     23  C   UNL     1       0.333  -2.392  -1.164  0.00  0.00    -0.020 A 
ATOM     25  C   UNL     1       1.463  -2.643  -0.369  0.00  0.00    +0.003 A 
ATOM     26  C   UNL     1       0.602  -1.394  -2.045  0.00  0.00    +0.087 A 
ATOM     27  C   UNL     1       2.446  -1.750  -0.802  0.00  0.00    +0.047 A 
ATOM     28  C   UNL     1       1.771  -3.533   0.679  0.00  0.00    +0.010 A 
ATOM     30  C   UNL     1       3.725  -1.702  -0.238  0.00  0.00    +0.026 A 
ATOM     31  C   UNL     1       3.046  -3.497   1.253  0.00  0.00    +0.001 A 
ATOM     32  C   UNL     1       4.007  -2.595   0.800  0.00  0.00    +0.002 A 
ATOM     41  H   UNL     1       2.376  -0.275  -2.328  0.00  0.00    +0.165 HD
ENDBRANCH  20  23
ENDBRANCH  19  20
ENDBRANCH   9  19
ENDBRANCH  14  17
TORSDOF 7
