REMARK  Name = 9421714
REMARK  2 active torsions:
REMARK  status: ('A' for Active; 'I' for Inactive)
REMARK    1  A    between atoms: N_5  and  C_24
REMARK    2  A    between atoms: C_13  and  C_14
REMARK                            x       y       z     vdW  Elec       q    Type
REMARK                         _______ _______ _______ _____ _____    ______ ____
ROOT
ATOM      1  O   UNL     1      -1.627  -1.569   1.998  0.00  0.00    -0.267 OA
ATOM      2  O   UNL     1       3.204   0.435   1.699  0.00  0.00    -0.252 OA
ATOM      3  N   UNL     1      -0.073  -2.094   0.337  0.00  0.00    -0.312 N 
ATOM      4  N   UNL     1       2.957  -1.138   0.020  0.00  0.00    -0.284 N 
ATOM      5  N   UNL     1       2.786   1.165  -0.461  0.00  0.00    -0.269 N 
ATOM      6  C   UNL     1       2.104  -3.346   0.828  0.00  0.00    +0.027 C 
ATOM      7  C   UNL     1       1.609  -2.615  -1.465  0.00  0.00    +0.054 C 
ATOM      8  C   UNL     1       1.994  -3.822  -0.615  0.00  0.00    +0.018 C 
ATOM      9  C   UNL     1       0.728  -2.862   1.299  0.00  0.00    +0.130 C 
ATOM     10  C   UNL     1       3.176  -2.251   0.950  0.00  0.00    +0.114 C 
ATOM     11  C   UNL     1       0.284  -2.027  -1.012  0.00  0.00    +0.027 A 
ATOM     12  C   UNL     1       2.711  -1.538  -1.377  0.00  0.00    +0.119 C 
ATOM     14  C   UNL     1      -2.134  -0.821  -0.185  0.00  0.00    +0.020 A 
ATOM     15  C   UNL     1      -1.265  -1.520   0.822  0.00  0.00    +0.255 A 
ATOM     16  C   UNL     1      -0.524  -1.417  -1.894  0.00  0.00    +0.022 A 
ATOM     19  C   UNL     1      -1.750  -0.806  -1.468  0.00  0.00    +0.011 A 
ATOM     23  C   UNL     1       2.991   0.186   0.510  0.00  0.00    +0.306 C 
ATOM     30  H   UNL     1       3.051   0.957  -1.418  0.00  0.00    +0.156 HD
ENDROOT
BRANCH  14  13
ATOM     13  C   UNL     1      -3.400  -0.184   0.304  0.00  0.00    +0.024 C 
ATOM     17  C   UNL     1      -3.384   1.330   0.047  0.00  0.00    +0.008 C 
ATOM     18  C   UNL     1      -4.626  -0.834  -0.351  0.00  0.00    +0.008 C 
ATOM     20  C   UNL     1      -4.686   1.992   0.493  0.00  0.00    +0.001 C 
ATOM     21  C   UNL     1      -5.926  -0.168   0.096  0.00  0.00    +0.001 C 
ATOM     22  C   UNL     1      -5.901   1.337  -0.154  0.00  0.00    +0.000 C 
ENDBRANCH  14  13
BRANCH   5  24
ATOM     24  C   UNL     1       2.285   2.476  -0.264  0.00  0.00    +0.035 A 
ATOM     25  C   UNL     1       2.233   3.365  -1.333  0.00  0.00    +0.023 A 
ATOM     26  C   UNL     1       1.846   2.865   0.999  0.00  0.00    +0.023 A 
ATOM     27  C   UNL     1       1.738   4.655  -1.139  0.00  0.00    +0.002 A 
ATOM     28  C   UNL     1       1.351   4.155   1.193  0.00  0.00    +0.002 A 
ATOM     29  C   UNL     1       1.298   5.050   0.124  0.00  0.00    +0.000 A 
ENDBRANCH   5  24
TORSDOF 2
