REMARK  Name = 11867067
REMARK  11 active torsions:
REMARK  status: ('A' for Active; 'I' for Inactive)
REMARK    1  A    between atoms: O_2  and  C_15
REMARK    2  A    between atoms: O_3  and  C_20
REMARK    3  A    between atoms: O_6  and  C_30
REMARK    4  A    between atoms: O_6  and  C_34
REMARK    5  A    between atoms: N_8  and  C_26
REMARK    6  A    between atoms: C_10  and  C_18
REMARK    7  A    between atoms: C_12  and  C_20
REMARK    8  A    between atoms: C_12  and  C_21
REMARK    9  A    between atoms: C_13  and  C_23
REMARK   10  A    between atoms: C_23  and  C_24
REMARK   11  A    between atoms: C_27  and  C_30
REMARK                            x       y       z     vdW  Elec       q    Type
REMARK                         _______ _______ _______ _____ _____    ______ ____
ROOT
ATOM      1  S   UNL     1      -0.715   3.513   0.095  0.00  0.00    -0.057 S 
ATOM      5  O   UNL     1       3.633   1.829  -0.020  0.00  0.00    -0.273 OA
ATOM      7  N   UNL     1       0.703   1.350   0.015  0.00  0.00    -0.229 NA
ATOM      9  N   UNL     1       1.906   3.438   0.053  0.00  0.00    -0.263 N 
ATOM     10  C   UNL     1      -2.568  -0.654   0.414  0.00  0.00    -0.019 C 
ATOM     11  C   UNL     1      -3.428   0.447  -0.350  0.00  0.00    +0.011 C 
ATOM     12  C   UNL     1      -4.988   0.223  -0.409  0.00  0.00    +0.021 C 
ATOM     13  C   UNL     1      -1.040  -0.474  -0.018  0.00  0.00    +0.054 C 
ATOM     14  C   UNL     1      -3.036  -2.067  -0.019  0.00  0.00    +0.010 C 
ATOM     15  C   UNL     1      -5.279  -1.250  -0.812  0.00  0.00    +0.123 C 
ATOM     16  C   UNL     1      -3.017   1.887   0.075  0.00  0.00    +0.049 C 
ATOM     17  C   UNL     1      -4.543  -2.267   0.053  0.00  0.00    +0.032 C 
ATOM     18  C   UNL     1      -2.683  -0.543   1.955  0.00  0.00    +0.012 C 
ATOM     19  C   UNL     1      -0.628   0.975   0.036  0.00  0.00    +0.058 A 
ATOM     21  C   UNL     1      -5.590   1.133  -1.517  0.00  0.00    +0.016 C 
ATOM     22  C   UNL     1      -1.531   2.018   0.059  0.00  0.00    +0.015 A 
ATOM     25  C   UNL     1       0.777   2.663   0.050  0.00  0.00    +0.165 A 
ATOM     27  C   UNL     1       3.239   2.990   0.018  0.00  0.00    +0.244 C 
ATOM     38  H   UNL     1       1.738   4.440   0.083  0.00  0.00    +0.157 HD
ENDROOT
BRANCH  15   2
ATOM      2  O   UNL     1      -6.679  -1.522  -0.749  0.00  0.00    -0.391 OA
ATOM     35  H   UNL     1      -6.816  -2.435  -1.052  0.00  0.00    +0.210 HD
ENDBRANCH  15   2
BRANCH  12  20
ATOM     20  C   UNL     1      -5.738   0.597   0.889  0.00  0.00    +0.165 C 
BRANCH  20   3
ATOM      3  O   UNL     1      -7.111   0.354   0.679  0.00  0.00    -0.394 OA
ATOM     36  H   UNL     1      -7.577   0.601   1.496  0.00  0.00    +0.209 HD
ENDBRANCH  20   3
ENDBRANCH  12  20
BRANCH  13  23
ATOM     23  C   UNL     1      -0.052  -1.368   0.743  0.00  0.00    +0.106 C 
BRANCH  23  24
ATOM      4  O   UNL     1       1.368  -1.218  -1.198  0.00  0.00    -0.275 OA
ATOM      8  N   UNL     1       2.065  -2.457   0.672  0.00  0.00    -0.285 N 
ATOM     24  C   UNL     1       1.198  -1.655  -0.064  0.00  0.00    +0.218 C 
ATOM     37  H   UNL     1       1.770  -2.735   1.606  0.00  0.00    +0.155 HD
BRANCH   8  26
ATOM     26  C   UNL     1       3.333  -2.946   0.278  0.00  0.00    +0.033 A 
ATOM     28  C   UNL     1       4.075  -3.744   1.148  0.00  0.00    +0.023 A 
ATOM     29  C   UNL     1       3.842  -2.629  -0.982  0.00  0.00    +0.023 A 
ATOM     31  C   UNL     1       5.325  -4.226   0.759  0.00  0.00    +0.002 A 
ATOM     32  C   UNL     1       5.091  -3.111  -1.371  0.00  0.00    +0.002 A 
ATOM     33  C   UNL     1       5.833  -3.910  -0.501  0.00  0.00    +0.000 A 
ENDBRANCH   8  26
ENDBRANCH  23  24
ENDBRANCH  13  23
BRANCH  27  30
ATOM     30  C   UNL     1       4.212   4.154   0.034  0.00  0.00    +0.255 C 
BRANCH  30   6
ATOM      6  O   UNL     1       5.547   3.696  -0.014  0.00  0.00    -0.374 OA
ATOM     34  C   UNL     1       6.479   4.774  -0.000  0.00  0.00    +0.194 C 
ENDBRANCH  30   6
ENDBRANCH  27  30
TORSDOF 8
