REMARK  Name = 11884672
REMARK  6 active torsions:
REMARK  status: ('A' for Active; 'I' for Inactive)
REMARK    1  A    between atoms: S_1  and  N_9
REMARK    2  A    between atoms: S_1  and  C_23
REMARK    3  A    between atoms: N_11  and  C_21
REMARK    4  A    between atoms: C_26  and  C_30
REMARK    5  A    between atoms: C_28  and  C_31
REMARK    6  A    between atoms: C_31  and  C_32
REMARK                            x       y       z     vdW  Elec       q    Type
REMARK                         _______ _______ _______ _____ _____    ______ ____
ROOT
ATOM      7  O   UNL     1      -2.490   1.730  -2.117  0.00  0.00    -0.266 OA
ATOM      9  N   UNL     1       1.786   0.185  -0.080  0.00  0.00    -0.176 NA
ATOM     10  N   UNL     1      -0.737   2.018  -0.600  0.00  0.00    -0.310 N 
ATOM     12  C   UNL     1       1.695   2.342  -1.334  0.00  0.00    +0.025 C 
ATOM     13  C   UNL     1       1.140   2.300   1.058  0.00  0.00    +0.052 C 
ATOM     14  C   UNL     1       1.838   3.113  -0.028  0.00  0.00    +0.017 C 
ATOM     15  C   UNL     1       2.356   0.959  -1.220  0.00  0.00    +0.114 C 
ATOM     16  C   UNL     1       1.838   0.936   1.210  0.00  0.00    +0.119 C 
ATOM     17  C   UNL     1       0.208   2.252  -1.700  0.00  0.00    +0.130 C 
ATOM     18  C   UNL     1      -0.330   2.108   0.736  0.00  0.00    +0.026 A 
ATOM     19  C   UNL     1      -1.233   2.002   1.725  0.00  0.00    +0.024 A 
ATOM     20  C   UNL     1      -2.083   1.801  -0.957  0.00  0.00    +0.273 A 
ATOM     21  C   UNL     1      -3.054   1.665   0.175  0.00  0.00    +0.099 A 
ATOM     22  C   UNL     1      -2.621   1.775   1.436  0.00  0.00    +0.030 A 
ENDROOT
BRANCH  21  11
ATOM      8  O   UNL     1      -4.947   0.238   1.778  0.00  0.00    -0.275 OA
ATOM     11  N   UNL     1      -4.364   1.441  -0.128  0.00  0.00    -0.281 N 
ATOM     28  C   UNL     1      -5.237   0.738   0.694  0.00  0.00    +0.222 C 
ATOM     38  H   UNL     1      -4.637   1.604  -1.094  0.00  0.00    +0.155 HD
BRANCH  28  31
ATOM     31  C   UNL     1      -6.624   0.658   0.084  0.00  0.00    +0.131 C 
BRANCH  31  32
ATOM     32  C   UNL     1      -7.088  -0.754  -0.159  0.00  0.00    -0.039 A 
ATOM     33  C   UNL     1      -6.815  -1.363  -1.376  0.00  0.00    +0.004 A 
ATOM     34  C   UNL     1      -7.784  -1.426   0.836  0.00  0.00    +0.004 A 
ATOM     35  C   UNL     1      -7.245  -2.671  -1.601  0.00  0.00    +0.000 A 
ATOM     36  C   UNL     1      -8.214  -2.733   0.611  0.00  0.00    +0.000 A 
ATOM     37  C   UNL     1      -7.945  -3.356  -0.608  0.00  0.00    +0.000 A 
ENDBRANCH  31  32
ENDBRANCH  28  31
ENDBRANCH  21  11
BRANCH   9   1
ATOM      1  S   UNL     1       2.250  -1.460   0.003  0.00  0.00    +0.061 S 
ATOM      5  O   UNL     1       2.309  -2.004  -1.337  0.00  0.00    -0.153 OA
ATOM      6  O   UNL     1       1.479  -2.115   1.039  0.00  0.00    -0.153 OA
BRANCH   1  23
ATOM     23  C   UNL     1       3.907  -1.286   0.587  0.00  0.00    +0.106 A 
ATOM     24  C   UNL     1       4.939  -1.167  -0.328  0.00  0.00    +0.041 A 
ATOM     25  C   UNL     1       4.146  -1.273   1.952  0.00  0.00    +0.028 A 
ATOM     26  C   UNL     1       6.249  -1.032   0.134  0.00  0.00    +0.057 A 
ATOM     27  C   UNL     1       5.455  -1.138   2.414  0.00  0.00    +0.002 A 
ATOM     29  C   UNL     1       6.506  -1.017   1.505  0.00  0.00    +0.012 A 
BRANCH  26  30
ATOM      2  F   UNL     1       8.597  -0.780  -0.243  0.00  0.00    -0.166 F 
ATOM      3  F   UNL     1       7.492  -1.972  -1.679  0.00  0.00    -0.166 F 
ATOM      4  F   UNL     1       7.247   0.188  -1.646  0.00  0.00    -0.166 F 
ATOM     30  C   UNL     1       7.373  -0.904  -0.837  0.00  0.00    +0.417 C 
ENDBRANCH  26  30
ENDBRANCH   1  23
ENDBRANCH   9   1
TORSDOF 6
