REMARK  Name = 7051417
REMARK  5 active torsions:
REMARK  status: ('A' for Active; 'I' for Inactive)
REMARK    1  A    between atoms: S_2  and  N_10
REMARK    2  A    between atoms: S_2  and  C_29
REMARK    3  A    between atoms: N_7  and  C_16
REMARK    4  A    between atoms: N_10  and  C_25
REMARK    5  A    between atoms: C_27  and  C_28
REMARK                            x       y       z     vdW  Elec       q    Type
REMARK                         _______ _______ _______ _____ _____    ______ ____
ROOT
ATOM      3  O   UNL     1      -0.988  -2.453   2.054  0.00  0.00    -0.266 OA
ATOM      7  N   UNL     1       3.140  -0.956  -0.378  0.00  0.00    -0.298 NA
ATOM      8  N   UNL     1       0.514  -2.648   0.266  0.00  0.00    -0.310 N 
ATOM     11  C   UNL     1       2.980  -3.273   0.566  0.00  0.00    +0.024 C 
ATOM     12  C   UNL     1       2.107  -2.823  -1.678  0.00  0.00    +0.050 C 
ATOM     13  C   UNL     1       2.850  -3.856  -0.835  0.00  0.00    +0.017 C 
ATOM     14  C   UNL     1       3.761  -1.942   0.514  0.00  0.00    +0.090 C 
ATOM     15  C   UNL     1       2.921  -1.510  -1.723  0.00  0.00    +0.094 C 
ATOM     17  C   UNL     1       1.578  -3.110   1.168  0.00  0.00    +0.130 C 
ATOM     18  C   UNL     1       0.719  -2.568  -1.118  0.00  0.00    +0.026 A 
ATOM     23  C   UNL     1      -0.297  -2.250  -1.940  0.00  0.00    +0.024 A 
ATOM     24  C   UNL     1      -0.743  -2.385   0.850  0.00  0.00    +0.274 A 
ATOM     25  C   UNL     1      -1.818  -2.017  -0.106  0.00  0.00    +0.112 A 
ATOM     26  C   UNL     1      -1.608  -1.964  -1.422  0.00  0.00    +0.031 A 
ENDROOT
BRANCH   7  16
ATOM      4  O   UNL     1       4.125   4.713   1.753  0.00  0.00    -0.276 OA
ATOM      9  N   UNL     1       4.234   3.100   0.084  0.00  0.00    -0.302 N 
ATOM     16  C   UNL     1       3.934   0.269  -0.440  0.00  0.00    +0.060 C 
ATOM     19  C   UNL     1       3.211   1.323  -1.287  0.00  0.00    +0.038 C 
ATOM     20  C   UNL     1       4.191   0.802   0.976  0.00  0.00    +0.038 C 
ATOM     21  C   UNL     1       3.978   2.646  -1.288  0.00  0.00    +0.109 C 
ATOM     22  C   UNL     1       4.938   2.133   0.930  0.00  0.00    +0.109 C 
ATOM     27  C   UNL     1       3.899   4.354   0.595  0.00  0.00    +0.212 C 
ATOM     28  C   UNL     1       3.216   5.308  -0.352  0.00  0.00    +0.109 C 
ENDBRANCH   7  16
BRANCH  25  10
ATOM     10  N   UNL     1      -3.112  -1.727   0.362  0.00  0.00    -0.211 N 
ATOM     35  H   UNL     1      -3.823  -1.765  -0.382  0.00  0.00    +0.174 HD
BRANCH  10   2
ATOM      2  S   UNL     1      -3.272  -0.418   1.423  0.00  0.00    +0.072 S 
ATOM      5  O   UNL     1      -3.978  -0.841   2.618  0.00  0.00    -0.150 OA
ATOM      6  O   UNL     1      -2.005   0.280   1.532  0.00  0.00    -0.150 OA
BRANCH   2  29
ATOM      1 CL   UNL     1      -7.150   3.254  -1.835  0.00  0.00    -0.084 Cl
ATOM     29  C   UNL     1      -4.368   0.620   0.502  0.00  0.00    +0.109 A 
ATOM     30  C   UNL     1      -5.734   0.477   0.671  0.00  0.00    +0.030 A 
ATOM     31  C   UNL     1      -3.839   1.554  -0.370  0.00  0.00    +0.030 A 
ATOM     32  C   UNL     1      -6.599   1.296  -0.055  0.00  0.00    +0.022 A 
ATOM     33  C   UNL     1      -4.704   2.373  -1.097  0.00  0.00    +0.022 A 
ATOM     34  C   UNL     1      -6.084   2.244  -0.939  0.00  0.00    +0.041 A 
ENDBRANCH   2  29
ENDBRANCH  10   2
ENDBRANCH  25  10
TORSDOF 4
