REMARK  Name = 45783686
REMARK  8 active torsions:
REMARK  status: ('A' for Active; 'I' for Inactive)
REMARK    1  A    between atoms: O_5  and  C_23
REMARK    2  A    between atoms: O_5  and  C_29
REMARK    3  A    between atoms: O_6  and  C_28
REMARK    4  A    between atoms: O_6  and  C_30
REMARK    5  A    between atoms: N_7  and  C_15
REMARK    6  A    between atoms: C_11  and  C_16
REMARK    7  A    between atoms: C_15  and  C_17
REMARK    8  A    between atoms: C_20  and  C_24
REMARK                            x       y       z     vdW  Elec       q    Type
REMARK                         _______ _______ _______ _____ _____    ______ ____
ROOT
ATOM      7  N   UNL     1      -3.803  -0.690  -0.637  0.00  0.00    -0.287 NA
ATOM     11  C   UNL     1      -3.374  -1.484   0.531  0.00  0.00    +0.146 C 
ATOM     12  C   UNL     1      -3.838  -2.919   0.221  0.00  0.00    +0.030 C 
ATOM     13  C   UNL     1      -4.569  -2.821  -1.110  0.00  0.00    +0.017 C 
ATOM     14  C   UNL     1      -4.980  -1.364  -1.186  0.00  0.00    +0.085 C 
ENDROOT
BRANCH  11  16
ATOM      4  O   UNL     1      -1.500  -0.944   2.005  0.00  0.00    -0.336 OA
ATOM      8  N   UNL     1      -0.888  -1.685  -0.017  0.00  0.00    -0.190 NA
ATOM      9  N   UNL     1      -0.100  -0.946   1.999  0.00  0.00    -0.056 NA
ATOM     16  C   UNL     1      -1.883  -1.393   0.781  0.00  0.00    +0.245 A 
ATOM     20  C   UNL     1       0.186  -1.395   0.773  0.00  0.00    +0.204 A 
BRANCH  20  24
ATOM     10  N   UNL     1       3.904  -1.404   0.745  0.00  0.00    -0.221 NA
ATOM     24  C   UNL     1       1.532  -1.566   0.309  0.00  0.00    +0.041 A 
ATOM     25  C   UNL     1       1.792  -2.038  -0.974  0.00  0.00    +0.018 A 
ATOM     26  C   UNL     1       2.613  -1.267   1.121  0.00  0.00    +0.126 A 
ATOM     27  C   UNL     1       3.107  -2.193  -1.397  0.00  0.00    +0.068 A 
ATOM     28  C   UNL     1       4.118  -1.865  -0.508  0.00  0.00    +0.214 A 
BRANCH  28   6
ATOM      6  O   UNL     1       5.423  -2.009  -0.902  0.00  0.00    -0.480 OA
ATOM     30  C   UNL     1       6.421  -1.659   0.049  0.00  0.00    +0.279 C 
ENDBRANCH  28   6
ENDBRANCH  20  24
ENDBRANCH  11  16
BRANCH   7  15
ATOM     15  C   UNL     1      -4.071   0.706  -0.316  0.00  0.00    +0.120 C 
BRANCH  15  17
ATOM     17  C   UNL     1      -2.804   1.513  -0.220  0.00  0.00    -0.033 A 
ATOM     18  C   UNL     1      -2.489   2.181   0.964  0.00  0.00    +0.008 A 
ATOM     19  C   UNL     1      -1.943   1.592  -1.315  0.00  0.00    +0.008 A 
ATOM     21  C   UNL     1      -1.315   2.928   1.053  0.00  0.00    +0.046 A 
ATOM     22  C   UNL     1      -0.768   2.339  -1.226  0.00  0.00    +0.046 A 
ATOM     23  C   UNL     1      -0.454   3.007  -0.042  0.00  0.00    +0.130 A 
BRANCH  23   5
ATOM      5  O   UNL     1       0.692   3.735   0.045  0.00  0.00    -0.406 OA
BRANCH   5  29
ATOM      1  F   UNL     1       2.878   3.672   0.603  0.00  0.00    -0.133 F 
ATOM      2  F   UNL     1       1.855   1.775   0.242  0.00  0.00    -0.133 F 
ATOM      3  F   UNL     1       2.324   3.130  -1.440  0.00  0.00    -0.133 F 
ATOM     29  C   UNL     1       1.933   3.065  -0.150  0.00  0.00    +0.575 C 
ENDBRANCH   5  29
ENDBRANCH  23   5
ENDBRANCH  15  17
ENDBRANCH   7  15
TORSDOF 7
