REMARK  Name = 26763158
REMARK  6 active torsions:
REMARK  status: ('A' for Active; 'I' for Inactive)
REMARK    1  A    between atoms: O_5  and  C_25
REMARK    2  A    between atoms: O_5  and  C_29
REMARK    3  A    between atoms: N_9  and  C_15
REMARK    4  A    between atoms: N_10  and  C_28
REMARK    5  A    between atoms: C_21  and  C_22
REMARK    6  A    between atoms: C_23  and  C_25
REMARK                            x       y       z     vdW  Elec       q    Type
REMARK                         _______ _______ _______ _____ _____    ______ ____
ROOT
ATOM      1  O   UNL     1      -0.425   0.036   2.079  0.00  0.00    -0.273 OA
ATOM      2  O   UNL     1       1.791   3.631  -1.785  0.00  0.00    -0.274 OA
ATOM      3  O   UNL     1      -1.898  -1.808   0.184  0.00  0.00    -0.268 OA
ATOM      6  N   UNL     1       1.175   1.159   0.829  0.00  0.00    -0.287 N 
ATOM      7  N   UNL     1      -2.420   0.457   0.216  0.00  0.00    -0.283 N 
ATOM      8  N   UNL     1      -0.264   3.116  -0.997  0.00  0.00    -0.309 N 
ATOM     11  C   UNL     1      -1.071   0.945  -0.061  0.00  0.00    +0.182 C 
ATOM     12  C   UNL     1      -1.211   2.468  -0.116  0.00  0.00    +0.104 C 
ATOM     13  C   UNL     1       1.686   1.622  -0.466  0.00  0.00    +0.164 C 
ATOM     14  C   UNL     1       3.198   1.802  -0.222  0.00  0.00    +0.055 C 
ATOM     15  C   UNL     1       3.508   0.865   0.942  0.00  0.00    +0.092 C 
ATOM     16  C   UNL     1      -2.663   2.667  -0.541  0.00  0.00    +0.043 C 
ATOM     17  C   UNL     1       2.253   0.982   1.795  0.00  0.00    +0.131 C 
ATOM     18  C   UNL     1      -0.095   0.641   1.061  0.00  0.00    +0.239 C 
ATOM     19  C   UNL     1      -3.380   1.560   0.218  0.00  0.00    +0.111 C 
ATOM     20  C   UNL     1       1.093   2.900  -1.071  0.00  0.00    +0.234 C 
ATOM     21  C   UNL     1      -2.727  -0.899   0.185  0.00  0.00    +0.264 C 
ATOM     30  H   UNL     1      -0.597   3.952  -1.469  0.00  0.00    +0.149 HD
ENDROOT
BRANCH  21  22
ATOM     10  N   UNL     1      -4.746  -2.011  -0.830  0.00  0.00    -0.346 N 
ATOM     22  C   UNL     1      -4.150  -1.282   0.166  0.00  0.00    +0.104 A 
ATOM     24  C   UNL     1      -5.110  -0.994   1.110  0.00  0.00    +0.032 A 
ATOM     26  C   UNL     1      -6.072  -2.193  -0.535  0.00  0.00    +0.086 A 
ATOM     27  C   UNL     1      -6.326  -1.570   0.667  0.00  0.00    +0.020 A 
ATOM     28  C   UNL     1      -4.092  -2.519  -2.016  0.00  0.00    +0.149 C 
ENDBRANCH  21  22
BRANCH  15   9
ATOM      4  O   UNL     1       6.030  -0.385   0.274  0.00  0.00    -0.273 OA
ATOM      9  N   UNL     1       3.717  -0.490   0.489  0.00  0.00    -0.309 N 
ATOM     23  C   UNL     1       4.971  -1.002   0.192  0.00  0.00    +0.239 C 
ATOM     31  H   UNL     1       2.899  -1.074   0.336  0.00  0.00    +0.149 HD
BRANCH  23  25
ATOM     25  C   UNL     1       4.897  -2.446  -0.257  0.00  0.00    +0.255 C 
BRANCH  25   5
ATOM      5  O   UNL     1       6.186  -2.946  -0.541  0.00  0.00    -0.374 OA
ATOM     29  C   UNL     1       6.146  -4.305  -0.967  0.00  0.00    +0.194 C 
ENDBRANCH  25   5
ENDBRANCH  23  25
ENDBRANCH  15   9
TORSDOF 4
