REMARK  Name = 45783279
REMARK  8 active torsions:
REMARK  status: ('A' for Active; 'I' for Inactive)
REMARK    1  A    between atoms: O_2  and  C_27
REMARK    2  A    between atoms: O_2  and  C_28
REMARK    3  A    between atoms: N_3  and  C_13
REMARK    4  A    between atoms: N_7  and  C_26
REMARK    5  A    between atoms: C_9  and  C_14
REMARK    6  A    between atoms: C_13  and  C_15
REMARK    7  A    between atoms: C_16  and  C_19
REMARK    8  A    between atoms: C_26  and  C_27
REMARK                            x       y       z     vdW  Elec       q    Type
REMARK                         _______ _______ _______ _____ _____    ______ ____
ROOT
ATOM      1  O   UNL     1      -2.613   2.225   0.141  0.00  0.00    -0.336 OA
ATOM      4  N   UNL     1      -1.063   0.688   0.647  0.00  0.00    -0.190 NA
ATOM      5  N   UNL     1      -1.373   2.819  -0.127  0.00  0.00    -0.056 NA
ATOM     14  C   UNL     1      -2.340   0.972   0.592  0.00  0.00    +0.245 A 
ATOM     16  C   UNL     1      -0.510   1.851   0.196  0.00  0.00    +0.202 A 
ENDROOT
BRANCH  16  19
ATOM      7  N   UNL     1       3.984   0.112   0.664  0.00  0.00    -0.327 N 
ATOM      8  N   UNL     1       3.679   2.332  -0.145  0.00  0.00    -0.240 NA
ATOM     19  C   UNL     1       0.910   2.015   0.082  0.00  0.00    +0.027 A 
ATOM     22  C   UNL     1       1.764   0.974   0.432  0.00  0.00    +0.055 A 
ATOM     23  C   UNL     1       1.440   3.214  -0.382  0.00  0.00    +0.031 A 
ATOM     24  C   UNL     1       3.127   1.181   0.302  0.00  0.00    +0.119 A 
ATOM     25  C   UNL     1       2.818   3.321  -0.475  0.00  0.00    +0.113 A 
ATOM     29  H   UNL     1       4.979   0.275   0.561  0.00  0.00    +0.148 HD
BRANCH   7  26
ATOM     26  C   UNL     1       3.493  -1.138   1.146  0.00  0.00    +0.131 C 
BRANCH  26  27
ATOM     27  C   UNL     1       4.655  -2.059   1.479  0.00  0.00    +0.178 C 
BRANCH  27   2
ATOM      2  O   UNL     1       5.413  -2.309   0.302  0.00  0.00    -0.381 OA
ATOM     28  C   UNL     1       6.510  -3.174   0.563  0.00  0.00    +0.194 C 
ENDBRANCH  27   2
ENDBRANCH  26  27
ENDBRANCH   7  26
ENDBRANCH  16  19
BRANCH  14   9
ATOM      3  N   UNL     1      -3.256  -1.332   0.809  0.00  0.00    -0.287 NA
ATOM      9  C   UNL     1      -3.532   0.111   0.955  0.00  0.00    +0.146 C 
ATOM     10  C   UNL     1      -3.962   0.280   2.425  0.00  0.00    +0.030 C 
ATOM     11  C   UNL     1      -3.955  -1.127   3.005  0.00  0.00    +0.017 C 
ATOM     12  C   UNL     1      -4.102  -2.016   1.786  0.00  0.00    +0.085 C 
BRANCH   3  13
ATOM     13  C   UNL     1      -3.474  -1.824  -0.545  0.00  0.00    +0.121 C 
BRANCH  13  15
ATOM      6  N   UNL     1      -1.506  -0.421  -3.459  0.00  0.00    -0.263 NA
ATOM     15  C   UNL     1      -2.318  -1.499  -1.453  0.00  0.00    -0.015 A 
ATOM     17  C   UNL     1      -1.033  -1.947  -1.166  0.00  0.00    +0.008 A 
ATOM     18  C   UNL     1      -2.500  -0.746  -2.602  0.00  0.00    +0.115 A 
ATOM     20  C   UNL     1       0.015  -1.633  -2.024  0.00  0.00    +0.020 A 
ATOM     21  C   UNL     1      -0.271  -0.874  -3.147  0.00  0.00    +0.111 A 
ENDBRANCH  13  15
ENDBRANCH   3  13
ENDBRANCH  14   9
TORSDOF 7
