REMARK  Name = 11884055
REMARK  7 active torsions:
REMARK  status: ('A' for Active; 'I' for Inactive)
REMARK    1  A    between atoms: O_3  and  C_13
REMARK    2  A    between atoms: O_3  and  C_17
REMARK    3  A    between atoms: O_7  and  C_27
REMARK    4  A    between atoms: O_7  and  C_28
REMARK    5  A    between atoms: N_8  and  C_12
REMARK    6  A    between atoms: N_9  and  C_20
REMARK    7  A    between atoms: C_16  and  C_18
REMARK                            x       y       z     vdW  Elec       q    Type
REMARK                         _______ _______ _______ _____ _____    ______ ____
ROOT
ATOM      1  O   UNL     1      -0.834   1.034   1.180  0.00  0.00    -0.368 OA
ATOM      2  O   UNL     1      -2.232   3.214  -0.463  0.00  0.00    -0.368 OA
ATOM     10  C   UNL     1      -2.384   1.779  -0.453  0.00  0.00    +0.173 C 
ATOM     11  C   UNL     1      -1.003   1.193  -0.239  0.00  0.00    +0.192 C 
ATOM     12  C   UNL     1      -3.155   1.347   0.772  0.00  0.00    +0.130 C 
ATOM     13  C   UNL     1      -0.102   2.270  -0.793  0.00  0.00    +0.235 C 
ATOM     14  C   UNL     1      -2.076   1.324   1.841  0.00  0.00    +0.185 C 
ATOM     15  C   UNL     1      -0.834   3.533  -0.400  0.00  0.00    +0.207 C 
ENDROOT
BRANCH  12   8
ATOM      4  O   UNL     1      -5.785   0.828  -0.106  0.00  0.00    -0.267 OA
ATOM      8  N   UNL     1      -3.741   0.042   0.589  0.00  0.00    -0.301 N 
ATOM     16  C   UNL     1      -5.053  -0.131   0.149  0.00  0.00    +0.280 C 
ATOM     29  H   UNL     1      -3.159  -0.778   0.738  0.00  0.00    +0.150 HD
BRANCH  16  18
ATOM      6  O   UNL     1      -4.591  -2.466   0.265  0.00  0.00    -0.458 OA
ATOM     18  C   UNL     1      -5.495  -1.522  -0.020  0.00  0.00    +0.189 A 
ATOM     19  C   UNL     1      -6.682  -2.011  -0.423  0.00  0.00    +0.054 A 
ATOM     21  C   UNL     1      -6.519  -3.416  -0.392  0.00  0.00    +0.042 A 
ATOM     22  C   UNL     1      -5.231  -3.642   0.034  0.00  0.00    +0.196 A 
ENDBRANCH  16  18
ENDBRANCH  12   8
BRANCH  13   3
ATOM      3  O   UNL     1       1.208   2.231  -0.271  0.00  0.00    -0.442 OA
BRANCH   3  17
ATOM      5  O   UNL     1       1.519   0.162  -1.194  0.00  0.00    -0.226 OA
ATOM      9  N   UNL     1       3.201   1.224   0.040  0.00  0.00    -0.251 N 
ATOM     17  C   UNL     1       1.952   1.101  -0.538  0.00  0.00    +0.405 C 
ATOM     30  H   UNL     1       3.377   2.086   0.550  0.00  0.00    +0.158 HD
BRANCH   9  20
ATOM     20  C   UNL     1       4.269   0.297   0.010  0.00  0.00    +0.037 A 
ATOM     23  C   UNL     1       5.455   0.607   0.657  0.00  0.00    +0.027 A 
ATOM     24  C   UNL     1       4.108  -0.902  -0.664  0.00  0.00    +0.027 A 
ATOM     25  C   UNL     1       6.508  -0.307   0.628  0.00  0.00    +0.047 A 
ATOM     26  C   UNL     1       5.162  -1.816  -0.693  0.00  0.00    +0.047 A 
ATOM     27  C   UNL     1       6.361  -1.518  -0.047  0.00  0.00    +0.120 A 
BRANCH  27   7
ATOM      7  O   UNL     1       7.388  -2.411  -0.074  0.00  0.00    -0.495 OA
ATOM     28  C   UNL     1       8.586  -2.043   0.608  0.00  0.00    +0.277 C 
ENDBRANCH  27   7
ENDBRANCH   9  20
ENDBRANCH   3  17
ENDBRANCH  13   3
TORSDOF 6
