REMARK  Name = 45361019
REMARK  8 active torsions:
REMARK  status: ('A' for Active; 'I' for Inactive)
REMARK    1  A    between atoms: N_4  and  C_19
REMARK    2  A    between atoms: N_5  and  C_17
REMARK    3  A    between atoms: N_9  and  C_25
REMARK    4  A    between atoms: C_14  and  C_18
REMARK    5  A    between atoms: C_17  and  C_21
REMARK    6  A    between atoms: C_18  and  C_20
REMARK    7  A    between atoms: C_20  and  C_22
REMARK    8  A    between atoms: C_25  and  C_26
REMARK                            x       y       z     vdW  Elec       q    Type
REMARK                         _______ _______ _______ _____ _____    ______ ____
ROOT
ATOM      2  O   UNL     1       2.227   1.838   0.997  0.00  0.00    -0.274 OA
ATOM      4  N   UNL     1       0.766  -1.674   0.275  0.00  0.00    -0.296 NA
ATOM      5  N   UNL     1       3.974   0.058  -0.040  0.00  0.00    -0.283 NA
ATOM      6  N   UNL     1       0.454   1.142  -0.271  0.00  0.00    -0.312 N 
ATOM     10  C   UNL     1       2.104  -1.464  -0.320  0.00  0.00    +0.084 C 
ATOM     11  C   UNL     1       2.592  -0.004  -0.552  0.00  0.00    +0.161 C 
ATOM     12  C   UNL     1       3.257  -2.059   0.510  0.00  0.00    +0.036 C 
ATOM     13  C   UNL     1       4.474  -1.311   0.010  0.00  0.00    +0.087 C 
ATOM     14  C   UNL     1      -0.364  -1.179  -0.559  0.00  0.00    +0.074 C 
ATOM     15  C   UNL     1       1.768   1.072   0.151  0.00  0.00    +0.232 C 
ATOM     16  C   UNL     1      -0.138   0.203  -1.204  0.00  0.00    +0.123 C 
ATOM     19  C   UNL     1       0.562  -3.091   0.620  0.00  0.00    +0.105 C 
ATOM     30  H   UNL     1      -0.144   1.852   0.141  0.00  0.00    +0.149 HD
ENDROOT
BRANCH   5  17
ATOM     17  C   UNL     1       4.840   0.931  -0.821  0.00  0.00    +0.159 C 
BRANCH  17  21
ATOM      7  N   UNL     1       7.270   0.336  -0.843  0.00  0.00    -0.347 N 
ATOM      8  N   UNL     1       6.613   1.658   0.816  0.00  0.00    -0.239 NA
ATOM     21  C   UNL     1       6.229   0.998  -0.255  0.00  0.00    +0.121 A 
ATOM     23  C   UNL     1       8.389   0.589  -0.101  0.00  0.00    +0.104 A 
ATOM     24  C   UNL     1       7.958   1.407   0.917  0.00  0.00    +0.130 A 
ATOM     31  H   UNL     1       7.223  -0.240  -1.674  0.00  0.00    +0.167 HD
ENDBRANCH  17  21
ENDBRANCH   5  17
BRANCH  14  18
ATOM     18  C   UNL     1      -1.657  -1.094   0.279  0.00  0.00    +0.029 C 
BRANCH  18  20
ATOM     20  C   UNL     1      -2.882  -1.182  -0.614  0.00  0.00    +0.097 C 
BRANCH  20  22
ATOM      3  O   UNL     1      -4.193  -0.977   1.411  0.00  0.00    -0.276 OA
ATOM      9  N   UNL     1      -5.286  -1.180  -0.626  0.00  0.00    -0.311 N 
ATOM     22  C   UNL     1      -4.167  -1.099   0.190  0.00  0.00    +0.213 C 
ATOM     32  H   UNL     1      -5.168  -1.264  -1.632  0.00  0.00    +0.149 HD
BRANCH   9  25
ATOM     25  C   UNL     1      -6.630  -1.126  -0.100  0.00  0.00    +0.146 C 
BRANCH  25  26
ATOM      1  S   UNL     1      -7.651   0.970   1.411  0.00  0.00    -0.100 S 
ATOM     26  C   UNL     1      -7.169   0.275  -0.078  0.00  0.00    +0.007 A 
ATOM     27  C   UNL     1      -7.349   1.140  -1.135  0.00  0.00    +0.013 A 
ATOM     28  C   UNL     1      -7.889   2.390  -0.716  0.00  0.00    +0.008 A 
ATOM     29  C   UNL     1      -8.101   2.433   0.644  0.00  0.00    +0.045 A 
ENDBRANCH  25  26
ENDBRANCH   9  25
ENDBRANCH  20  22
ENDBRANCH  18  20
ENDBRANCH  14  18
TORSDOF 7
