REMARK  Name = 44717029
REMARK  10 active torsions:
REMARK  status: ('A' for Active; 'I' for Inactive)
REMARK    1  A    between atoms: S_1  and  N_8
REMARK    2  A    between atoms: S_1  and  C_19
REMARK    3  A    between atoms: O_6  and  C_25
REMARK    4  A    between atoms: O_6  and  C_37
REMARK    5  A    between atoms: N_10  and  C_20
REMARK    6  A    between atoms: C_13  and  C_17
REMARK    7  A    between atoms: C_18  and  C_21
REMARK    8  A    between atoms: C_20  and  C_22
REMARK    9  A    between atoms: C_20  and  C_25
REMARK   10  A    between atoms: C_22  and  C_26
REMARK                            x       y       z     vdW  Elec       q    Type
REMARK                         _______ _______ _______ _____ _____    ______ ____
ROOT
ATOM      5  O   UNL     1      -3.338  -1.288  -2.052  0.00  0.00    -0.270 OA
ATOM      8  N   UNL     1      -0.174   1.393   0.861  0.00  0.00    -0.162 NA
ATOM      9  N   UNL     1      -2.430   0.153  -0.450  0.00  0.00    -0.294 N 
ATOM     13  C   UNL     1       0.039   0.505  -0.315  0.00  0.00    +0.183 C 
ATOM     14  C   UNL     1      -1.195   0.374  -1.203  0.00  0.00    +0.138 C 
ATOM     15  C   UNL     1      -1.532   1.987   0.962  0.00  0.00    +0.129 C 
ATOM     16  C   UNL     1      -2.571   0.886   0.813  0.00  0.00    +0.125 C 
ATOM     18  C   UNL     1      -3.426  -0.662  -0.997  0.00  0.00    +0.248 C 
ENDROOT
BRANCH  18  21
ATOM     11  N   UNL     1      -6.935   0.015   0.152  0.00  0.00    -0.263 NA
ATOM     21  C   UNL     1      -4.693  -0.791  -0.259  0.00  0.00    +0.055 A 
ATOM     29  C   UNL     1      -4.870  -1.790   0.693  0.00  0.00    +0.016 A 
ATOM     30  C   UNL     1      -5.747   0.078  -0.490  0.00  0.00    +0.123 A 
ATOM     33  C   UNL     1      -6.077  -1.887   1.375  0.00  0.00    +0.020 A 
ATOM     35  C   UNL     1      -7.069  -0.968   1.070  0.00  0.00    +0.111 A 
ENDBRANCH  18  21
BRANCH  13  17
ATOM      4  O   UNL     1      -0.039  -1.200   1.349  0.00  0.00    -0.274 OA
ATOM     10  N   UNL     1       1.350  -1.488  -0.497  0.00  0.00    -0.301 N 
ATOM     17  C   UNL     1       0.424  -0.812   0.280  0.00  0.00    +0.234 C 
ATOM     39  H   UNL     1       1.590  -1.116  -1.411  0.00  0.00    +0.150 HD
BRANCH  10  20
ATOM     20  C   UNL     1       1.901  -2.773  -0.132  0.00  0.00    +0.186 C 
BRANCH  20  25
ATOM      7  O   UNL     1      -0.002  -3.759  -1.248  0.00  0.00    -0.249 OA
ATOM     25  C   UNL     1       1.006  -3.925  -0.569  0.00  0.00    +0.328 C 
BRANCH  25   6
ATOM      6  O   UNL     1       1.452  -5.126  -0.104  0.00  0.00    -0.467 OA
ATOM     37  C   UNL     1       0.655  -6.262  -0.456  0.00  0.00    +0.280 C 
ENDBRANCH  25   6
ENDBRANCH  20  25
BRANCH  20  22
ATOM     22  C   UNL     1       3.342  -2.941  -0.635  0.00  0.00    +0.070 C 
BRANCH  22  26
ATOM     12  N   UNL     1       5.886  -1.069   1.463  0.00  0.00    -0.263 NA
ATOM     26  C   UNL     1       4.300  -1.863  -0.181  0.00  0.00    -0.027 A 
ATOM     32  C   UNL     1       4.490  -0.709  -0.932  0.00  0.00    +0.006 A 
ATOM     34  C   UNL     1       5.016  -1.994   0.999  0.00  0.00    +0.114 A 
ATOM     36  C   UNL     1       5.377   0.266  -0.487  0.00  0.00    +0.020 A 
ATOM     38  C   UNL     1       6.044   0.040   0.706  0.00  0.00    +0.111 A 
ENDBRANCH  22  26
ENDBRANCH  20  22
ENDBRANCH  10  20
ENDBRANCH  13  17
BRANCH   8   1
ATOM      1  S   UNL     1       1.128   2.408   1.307  0.00  0.00    +0.062 S 
ATOM      2  O   UNL     1       2.375   1.742   0.996  0.00  0.00    -0.153 OA
ATOM      3  O   UNL     1       0.879   2.941   2.630  0.00  0.00    -0.153 OA
BRANCH   1  19
ATOM     19  C   UNL     1       0.911   3.719   0.145  0.00  0.00    +0.106 A 
ATOM     23  C   UNL     1       0.109   4.813   0.468  0.00  0.00    +0.028 A 
ATOM     24  C   UNL     1       1.542   3.659  -1.099  0.00  0.00    +0.028 A 
ATOM     27  C   UNL     1      -0.063   5.848  -0.452  0.00  0.00    +0.002 A 
ATOM     28  C   UNL     1       1.369   4.694  -2.018  0.00  0.00    +0.002 A 
ATOM     31  C   UNL     1       0.567   5.788  -1.694  0.00  0.00    +0.000 A 
ENDBRANCH   1  19
ENDBRANCH   8   1
TORSDOF 9
