REMARK  Name = 44716903
REMARK  13 active torsions:
REMARK  status: ('A' for Active; 'I' for Inactive)
REMARK    1  A    between atoms: O_1  and  C_16
REMARK    2  A    between atoms: O_1  and  C_25
REMARK    3  A    between atoms: O_2  and  C_17
REMARK    4  A    between atoms: O_3  and  C_21
REMARK    5  A    between atoms: O_6  and  C_28
REMARK    6  A    between atoms: O_7  and  C_35
REMARK    7  A    between atoms: O_7  and  C_36
REMARK    8  A    between atoms: N_9  and  C_30
REMARK    9  A    between atoms: C_10  and  C_20
REMARK   10  A    between atoms: C_12  and  C_21
REMARK   11  A    between atoms: C_12  and  C_23
REMARK   12  A    between atoms: C_13  and  C_22
REMARK   13  A    between atoms: C_22  and  C_24
REMARK                            x       y       z     vdW  Elec       q    Type
REMARK                         _______ _______ _______ _____ _____    ______ ____
ROOT
ATOM     10  C   UNL     1      -2.311  -1.209   0.562  0.00  0.00    -0.023 C 
ATOM     11  C   UNL     1      -1.667  -2.007  -0.637  0.00  0.00    +0.007 C 
ATOM     12  C   UNL     1      -0.137  -2.368  -0.506  0.00  0.00    +0.031 C 
ATOM     13  C   UNL     1      -3.725  -0.693   0.068  0.00  0.00    +0.032 C 
ATOM     14  C   UNL     1      -1.406   0.011   0.883  0.00  0.00    +0.011 C 
ATOM     15  C   UNL     1      -2.572  -3.182  -1.067  0.00  0.00    +0.007 C 
ATOM     16  C   UNL     1       0.651  -1.085  -0.104  0.00  0.00    +0.186 C 
ATOM     17  C   UNL     1      -4.642  -1.821  -0.459  0.00  0.00    +0.119 C 
ATOM     18  C   UNL     1       0.060  -0.349   1.094  0.00  0.00    +0.046 C 
ATOM     19  C   UNL     1      -3.951  -2.688  -1.507  0.00  0.00    +0.032 C 
ATOM     20  C   UNL     1      -2.460  -2.047   1.855  0.00  0.00    +0.012 C 
ATOM     23  C   UNL     1       0.398  -2.828  -1.893  0.00  0.00    +0.017 C 
ENDROOT
BRANCH  17   2
ATOM      2  O   UNL     1      -5.109  -2.638   0.610  0.00  0.00    -0.391 OA
ATOM     37  H   UNL     1      -5.703  -3.308   0.233  0.00  0.00    +0.210 HD
ENDBRANCH  17   2
BRANCH  16   1
ATOM      1  O   UNL     1       2.013  -1.377   0.213  0.00  0.00    -0.446 OA
BRANCH   1  25
ATOM      5  O   UNL     1       2.614   0.703  -0.524  0.00  0.00    -0.226 OA
ATOM      9  N   UNL     1       4.180  -0.822   0.314  0.00  0.00    -0.251 N 
ATOM     25  C   UNL     1       2.921  -0.383  -0.047  0.00  0.00    +0.405 C 
ATOM     39  H   UNL     1       4.236  -1.763   0.695  0.00  0.00    +0.158 HD
BRANCH   9  30
ATOM     30  C   UNL     1       5.406  -0.125   0.218  0.00  0.00    +0.037 A 
ATOM     31  C   UNL     1       6.589  -0.735   0.635  0.00  0.00    +0.027 A 
ATOM     32  C   UNL     1       5.433   1.173  -0.294  0.00  0.00    +0.027 A 
ATOM     33  C   UNL     1       7.799  -0.047   0.541  0.00  0.00    +0.047 A 
ATOM     34  C   UNL     1       6.643   1.860  -0.388  0.00  0.00    +0.047 A 
ATOM     35  C   UNL     1       7.826   1.251   0.029  0.00  0.00    +0.120 A 
BRANCH  35   7
ATOM      7  O   UNL     1       9.007   1.921  -0.063  0.00  0.00    -0.495 OA
ATOM     36  C   UNL     1       8.961   3.245  -0.595  0.00  0.00    +0.277 C 
ENDBRANCH  35   7
ENDBRANCH   9  30
ENDBRANCH   1  25
ENDBRANCH  16   1
BRANCH  12  21
ATOM     21  C   UNL     1       0.154  -3.534   0.461  0.00  0.00    +0.166 C 
BRANCH  21   3
ATOM      3  O   UNL     1       1.424  -4.057   0.140  0.00  0.00    -0.394 OA
ATOM     38  H   UNL     1       1.597  -4.794   0.751  0.00  0.00    +0.209 HD
ENDBRANCH  21   3
ENDBRANCH  12  21
BRANCH  13  22
ATOM     22  C   UNL     1      -4.490   0.171   1.084  0.00  0.00    +0.102 C 
BRANCH  22  24
ATOM      4  O   UNL     1      -6.637   0.635   0.163  0.00  0.00    -0.276 OA
ATOM      8  N   UNL     1      -5.028   2.282  -0.030  0.00  0.00    -0.299 N 
ATOM     24  C   UNL     1      -5.490   1.039   0.364  0.00  0.00    +0.216 C 
ATOM     26  C   UNL     1      -3.684   2.820   0.181  0.00  0.00    +0.139 C 
ATOM     27  C   UNL     1      -5.874   3.237  -0.730  0.00  0.00    +0.110 C 
ATOM     28  C   UNL     1      -3.794   4.288  -0.218  0.00  0.00    +0.133 C 
ATOM     29  C   UNL     1      -4.909   4.290  -1.258  0.00  0.00    +0.052 C 
BRANCH  28   6
ATOM      6  O   UNL     1      -4.195   5.069   0.902  0.00  0.00    -0.390 OA
ATOM     40  H   UNL     1      -3.489   5.008   1.567  0.00  0.00    +0.210 HD
ENDBRANCH  28   6
ENDBRANCH  22  24
ENDBRANCH  13  22
TORSDOF 10
