REMARK  Name = 45784321
REMARK  3 active torsions:
REMARK  status: ('A' for Active; 'I' for Inactive)
REMARK    1  A    between atoms: N_1  and  C_10
REMARK    2  A    between atoms: C_5  and  C_9
REMARK    3  A    between atoms: C_15  and  C_17
REMARK                            x       y       z     vdW  Elec       q    Type
REMARK                         _______ _______ _______ _____ _____    ______ ____
ROOT
ATOM      2  N   UNL     1       0.094  -1.277  -0.021  0.00  0.00    -0.342 N 
ATOM      3  N   UNL     1      -0.495   0.854   0.206  0.00  0.00    -0.232 NA
ATOM      9  C   UNL     1      -0.931  -0.383   0.113  0.00  0.00    +0.113 A 
ATOM     11  C   UNL     1       1.270  -0.571  -0.013  0.00  0.00    +0.067 A 
ATOM     12  C   UNL     1       0.875   0.756   0.129  0.00  0.00    +0.089 A 
ATOM     13  C   UNL     1       2.604  -0.968  -0.116  0.00  0.00    +0.046 A 
ATOM     14  C   UNL     1       1.857   1.761   0.174  0.00  0.00    +0.031 A 
ATOM     15  C   UNL     1       3.567   0.045  -0.070  0.00  0.00    +0.054 A 
ATOM     16  C   UNL     1       3.202   1.386   0.073  0.00  0.00    +0.021 A 
ATOM     18  H   UNL     1       0.006  -2.281  -0.110  0.00  0.00    +0.167 HD
ENDROOT
BRANCH   9   5
ATOM      1  N   UNL     1      -4.552  -0.171  -0.407  0.00  0.00    -0.305 NA
ATOM      5  C   UNL     1      -2.372  -0.838   0.142  0.00  0.00    +0.070 C 
ATOM      6  C   UNL     1      -3.138  -0.477   1.426  0.00  0.00    +0.028 C 
ATOM      7  C   UNL     1      -3.212  -0.238  -0.993  0.00  0.00    +0.095 C 
ATOM      8  C   UNL     1      -4.343   0.325   0.954  0.00  0.00    +0.085 C 
ATOM     10  C   UNL     1      -5.452   0.677  -1.174  0.00  0.00    +0.104 C 
ENDBRANCH   9   5
BRANCH  15  17
ATOM      4  N   UNL     1       6.074  -0.581  -0.252  0.00  0.00    -0.191 NA
ATOM     17  C   UNL     1       4.951  -0.300  -0.171  0.00  0.00    +0.099 C 
ENDBRANCH  15  17
TORSDOF 2
