REMARK  Name = 25338452
REMARK  6 active torsions:
REMARK  status: ('A' for Active; 'I' for Inactive)
REMARK    1  A    between atoms: N_3  and  C_14
REMARK    2  A    between atoms: N_4  and  C_9
REMARK    3  A    between atoms: N_6  and  C_17
REMARK    4  A    between atoms: C_10  and  C_13
REMARK    5  A    between atoms: C_16  and  C_18
REMARK    6  A    between atoms: C_17  and  C_19
REMARK                            x       y       z     vdW  Elec       q    Type
REMARK                         _______ _______ _______ _____ _____    ______ ____
ROOT
ATOM      3  N   UNL     1      -1.287   3.381   0.775  0.00  0.00    -0.293 NA
ATOM      9  C   UNL     1       0.839   3.324  -0.179  0.00  0.00    +0.090 C 
ATOM     10  C   UNL     1      -1.524   2.852  -0.582  0.00  0.00    +0.147 C 
ATOM     11  C   UNL     1      -0.114   2.663  -1.175  0.00  0.00    +0.052 C 
ATOM     12  C   UNL     1      -0.067   4.189   0.683  0.00  0.00    +0.107 C 
ATOM     14  C   UNL     1      -2.411   4.149   1.295  0.00  0.00    +0.105 C 
ENDROOT
BRANCH   9   4
ATOM      2  O   UNL     1       3.410   2.144  -0.747  0.00  0.00    -0.253 OA
ATOM      4  N   UNL     1       1.541   2.344   0.615  0.00  0.00    -0.295 N 
ATOM      6  N   UNL     1       3.231   0.901   1.204  0.00  0.00    -0.295 N 
ATOM     15  C   UNL     1       2.785   1.826   0.263  0.00  0.00    +0.300 C 
ATOM     29  H   UNL     1       1.075   1.962   1.433  0.00  0.00    +0.151 HD
ATOM     30  H   UNL     1       2.636   0.685   1.997  0.00  0.00    +0.151 HD
BRANCH   6  17
ATOM     17  C   UNL     1       4.494   0.211   1.084  0.00  0.00    +0.141 C 
BRANCH  17  19
ATOM     19  C   UNL     1       4.359  -1.080   0.329  0.00  0.00    -0.030 A 
ATOM     22  C   UNL     1       4.077  -2.262   1.014  0.00  0.00    +0.005 A 
ATOM     23  C   UNL     1       4.517  -1.098  -1.056  0.00  0.00    +0.005 A 
ATOM     26  C   UNL     1       3.951  -3.462   0.313  0.00  0.00    +0.000 A 
ATOM     27  C   UNL     1       4.392  -2.297  -1.758  0.00  0.00    +0.000 A 
ATOM     28  C   UNL     1       4.109  -3.479  -1.073  0.00  0.00    +0.000 A 
ENDBRANCH  17  19
ENDBRANCH   6  17
ENDBRANCH   9   4
BRANCH  10  13
ATOM      1  O   UNL     1      -3.486   1.598  -1.324  0.00  0.00    -0.336 OA
ATOM      5  N   UNL     1      -2.099   0.431  -0.008  0.00  0.00    -0.190 NA
ATOM      7  N   UNL     1      -4.055   0.325  -1.188  0.00  0.00    -0.056 NA
ATOM     13  C   UNL     1      -2.337   1.575  -0.598  0.00  0.00    +0.245 A 
ATOM     16  C   UNL     1      -3.180  -0.304  -0.399  0.00  0.00    +0.202 A 
BRANCH  16  18
ATOM      8  N   UNL     1      -3.695  -4.320   0.824  0.00  0.00    -0.263 NA
ATOM     18  C   UNL     1      -3.355  -1.666   0.016  0.00  0.00    +0.025 A 
ATOM     20  C   UNL     1      -2.410  -2.272   0.838  0.00  0.00    +0.031 A 
ATOM     21  C   UNL     1      -4.469  -2.385  -0.402  0.00  0.00    +0.031 A 
ATOM     24  C   UNL     1      -2.625  -3.589   1.210  0.00  0.00    +0.111 A 
ATOM     25  C   UNL     1      -4.592  -3.697   0.026  0.00  0.00    +0.111 A 
ENDBRANCH  16  18
ENDBRANCH  10  13
TORSDOF 5
