REMARK  Name = 38030656
REMARK  14 active torsions:
REMARK  status: ('A' for Active; 'I' for Inactive)
REMARK    1  A    between atoms: O_2  and  C_20
REMARK    2  A    between atoms: O_2  and  C_23
REMARK    3  A    between atoms: N_3  and  C_13
REMARK    4  A    between atoms: N_3  and  C_19
REMARK    5  A    between atoms: C_6  and  C_10
REMARK    6  A    between atoms: C_7  and  C_13
REMARK    7  A    between atoms: C_9  and  C_14
REMARK    8  A    between atoms: C_10  and  C_15
REMARK    9  A    between atoms: C_10  and  C_16
REMARK   10  A    between atoms: C_11  and  C_17
REMARK   11  A    between atoms: C_14  and  C_18
REMARK   12  A    between atoms: C_19  and  C_20
REMARK   13  A    between atoms: C_21  and  C_22
REMARK   14  A    between atoms: C_28  and  C_29
REMARK                            x       y       z     vdW  Elec       q    Type
REMARK                         _______ _______ _______ _____ _____    ______ ____
ROOT
ATOM      6  C   UNL     1       1.548   0.809  -1.367  0.00  0.00    +0.000 C 
ATOM      7  C   UNL     1       3.072   1.081  -1.395  0.00  0.00    +0.029 C 
ATOM      8  C   UNL     1       0.787   2.067  -0.922  0.00  0.00    +0.012 C 
ATOM      9  C   UNL     1       1.222   2.547   0.475  0.00  0.00    +0.024 C 
ATOM     11  C   UNL     1       2.731   2.585   0.613  0.00  0.00    -0.073 C 
ATOM     12  C   UNL     1       3.542   1.934  -0.240  0.00  0.00    -0.023 C 
ATOM     17  C   UNL     1       3.288   3.425   1.728  0.00  0.00    +0.039 C 
ENDROOT
BRANCH   6  10
ATOM     10  C   UNL     1       1.028   0.344  -2.731  0.00  0.00    -0.013 C 
ATOM     15  C   UNL     1      -0.254  -0.465  -2.565  0.00  0.00    +0.007 C 
ATOM     16  C   UNL     1       0.797   1.540  -3.649  0.00  0.00    +0.007 C 
ENDBRANCH   6  10
BRANCH   7  13
ATOM     13  C   UNL     1       3.868  -0.230  -1.417  0.00  0.00    +0.088 C 
BRANCH  13   3
ATOM      3  N   UNL     1       3.658  -0.978  -0.190  0.00  0.00    -0.313 NA
ATOM     30  H   UNL     1       3.942  -0.429   0.620  0.00  0.00    +0.122 HD
BRANCH   3  19
ATOM     19  C   UNL     1       4.402  -2.232  -0.206  0.00  0.00    +0.109 C 
BRANCH  19  20
ATOM     20  C   UNL     1       4.142  -3.027   1.063  0.00  0.00    +0.174 C 
BRANCH  20   2
ATOM      2  O   UNL     1       4.872  -4.245   0.997  0.00  0.00    -0.382 OA
ATOM     23  C   UNL     1       4.687  -5.029   2.168  0.00  0.00    +0.194 C 
ENDBRANCH  20   2
ENDBRANCH  19  20
ENDBRANCH   3  19
ENDBRANCH  13   3
ENDBRANCH   7  13
BRANCH   9  14
ATOM     14  C   UNL     1       0.592   1.688   1.576  0.00  0.00    +0.105 C 
BRANCH  14  18
ATOM      1  O   UNL     1      -1.475   0.549   0.951  0.00  0.00    -0.420 OA
ATOM      4  N   UNL     1      -1.778   2.594   1.806  0.00  0.00    -0.112 NA
ATOM      5  N   UNL     1      -3.020   2.071   1.500  0.00  0.00    -0.107 NA
ATOM     18  C   UNL     1      -0.907   1.672   1.470  0.00  0.00    +0.218 A 
ATOM     21  C   UNL     1      -2.795   0.877   1.004  0.00  0.00    +0.248 A 
BRANCH  21  22
ATOM     22  C   UNL     1      -3.708  -0.117   0.518  0.00  0.00    +0.038 A 
ATOM     24  C   UNL     1      -5.080   0.130   0.532  0.00  0.00    +0.013 A 
ATOM     25  C   UNL     1      -3.223  -1.330   0.029  0.00  0.00    +0.013 A 
ATOM     26  C   UNL     1      -5.968  -0.836   0.059  0.00  0.00    +0.004 A 
ATOM     27  C   UNL     1      -4.111  -2.296  -0.444  0.00  0.00    +0.004 A 
ATOM     28  C   UNL     1      -5.483  -2.049  -0.429  0.00  0.00    -0.050 A 
ATOM     29  C   UNL     1      -6.433  -3.082  -0.935  0.00  0.00    +0.044 C 
ENDBRANCH  21  22
ENDBRANCH  14  18
ENDBRANCH   9  14
TORSDOF 9
