REMARK  Name = 51137843
REMARK  3 active torsions:
REMARK  status: ('A' for Active; 'I' for Inactive)
REMARK    1  A    between atoms: C_9  and  C_13
REMARK    2  A    between atoms: C_14  and  C_15
REMARK    3  A    between atoms: C_16  and  C_17
REMARK                            x       y       z     vdW  Elec       q    Type
REMARK                         _______ _______ _______ _____ _____    ______ ____
ROOT
ATOM      2  O   UNL     1       2.591  -0.098   2.460  0.00  0.00    -0.268 OA
ATOM      3  N   UNL     1       1.795   1.288   0.775  0.00  0.00    -0.295 N 
ATOM      9  C   UNL     1       0.427   2.674  -0.594  0.00  0.00    +0.095 C 
ATOM     10  C   UNL     1       0.693   3.374   0.748  0.00  0.00    +0.033 C 
ATOM     11  C   UNL     1       1.544   1.621  -0.629  0.00  0.00    +0.121 C 
ATOM     12  C   UNL     1       1.159   2.249   1.662  0.00  0.00    +0.109 C 
ATOM     14  C   UNL     1       2.466   0.181   1.269  0.00  0.00    +0.266 C 
ENDROOT
BRANCH  14  15
ATOM      6  N   UNL     1       3.994  -0.227  -0.536  0.00  0.00    -0.247 NA
ATOM      7  N   UNL     1       3.226  -2.922  -0.660  0.00  0.00    -0.259 NA
ATOM     15  C   UNL     1       3.064  -0.743   0.292  0.00  0.00    +0.144 A 
ATOM     18  C   UNL     1       2.687  -2.067   0.231  0.00  0.00    +0.143 A 
ATOM     21  C   UNL     1       4.533  -1.082  -1.428  0.00  0.00    +0.131 A 
ATOM     22  C   UNL     1       4.155  -2.406  -1.489  0.00  0.00    +0.130 A 
ENDBRANCH  14  15
BRANCH   9  13
ATOM      1  O   UNL     1      -1.219   0.886  -0.246  0.00  0.00    -0.420 OA
ATOM      4  N   UNL     1      -2.079   2.754  -1.126  0.00  0.00    -0.112 NA
ATOM      5  N   UNL     1      -3.104   1.838  -0.985  0.00  0.00    -0.107 NA
ATOM     13  C   UNL     1      -0.998   2.156  -0.683  0.00  0.00    +0.222 A 
ATOM     16  C   UNL     1      -2.557   0.763  -0.468  0.00  0.00    +0.250 A 
BRANCH  16  17
ATOM      8  N   UNL     1      -5.104  -1.899   0.033  0.00  0.00    -0.263 NA
ATOM     17  C   UNL     1      -3.139  -0.497  -0.107  0.00  0.00    +0.057 A 
ATOM     19  C   UNL     1      -2.365  -1.516   0.435  0.00  0.00    +0.016 A 
ATOM     20  C   UNL     1      -4.492  -0.736  -0.286  0.00  0.00    +0.124 A 
ATOM     23  C   UNL     1      -2.958  -2.727   0.775  0.00  0.00    +0.020 A 
ATOM     24  C   UNL     1      -4.319  -2.866   0.557  0.00  0.00    +0.111 A 
ENDBRANCH  16  17
ENDBRANCH   9  13
TORSDOF 3
