REMARK  Name = 45783894
REMARK  12 active torsions:
REMARK  status: ('A' for Active; 'I' for Inactive)
REMARK    1  A    between atoms: S_1  and  N_6
REMARK    2  A    between atoms: S_1  and  C_27
REMARK    3  A    between atoms: O_5  and  C_34
REMARK    4  A    between atoms: O_5  and  C_38
REMARK    5  A    between atoms: N_6  and  C_17
REMARK    6  A    between atoms: C_10  and  C_14
REMARK    7  A    between atoms: C_11  and  C_17
REMARK    8  A    between atoms: C_13  and  C_18
REMARK    9  A    between atoms: C_14  and  C_19
REMARK   10  A    between atoms: C_14  and  C_20
REMARK   11  A    between atoms: C_15  and  C_21
REMARK   12  A    between atoms: C_18  and  C_22
REMARK                            x       y       z     vdW  Elec       q    Type
REMARK                         _______ _______ _______ _____ _____    ______ ____
ROOT
ATOM     10  C   UNL     1       2.967  -0.586   1.073  0.00  0.00    +0.000 C 
ATOM     11  C   UNL     1       4.359  -0.536   0.397  0.00  0.00    +0.030 C 
ATOM     12  C   UNL     1       2.545  -2.041   1.325  0.00  0.00    +0.012 C 
ATOM     13  C   UNL     1       2.485  -2.864   0.024  0.00  0.00    +0.023 C 
ATOM     15  C   UNL     1       3.719  -2.655  -0.831  0.00  0.00    -0.073 C 
ATOM     16  C   UNL     1       4.552  -1.616  -0.641  0.00  0.00    -0.023 C 
ATOM     21  C   UNL     1       3.998  -3.694  -1.882  0.00  0.00    +0.039 C 
ENDROOT
BRANCH  10  14
ATOM     14  C   UNL     1       2.946   0.195   2.391  0.00  0.00    -0.013 C 
ATOM     19  C   UNL     1       3.934  -0.409   3.383  0.00  0.00    +0.007 C 
ATOM     20  C   UNL     1       1.537   0.216   2.975  0.00  0.00    +0.007 C 
ENDBRANCH  10  14
BRANCH  11  17
ATOM     17  C   UNL     1       4.617   0.835  -0.239  0.00  0.00    +0.113 C 
BRANCH  17   6
ATOM      6  N   UNL     1       3.669   1.037  -1.346  0.00  0.00    -0.189 NA
ATOM     39  H   UNL     1       3.663   0.326  -2.087  0.00  0.00    +0.148 HD
BRANCH   6   1
ATOM      1  S   UNL     1       3.146   2.607  -1.751  0.00  0.00    +0.058 S 
ATOM      3  O   UNL     1       2.715   2.625  -3.136  0.00  0.00    -0.153 OA
ATOM      4  O   UNL     1       4.122   3.570  -1.278  0.00  0.00    -0.153 OA
BRANCH   1  27
ATOM     27  C   UNL     1       1.712   2.783  -0.732  0.00  0.00    +0.105 A 
ATOM     29  C   UNL     1       0.462   2.396  -1.215  0.00  0.00    +0.032 A 
ATOM     30  C   UNL     1       1.831   3.311   0.553  0.00  0.00    +0.032 A 
ATOM     32  C   UNL     1      -0.670   2.537  -0.412  0.00  0.00    +0.047 A 
ATOM     33  C   UNL     1       0.699   3.453   1.356  0.00  0.00    +0.047 A 
ATOM     34  C   UNL     1      -0.551   3.065   0.873  0.00  0.00    +0.120 A 
BRANCH  34   5
ATOM      5  O   UNL     1      -1.656   3.203   1.657  0.00  0.00    -0.495 OA
ATOM     38  C   UNL     1      -2.902   2.788   1.100  0.00  0.00    +0.277 C 
ENDBRANCH  34   5
ENDBRANCH   1  27
ENDBRANCH   6   1
ENDBRANCH  17   6
ENDBRANCH  11  17
BRANCH  13  18
ATOM     18  C   UNL     1       1.210  -2.554  -0.768  0.00  0.00    +0.103 C 
BRANCH  18  22
ATOM      2  O   UNL     1       0.175  -4.265   0.512  0.00  0.00    -0.276 OA
ATOM      7  N   UNL     1      -1.201  -2.554  -0.248  0.00  0.00    -0.298 N 
ATOM      8  N   UNL     1      -3.744  -1.172  -0.296  0.00  0.00    -0.312 N 
ATOM      9  N   UNL     1      -5.549  -0.207  -1.475  0.00  0.00    -0.240 NA
ATOM     22  C   UNL     1       0.023  -3.208  -0.105  0.00  0.00    +0.216 C 
ATOM     23  C   UNL     1      -1.378  -1.293  -0.973  0.00  0.00    +0.126 C 
ATOM     24  C   UNL     1      -2.399  -3.126   0.360  0.00  0.00    +0.126 C 
ATOM     25  C   UNL     1      -2.820  -1.070  -1.428  0.00  0.00    +0.125 C 
ATOM     26  C   UNL     1      -3.378  -2.048   0.820  0.00  0.00    +0.125 C 
ATOM     28  C   UNL     1      -4.956  -0.484  -0.292  0.00  0.00    +0.121 A 
ATOM     31  C   UNL     1      -5.478  -0.126   0.941  0.00  0.00    +0.043 A 
ATOM     35  C   UNL     1      -6.686   0.561   0.961  0.00  0.00    +0.005 A 
ATOM     36  C   UNL     1      -6.723   0.462  -1.415  0.00  0.00    +0.113 A 
ATOM     37  C   UNL     1      -7.327   0.864  -0.236  0.00  0.00    +0.020 A 
ENDBRANCH  18  22
ENDBRANCH  13  18
TORSDOF 8
