REMARK  Name = 11885044
REMARK  17 active torsions:
REMARK  status: ('A' for Active; 'I' for Inactive)
REMARK    1  A    between atoms: O_2  and  C_15
REMARK    2  A    between atoms: O_3  and  C_20
REMARK    3  A    between atoms: N_7  and  C_26
REMARK    4  A    between atoms: N_9  and  C_28
REMARK    5  A    between atoms: N_9  and  C_34
REMARK    6  A    between atoms: N_9  and  C_35
REMARK    7  A    between atoms: C_10  and  C_18
REMARK    8  A    between atoms: C_12  and  C_20
REMARK    9  A    between atoms: C_12  and  C_21
REMARK   10  A    between atoms: C_13  and  C_23
REMARK   11  A    between atoms: C_23  and  C_24
REMARK   12  A    between atoms: C_26  and  C_28
REMARK   13  A    between atoms: C_27  and  C_29
REMARK   14  A    between atoms: C_29  and  C_30
REMARK   15  A    between atoms: C_30  and  C_31
REMARK   16  A    between atoms: C_30  and  C_32
REMARK   17  A    between atoms: C_30  and  C_33
REMARK                            x       y       z     vdW  Elec       q    Type
REMARK                         _______ _______ _______ _____ _____    ______ ____
ROOT
ATOM      1  S   UNL     1      -0.388   3.047  -0.436  0.00  0.00    -0.057 S 
ATOM      5  O   UNL     1       3.575   0.604  -0.643  0.00  0.00    -0.275 OA
ATOM      6  N   UNL     1       0.623   0.667  -0.379  0.00  0.00    -0.229 NA
ATOM      8  N   UNL     1       2.169   2.498  -0.632  0.00  0.00    -0.265 N 
ATOM     10  C   UNL     1      -2.903  -0.670   0.427  0.00  0.00    -0.019 C 
ATOM     11  C   UNL     1      -3.617   0.493  -0.393  0.00  0.00    +0.011 C 
ATOM     12  C   UNL     1      -5.192   0.549  -0.332  0.00  0.00    +0.021 C 
ATOM     13  C   UNL     1      -1.407  -0.809  -0.116  0.00  0.00    +0.054 C 
ATOM     14  C   UNL     1      -3.642  -2.010   0.171  0.00  0.00    +0.010 C 
ATOM     15  C   UNL     1      -5.765  -0.878  -0.561  0.00  0.00    +0.123 C 
ATOM     16  C   UNL     1      -2.931   1.868  -0.146  0.00  0.00    +0.049 C 
ATOM     17  C   UNL     1      -5.150  -1.928   0.357  0.00  0.00    +0.032 C 
ATOM     18  C   UNL     1      -2.875  -0.401   1.952  0.00  0.00    +0.012 C 
ATOM     19  C   UNL     1      -0.747   0.541  -0.237  0.00  0.00    +0.058 A 
ATOM     21  C   UNL     1      -5.713   1.448  -1.489  0.00  0.00    +0.016 C 
ATOM     22  C   UNL     1      -1.451   1.728  -0.267  0.00  0.00    +0.015 A 
ATOM     25  C   UNL     1       0.926   1.942  -0.485  0.00  0.00    +0.165 A 
ATOM     27  C   UNL     1       3.396   1.817  -0.702  0.00  0.00    +0.219 C 
ATOM     39  H   UNL     1       2.178   3.513  -0.692  0.00  0.00    +0.157 HD
ENDROOT
BRANCH  15   2
ATOM      2  O   UNL     1      -7.181  -0.886  -0.384  0.00  0.00    -0.391 OA
ATOM     36  H   UNL     1      -7.585  -0.479  -1.168  0.00  0.00    +0.210 HD
ENDBRANCH  15   2
BRANCH  12  20
ATOM     20  C   UNL     1      -5.761   1.169   0.964  0.00  0.00    +0.165 C 
BRANCH  20   3
ATOM      3  O   UNL     1      -7.168   1.159   0.866  0.00  0.00    -0.394 OA
ATOM     37  H   UNL     1      -7.444   1.977   0.418  0.00  0.00    +0.209 HD
ENDBRANCH  20   3
ENDBRANCH  12  20
BRANCH  13  23
ATOM     23  C   UNL     1      -0.531  -1.793   0.672  0.00  0.00    +0.106 C 
BRANCH  23  24
ATOM      4  O   UNL     1       1.009  -1.924  -1.189  0.00  0.00    -0.276 OA
ATOM      7  N   UNL     1       1.789  -2.276   0.972  0.00  0.00    -0.314 N 
ATOM     24  C   UNL     1       0.818  -1.997   0.021  0.00  0.00    +0.214 C 
ATOM     38  H   UNL     1       1.530  -2.338   1.952  0.00  0.00    +0.149 HD
BRANCH   7  26
ATOM     26  C   UNL     1       3.174  -2.519   0.637  0.00  0.00    +0.119 C 
BRANCH  26  28
ATOM     28  C   UNL     1       3.428  -3.998   0.383  0.00  0.00    +0.102 C 
BRANCH  28   9
ATOM      9  N   UNL     1       4.822  -4.218   0.020  0.00  0.00    -0.307 NA
ATOM     34  C   UNL     1       5.172  -3.444  -1.173  0.00  0.00    +0.104 C 
ATOM     35  C   UNL     1       5.079  -5.641  -0.205  0.00  0.00    +0.104 C 
ENDBRANCH  28   9
ENDBRANCH  26  28
ENDBRANCH   7  26
ENDBRANCH  23  24
ENDBRANCH  13  23
BRANCH  27  29
ATOM     29  C   UNL     1       4.583   2.759  -0.860  0.00  0.00    +0.102 C 
BRANCH  29  30
ATOM     30  C   UNL     1       5.273   3.162   0.466  0.00  0.00    -0.029 C 
ATOM     31  C   UNL     1       5.784   1.925   1.222  0.00  0.00    +0.011 C 
ATOM     32  C   UNL     1       6.481   4.056   0.122  0.00  0.00    +0.011 C 
ATOM     33  C   UNL     1       4.324   3.958   1.377  0.00  0.00    +0.011 C 
ENDBRANCH  29  30
ENDBRANCH  27  29
TORSDOF 10
