REMARK  Name = 51137794
REMARK  5 active torsions:
REMARK  status: ('A' for Active; 'I' for Inactive)
REMARK    1  A    between atoms: O_5  and  C_27
REMARK    2  A    between atoms: O_5  and  C_29
REMARK    3  A    between atoms: N_8  and  C_17
REMARK    4  A    between atoms: C_10  and  C_14
REMARK    5  A    between atoms: C_16  and  C_18
REMARK                            x       y       z     vdW  Elec       q    Type
REMARK                         _______ _______ _______ _____ _____    ______ ____
ROOT
ATOM      4  O   UNL     1       1.976  -1.206   1.988  0.00  0.00    -0.252 OA
ATOM      6  N   UNL     1       0.895  -2.366   0.329  0.00  0.00    -0.285 N 
ATOM      8  N   UNL     1       2.630  -0.900  -0.231  0.00  0.00    -0.267 N 
ATOM     10  C   UNL     1      -1.113  -3.641   0.352  0.00  0.00    +0.096 C 
ATOM     11  C   UNL     1      -0.347  -3.921  -0.949  0.00  0.00    +0.033 C 
ATOM     12  C   UNL     1      -0.017  -3.045   1.243  0.00  0.00    +0.122 C 
ATOM     13  C   UNL     1       0.641  -2.765  -1.054  0.00  0.00    +0.110 C 
ATOM     15  C   UNL     1       1.859  -1.460   0.788  0.00  0.00    +0.307 C 
ATOM     30  H   UNL     1       2.422  -1.167  -1.188  0.00  0.00    +0.156 HD
ENDROOT
BRANCH   8  17
ATOM      1  F   UNL     1       3.974   0.089  -2.464  0.00  0.00    -0.203 F 
ATOM      2  F   UNL     1       6.739   2.792   0.262  0.00  0.00    -0.205 F 
ATOM     17  C   UNL     1       3.680   0.043  -0.107  0.00  0.00    +0.070 A 
ATOM     19  C   UNL     1       4.332   0.519  -1.245  0.00  0.00    +0.147 A 
ATOM     20  C   UNL     1       4.062   0.496   1.156  0.00  0.00    +0.029 A 
ATOM     25  C   UNL     1       5.365   1.448  -1.120  0.00  0.00    +0.078 A 
ATOM     26  C   UNL     1       5.095   1.425   1.281  0.00  0.00    +0.040 A 
ATOM     28  C   UNL     1       5.746   1.901   0.143  0.00  0.00    +0.126 A 
ENDBRANCH   8  17
BRANCH  10  14
ATOM      3  O   UNL     1      -2.163  -1.427   0.194  0.00  0.00    -0.420 OA
ATOM      7  N   UNL     1      -3.565  -3.127  -0.192  0.00  0.00    -0.112 NA
ATOM      9  N   UNL     1      -4.279  -1.949  -0.312  0.00  0.00    -0.107 NA
ATOM     14  C   UNL     1      -2.336  -2.774   0.103  0.00  0.00    +0.222 A 
ATOM     16  C   UNL     1      -3.421  -0.983  -0.078  0.00  0.00    +0.248 A 
BRANCH  16  18
ATOM     18  C   UNL     1      -3.601   0.439  -0.067  0.00  0.00    +0.039 A 
ATOM     21  C   UNL     1      -4.856   0.986  -0.335  0.00  0.00    +0.017 A 
ATOM     22  C   UNL     1      -2.521   1.277   0.214  0.00  0.00    +0.017 A 
ATOM     23  C   UNL     1      -5.031   2.370  -0.323  0.00  0.00    +0.046 A 
ATOM     24  C   UNL     1      -2.696   2.660   0.226  0.00  0.00    +0.046 A 
ATOM     27  C   UNL     1      -3.951   3.207  -0.042  0.00  0.00    +0.120 A 
BRANCH  27   5
ATOM      5  O   UNL     1      -4.122   4.557  -0.028  0.00  0.00    -0.495 OA
ATOM     29  C   UNL     1      -2.976   5.354   0.267  0.00  0.00    +0.277 C 
ENDBRANCH  27   5
ENDBRANCH  16  18
ENDBRANCH  10  14
TORSDOF 4
