REMARK  Name = 11884011
REMARK  6 active torsions:
REMARK  status: ('A' for Active; 'I' for Inactive)
REMARK    1  A    between atoms: S_2  and  N_9
REMARK    2  A    between atoms: S_2  and  C_17
REMARK    3  A    between atoms: O_5  and  C_14
REMARK    4  A    between atoms: O_5  and  C_18
REMARK    5  A    between atoms: N_9  and  C_13
REMARK    6  A    between atoms: N_10  and  C_21
REMARK                            x       y       z     vdW  Elec       q    Type
REMARK                         _______ _______ _______ _____ _____    ______ ____
ROOT
ATOM      3  O   UNL     1       0.284   0.472   1.189  0.00  0.00    -0.369 OA
ATOM      4  O   UNL     1       2.089  -1.930   0.533  0.00  0.00    -0.368 OA
ATOM     11  C   UNL     1       2.093  -0.567   0.059  0.00  0.00    +0.171 C 
ATOM     12  C   UNL     1       0.643  -0.140  -0.061  0.00  0.00    +0.191 C 
ATOM     13  C   UNL     1       2.656   0.345   1.120  0.00  0.00    +0.133 C 
ATOM     14  C   UNL     1      -0.071  -1.454  -0.266  0.00  0.00    +0.235 C 
ATOM     15  C   UNL     1       1.455   0.610   2.008  0.00  0.00    +0.183 C 
ATOM     16  C   UNL     1       0.733  -2.393   0.604  0.00  0.00    +0.207 C 
ENDROOT
BRANCH  13   9
ATOM      9  N   UNL     1       3.115   1.614   0.506  0.00  0.00    -0.182 NA
ATOM     34  H   UNL     1       2.542   2.014  -0.246  0.00  0.00    +0.148 HD
BRANCH   9   2
ATOM      2  S   UNL     1       4.708   2.144   0.754  0.00  0.00    +0.059 S 
ATOM      6  O   UNL     1       4.982   2.202   2.178  0.00  0.00    -0.153 OA
ATOM      7  O   UNL     1       4.950   3.303  -0.083  0.00  0.00    -0.153 OA
BRANCH   2  17
ATOM      1 CL   UNL     1       8.031  -2.577  -1.658  0.00  0.00    -0.084 Cl
ATOM     17  C   UNL     1       5.647   0.810   0.073  0.00  0.00    +0.105 A 
ATOM     19  C   UNL     1       6.019  -0.242   0.891  0.00  0.00    +0.030 A 
ATOM     20  C   UNL     1       5.994   0.843  -1.267  0.00  0.00    +0.030 A 
ATOM     22  C   UNL     1       6.760  -1.295   0.353  0.00  0.00    +0.022 A 
ATOM     23  C   UNL     1       6.734  -0.209  -1.805  0.00  0.00    +0.022 A 
ATOM     25  C   UNL     1       7.117  -1.278  -0.995  0.00  0.00    +0.041 A 
ENDBRANCH   2  17
ENDBRANCH   9   2
ENDBRANCH  13   9
BRANCH  14   5
ATOM      5  O   UNL     1      -1.431  -1.419   0.105  0.00  0.00    -0.442 OA
BRANCH   5  18
ATOM      8  O   UNL     1      -1.836   0.147  -1.511  0.00  0.00    -0.226 OA
ATOM     10  N   UNL     1      -3.539  -0.650  -0.117  0.00  0.00    -0.251 N 
ATOM     18  C   UNL     1      -2.249  -0.561  -0.601  0.00  0.00    +0.405 C 
ATOM     35  H   UNL     1      -3.653  -1.307   0.646  0.00  0.00    +0.158 HD
BRANCH  10  21
ATOM     21  C   UNL     1      -4.684   0.055  -0.555  0.00  0.00    +0.044 A 
ATOM     24  C   UNL     1      -5.932  -0.145   0.040  0.00  0.00    +0.003 A 
ATOM     26  C   UNL     1      -4.510   0.952  -1.601  0.00  0.00    +0.024 A 
ATOM     27  C   UNL     1      -7.042   0.589  -0.441  0.00  0.00    -0.016 A 
ATOM     28  C   UNL     1      -6.114  -1.050   1.099  0.00  0.00    +0.010 A 
ATOM     29  C   UNL     1      -5.602   1.674  -2.074  0.00  0.00    +0.002 A 
ATOM     30  C   UNL     1      -6.861   1.494  -1.499  0.00  0.00    +0.008 A 
ATOM     31  C   UNL     1      -8.302   0.396   0.150  0.00  0.00    +0.008 A 
ATOM     32  C   UNL     1      -7.372  -1.230   1.673  0.00  0.00    +0.001 A 
ATOM     33  C   UNL     1      -8.464  -0.508   1.200  0.00  0.00    +0.001 A 
ENDBRANCH  10  21
ENDBRANCH   5  18
ENDBRANCH  14   5
TORSDOF 6
