REMARK  Name = 25390483
REMARK  9 active torsions:
REMARK  status: ('A' for Active; 'I' for Inactive)
REMARK    1  A    between atoms: O_2  and  C_9
REMARK    2  A    between atoms: O_3  and  C_10
REMARK    3  A    between atoms: N_7  and  C_19
REMARK    4  A    between atoms: C_8  and  C_12
REMARK    5  A    between atoms: C_11  and  C_19
REMARK    6  A    between atoms: C_12  and  C_18
REMARK    7  A    between atoms: C_13  and  C_20
REMARK    8  A    between atoms: C_21  and  C_22
REMARK    9  A    between atoms: C_27  and  C_28
REMARK                            x       y       z     vdW  Elec       q    Type
REMARK                         _______ _______ _______ _____ _____    ______ ____
ROOT
ATOM      1  O   UNL     1      -2.655   0.817   0.926  0.00  0.00    -0.366 OA
ATOM      8  C   UNL     1      -2.224   1.820  -0.023  0.00  0.00    +0.159 C 
ATOM      9  C   UNL     1      -3.201   1.753  -1.192  0.00  0.00    +0.175 C 
ATOM     10  C   UNL     1      -3.638   0.303  -1.155  0.00  0.00    +0.176 C 
ATOM     11  C   UNL     1      -3.721   0.048   0.341  0.00  0.00    +0.167 C 
ENDROOT
BRANCH   9   2
ATOM      2  O   UNL     1      -4.303   2.611  -0.898  0.00  0.00    -0.387 OA
ATOM     29  H   UNL     1      -3.971   3.525  -0.908  0.00  0.00    +0.210 HD
ENDBRANCH   9   2
BRANCH  10   3
ATOM      3  O   UNL     1      -4.872   0.075  -1.801  0.00  0.00    -0.387 OA
ATOM     30  H   UNL     1      -4.781   0.378  -2.720  0.00  0.00    +0.210 HD
ENDBRANCH  10   3
BRANCH   8  12
ATOM     12  C   UNL     1      -0.791   1.496  -0.424  0.00  0.00    +0.130 C 
BRANCH  12  18
ATOM      4  O   UNL     1      -0.291   2.480   1.673  0.00  0.00    -0.276 OA
ATOM      6  N   UNL     1       1.511   1.664   0.455  0.00  0.00    -0.301 N 
ATOM     13  C   UNL     1       4.247   2.240  -0.319  0.00  0.00    -0.011 C 
ATOM     14  C   UNL     1       3.174   1.867  -1.354  0.00  0.00    +0.022 C 
ATOM     15  C   UNL     1       3.596   2.897   0.907  0.00  0.00    +0.022 C 
ATOM     16  C   UNL     1       2.075   1.008  -0.730  0.00  0.00    +0.108 C 
ATOM     17  C   UNL     1       2.491   2.016   1.485  0.00  0.00    +0.108 C 
ATOM     18  C   UNL     1       0.158   1.926   0.666  0.00  0.00    +0.218 C 
ATOM     20  C   UNL     1       5.298   3.160  -0.935  0.00  0.00    +0.007 C 
ENDBRANCH  12  18
ENDBRANCH   8  12
BRANCH  11  19
ATOM     19  C   UNL     1      -3.559  -1.415   0.712  0.00  0.00    +0.138 C 
BRANCH  19   7
ATOM      5  O   UNL     1      -1.107  -1.407   2.206  0.00  0.00    -0.270 OA
ATOM      7  N   UNL     1      -2.291  -1.922   0.278  0.00  0.00    -0.309 N 
ATOM     21  C   UNL     1      -1.148  -1.877   1.072  0.00  0.00    +0.244 C 
ATOM     31  H   UNL     1      -2.266  -2.374  -0.630  0.00  0.00    +0.149 HD
BRANCH  21  22
ATOM     22  C   UNL     1       0.095  -2.420   0.467  0.00  0.00    +0.037 A 
ATOM     23  C   UNL     1       1.101  -2.939   1.283  0.00  0.00    +0.013 A 
ATOM     24  C   UNL     1       0.257  -2.412  -0.919  0.00  0.00    +0.013 A 
ATOM     25  C   UNL     1       2.268  -3.448   0.714  0.00  0.00    +0.004 A 
ATOM     26  C   UNL     1       1.424  -2.921  -1.488  0.00  0.00    +0.004 A 
ATOM     27  C   UNL     1       2.430  -3.439  -0.671  0.00  0.00    -0.050 A 
ATOM     28  C   UNL     1       3.678  -3.983  -1.279  0.00  0.00    +0.044 C 
ENDBRANCH  21  22
ENDBRANCH  19   7
ENDBRANCH  11  19
TORSDOF 7
