REMARK  Name = 40779644
REMARK  6 active torsions:
REMARK  status: ('A' for Active; 'I' for Inactive)
REMARK    1  A    between atoms: N_6  and  C_15
REMARK    2  A    between atoms: N_7  and  C_16
REMARK    3  A    between atoms: C_9  and  C_15
REMARK    4  A    between atoms: C_10  and  C_16
REMARK    5  A    between atoms: C_21  and  C_22
REMARK    6  A    between atoms: C_27  and  C_28
REMARK                            x       y       z     vdW  Elec       q    Type
REMARK                         _______ _______ _______ _____ _____    ______ ____
ROOT
ATOM     16  C   UNL     1       0.743   0.755  -1.308  0.00  0.00    +0.123 C 
ENDROOT
BRANCH  16  10
ATOM      5  N   UNL     1       2.679   2.182  -0.595  0.00  0.00    -0.298 NA
ATOM      8  C   UNL     1       2.866   1.085   1.756  0.00  0.00    -0.003 C 
ATOM      9  C   UNL     1       3.971   0.559   0.813  0.00  0.00    +0.020 C 
ATOM     10  C   UNL     1       1.368   1.603  -0.197  0.00  0.00    +0.074 C 
ATOM     11  C   UNL     1       1.487   0.816   1.127  0.00  0.00    +0.024 C 
ATOM     12  C   UNL     1       3.725   1.131  -0.602  0.00  0.00    +0.089 C 
ATOM     13  C   UNL     1       3.039   2.614   1.839  0.00  0.00    +0.019 C 
ATOM     14  C   UNL     1       3.054   3.200   0.416  0.00  0.00    +0.085 C 
BRANCH   9  15
ATOM     15  C   UNL     1       4.073  -0.965   0.794  0.00  0.00    +0.089 C 
BRANCH  15   6
ATOM      6  N   UNL     1       5.168  -1.405  -0.057  0.00  0.00    -0.302 NA
ATOM     17  C   UNL     1       6.469  -1.287   0.600  0.00  0.00    +0.084 C 
ATOM     18  C   UNL     1       5.055  -2.816  -0.427  0.00  0.00    +0.084 C 
ATOM     19  C   UNL     1       7.374  -2.138  -0.278  0.00  0.00    +0.017 C 
ATOM     20  C   UNL     1       6.444  -3.140  -0.956  0.00  0.00    +0.017 C 
ENDBRANCH  15   6
ENDBRANCH   9  15
ENDBRANCH  16  10
BRANCH  16   7
ATOM      4  O   UNL     1      -1.724   2.134  -1.816  0.00  0.00    -0.270 OA
ATOM      7  N   UNL     1      -0.569   0.320  -0.941  0.00  0.00    -0.310 N 
ATOM     21  C   UNL     1      -1.718   1.055  -1.228  0.00  0.00    +0.244 C 
ATOM     29  H   UNL     1      -0.631  -0.534  -0.399  0.00  0.00    +0.149 HD
BRANCH  21  22
ATOM     22  C   UNL     1      -3.004   0.479  -0.756  0.00  0.00    +0.037 A 
ATOM     23  C   UNL     1      -4.083   1.318  -0.476  0.00  0.00    +0.013 A 
ATOM     24  C   UNL     1      -3.133  -0.900  -0.593  0.00  0.00    +0.013 A 
ATOM     25  C   UNL     1      -5.290   0.778  -0.032  0.00  0.00    +0.013 A 
ATOM     26  C   UNL     1      -4.340  -1.440  -0.150  0.00  0.00    +0.013 A 
ATOM     27  C   UNL     1      -5.418  -0.601   0.131  0.00  0.00    +0.055 A 
BRANCH  27  28
ATOM      1  F   UNL     1      -7.273  -2.055  -0.278  0.00  0.00    -0.166 F 
ATOM      2  F   UNL     1      -7.658  -0.227   0.833  0.00  0.00    -0.166 F 
ATOM      3  F   UNL     1      -6.599  -1.875   1.776  0.00  0.00    -0.166 F 
ATOM     28  C   UNL     1      -6.708  -1.180   0.605  0.00  0.00    +0.417 C 
ENDBRANCH  27  28
ENDBRANCH  21  22
ENDBRANCH  16   7
TORSDOF 6
