REMARK  Name = 45783323
REMARK  8 active torsions:
REMARK  status: ('A' for Active; 'I' for Inactive)
REMARK    1  A    between atoms: N_3  and  C_12
REMARK    2  A    between atoms: C_9  and  C_15
REMARK    3  A    between atoms: C_12  and  C_14
REMARK    4  A    between atoms: C_14  and  C_16
REMARK    5  A    between atoms: C_14  and  C_17
REMARK    6  A    between atoms: C_14  and  C_18
REMARK    7  A    between atoms: C_19  and  C_26
REMARK    8  A    between atoms: C_25  and  C_27
REMARK                            x       y       z     vdW  Elec       q    Type
REMARK                         _______ _______ _______ _____ _____    ______ ____
ROOT
ATOM      4  N   UNL     1       3.934  -0.366  -0.137  0.00  0.00    -0.315 N 
ATOM      7  N   UNL     1       2.935  -0.483  -2.280  0.00  0.00    -0.240 NA
ATOM     19  C   UNL     1       6.272  -0.535   1.577  0.00  0.00    +0.078 C 
ATOM     20  C   UNL     1       5.123   0.428   1.868  0.00  0.00    +0.031 C 
ATOM     21  C   UNL     1       5.804  -1.718   0.732  0.00  0.00    +0.031 C 
ATOM     22  C   UNL     1       4.349   0.827   0.612  0.00  0.00    +0.107 C 
ATOM     23  C   UNL     1       4.999  -1.304  -0.502  0.00  0.00    +0.107 C 
ATOM     24  C   UNL     1       2.803  -0.254  -0.954  0.00  0.00    +0.122 A 
ATOM     27  C   UNL     1       0.477   0.207  -1.140  0.00  0.00    +0.027 A 
ATOM     28  C   UNL     1       1.609   0.090  -0.341  0.00  0.00    +0.055 A 
ATOM     29  C   UNL     1       0.573  -0.021  -2.508  0.00  0.00    +0.031 A 
ATOM     30  C   UNL     1       1.813  -0.360  -3.024  0.00  0.00    +0.113 A 
ENDROOT
BRANCH  27  25
ATOM      1  O   UNL     1      -2.296   1.088   0.861  0.00  0.00    -0.336 OA
ATOM      5  N   UNL     1      -1.916   0.682  -1.308  0.00  0.00    -0.190 NA
ATOM      6  N   UNL     1      -0.932   0.788   0.754  0.00  0.00    -0.056 NA
ATOM     15  C   UNL     1      -2.800   1.003  -0.398  0.00  0.00    +0.245 A 
ATOM     25  C   UNL     1      -0.785   0.560  -0.554  0.00  0.00    +0.202 A 
BRANCH  15   9
ATOM      3  N   UNL     1      -5.118   0.405   0.280  0.00  0.00    -0.291 NA
ATOM      9  C   UNL     1      -4.279   1.289  -0.553  0.00  0.00    +0.146 C 
ATOM     10  C   UNL     1      -4.658   2.715  -0.115  0.00  0.00    +0.030 C 
ATOM     11  C   UNL     1      -6.326   1.165   0.602  0.00  0.00    +0.085 C 
ATOM     13  C   UNL     1      -5.758   2.534   0.920  0.00  0.00    +0.017 C 
BRANCH   3  12
ATOM     12  C   UNL     1      -5.427  -0.867  -0.362  0.00  0.00    +0.091 C 
BRANCH  12  14
ATOM     14  C   UNL     1      -5.789  -2.003   0.628  0.00  0.00    -0.025 C 
ATOM     16  C   UNL     1      -7.073  -1.600   1.378  0.00  0.00    +0.012 C 
ATOM     17  C   UNL     1      -4.669  -2.222   1.661  0.00  0.00    +0.012 C 
ATOM     18  C   UNL     1      -6.051  -3.321  -0.122  0.00  0.00    +0.012 C 
ENDBRANCH  12  14
ENDBRANCH   3  12
ENDBRANCH  15   9
ENDBRANCH  27  25
BRANCH  19  26
ATOM      2  O   UNL     1       7.859  -0.148  -0.170  0.00  0.00    -0.276 OA
ATOM      8  N   UNL     1       7.910   1.230   1.673  0.00  0.00    -0.329 N 
ATOM     26  C   UNL     1       7.414   0.188   0.925  0.00  0.00    +0.214 C 
ATOM     31  H   UNL     1       8.682   1.791   1.329  0.00  0.00    +0.145 HD
ATOM     32  H   UNL     1       7.571   1.453   2.602  0.00  0.00    +0.145 HD
ENDBRANCH  19  26
TORSDOF 5
