REMARK  Name = 7155623
REMARK  7 active torsions:
REMARK  status: ('A' for Active; 'I' for Inactive)
REMARK    1  A    between atoms: S_1  and  C_26
REMARK    2  A    between atoms: S_1  and  C_31
REMARK    3  A    between atoms: N_8  and  C_22
REMARK    4  A    between atoms: N_9  and  C_20
REMARK    5  A    between atoms: C_23  and  C_26
REMARK    6  A    between atoms: C_29  and  C_30
REMARK    7  A    between atoms: C_30  and  C_32
REMARK                            x       y       z     vdW  Elec       q    Type
REMARK                         _______ _______ _______ _____ _____    ______ ____
ROOT
ATOM      2  O   UNL     1      -1.420   2.419   1.895  0.00  0.00    -0.266 OA
ATOM      3  O   UNL     1      -1.380  -2.662   1.795  0.00  0.00    -0.252 OA
ATOM      6  N   UNL     1      -2.883  -1.999   0.169  0.00  0.00    -0.284 N 
ATOM      7  N   UNL     1      -2.604   1.131   0.347  0.00  0.00    -0.310 N 
ATOM      8  N   UNL     1      -0.673  -2.580  -0.414  0.00  0.00    -0.269 N 
ATOM     10  C   UNL     1      -4.565  -0.377   1.014  0.00  0.00    +0.027 C 
ATOM     11  C   UNL     1      -3.837  -0.280  -1.339  0.00  0.00    +0.054 C 
ATOM     12  C   UNL     1      -5.047  -0.138  -0.414  0.00  0.00    +0.018 C 
ATOM     13  C   UNL     1      -3.948  -1.784   1.150  0.00  0.00    +0.114 C 
ATOM     14  C   UNL     1      -3.567   0.729   1.383  0.00  0.00    +0.130 C 
ATOM     15  C   UNL     1      -3.279  -1.711  -1.221  0.00  0.00    +0.119 C 
ATOM     16  C   UNL     1      -2.758   0.725  -0.984  0.00  0.00    +0.027 A 
ATOM     17  C   UNL     1      -1.930   1.192  -1.933  0.00  0.00    +0.024 A 
ATOM     18  C   UNL     1      -1.584   2.019   0.741  0.00  0.00    +0.273 A 
ATOM     19  C   UNL     1      -1.618  -2.447   0.603  0.00  0.00    +0.306 C 
ATOM     20  C   UNL     1      -0.666   2.495  -0.342  0.00  0.00    +0.099 A 
ATOM     21  C   UNL     1      -0.863   2.093  -1.602  0.00  0.00    +0.030 A 
ATOM     33  H   UNL     1      -1.000  -2.803  -1.347  0.00  0.00    +0.156 HD
ENDROOT
BRANCH   8  22
ATOM     22  C   UNL     1       0.731  -2.427  -0.308  0.00  0.00    +0.035 A 
ATOM     24  C   UNL     1       1.307  -2.107   0.921  0.00  0.00    +0.024 A 
ATOM     25  C   UNL     1       1.537  -2.594  -1.434  0.00  0.00    +0.024 A 
ATOM     27  C   UNL     1       2.690  -1.955   1.025  0.00  0.00    +0.013 A 
ATOM     28  C   UNL     1       2.920  -2.442  -1.330  0.00  0.00    +0.013 A 
ATOM     29  C   UNL     1       3.496  -2.123  -0.101  0.00  0.00    +0.017 A 
BRANCH  29  30
ATOM      5  O   UNL     1       5.720  -2.598  -0.729  0.00  0.00    -0.292 OA
ATOM     30  C   UNL     1       4.938  -1.965   0.008  0.00  0.00    +0.160 C 
ATOM     32  C   UNL     1       5.531  -1.011   1.040  0.00  0.00    +0.091 C 
ENDBRANCH  29  30
ENDBRANCH   8  22
BRANCH  20   9
ATOM      4  O   UNL     1       1.880   2.709  -1.633  0.00  0.00    -0.275 OA
ATOM      9  N   UNL     1       0.346   3.342   0.003  0.00  0.00    -0.281 N 
ATOM     23  C   UNL     1       1.559   3.403  -0.669  0.00  0.00    +0.227 C 
ATOM     34  H   UNL     1       0.282   3.778   0.919  0.00  0.00    +0.155 HD
BRANCH  23  26
ATOM     26  C   UNL     1       2.502   4.427  -0.081  0.00  0.00    +0.164 C 
BRANCH  26   1
ATOM      1  S   UNL     1       4.023   3.595   0.433  0.00  0.00    -0.155 S 
ATOM     31  C   UNL     1       3.443   2.921   2.007  0.00  0.00    +0.085 C 
ENDBRANCH  26   1
ENDBRANCH  23  26
ENDBRANCH  20   9
TORSDOF 5
