REMARK  Name = 75536715
REMARK  9 active torsions:
REMARK  status: ('A' for Active; 'I' for Inactive)
REMARK    1  A    between atoms: S_1  and  N_7
REMARK    2  A    between atoms: S_1  and  C_17
REMARK    3  A    between atoms: O_3  and  C_11
REMARK    4  A    between atoms: N_6  and  C_10
REMARK    5  A    between atoms: N_6  and  C_15
REMARK    6  A    between atoms: N_7  and  C_14
REMARK    7  A    between atoms: C_12  and  C_14
REMARK    8  A    between atoms: C_15  and  C_16
REMARK    9  A    between atoms: C_24  and  C_25
REMARK                            x       y       z     vdW  Elec       q    Type
REMARK                         _______ _______ _______ _____ _____    ______ ____
ROOT
ATOM      2  O   UNL     1      -0.517   1.426  -1.290  0.00  0.00    -0.371 OA
ATOM     10  C   UNL     1      -2.442   1.020   0.041  0.00  0.00    +0.111 C 
ATOM     11  C   UNL     1      -1.204   0.650   0.836  0.00  0.00    +0.164 C 
ATOM     12  C   UNL     1      -0.133   1.439   0.095  0.00  0.00    +0.164 C 
ATOM     13  C   UNL     1      -1.897   1.029  -1.378  0.00  0.00    +0.181 C 
ENDROOT
BRANCH  11   3
ATOM      3  O   UNL     1      -1.293   1.031   2.195  0.00  0.00    -0.388 OA
ATOM     28  H   UNL     1      -1.467   1.986   2.234  0.00  0.00    +0.210 HD
ENDBRANCH  11   3
BRANCH  10   6
ATOM      6  N   UNL     1      -3.547   0.092   0.216  0.00  0.00    -0.304 NA
ATOM     26  H   UNL     1      -3.652  -0.115   1.210  0.00  0.00    +0.123 HD
BRANCH   6  15
ATOM     15  C   UNL     1      -4.794   0.659  -0.284  0.00  0.00    +0.136 C 
BRANCH  15  16
ATOM      8  N   UNL     1      -6.694  -0.735  -1.182  0.00  0.00    -0.347 N 
ATOM      9  N   UNL     1      -7.556  -1.708   0.618  0.00  0.00    -0.244 NA
ATOM     16  C   UNL     1      -5.947  -0.296  -0.125  0.00  0.00    +0.049 A 
ATOM     18  C   UNL     1      -6.498  -0.910   0.975  0.00  0.00    +0.134 A 
ATOM     21  C   UNL     1      -7.647  -1.580  -0.687  0.00  0.00    +0.196 A 
ATOM     29  H   UNL     1      -6.567  -0.483  -2.153  0.00  0.00    +0.167 HD
ENDBRANCH  15  16
ENDBRANCH   6  15
ENDBRANCH  10   6
BRANCH  12  14
ATOM     14  C   UNL     1       1.259   0.851   0.247  0.00  0.00    +0.140 C 
BRANCH  14   7
ATOM      7  N   UNL     1       2.229   1.675  -0.500  0.00  0.00    -0.187 NA
ATOM     27  H   UNL     1       2.044   1.781  -1.506  0.00  0.00    +0.148 HD
BRANCH   7   1
ATOM      1  S   UNL     1       3.835   1.806   0.045  0.00  0.00    +0.058 S 
ATOM      4  O   UNL     1       3.839   2.241   1.429  0.00  0.00    -0.153 OA
ATOM      5  O   UNL     1       4.614   2.522  -0.947  0.00  0.00    -0.153 OA
BRANCH   1  17
ATOM     17  C   UNL     1       4.370   0.121   0.002  0.00  0.00    +0.105 A 
ATOM     19  C   UNL     1       4.955  -0.395  -1.154  0.00  0.00    +0.029 A 
ATOM     20  C   UNL     1       4.204  -0.692   1.123  0.00  0.00    +0.029 A 
ATOM     22  C   UNL     1       5.375  -1.725  -1.189  0.00  0.00    +0.005 A 
ATOM     23  C   UNL     1       4.623  -2.022   1.088  0.00  0.00    +0.005 A 
ATOM     24  C   UNL     1       5.208  -2.539  -0.068  0.00  0.00    -0.050 A 
ATOM     25  C   UNL     1       5.657  -3.961  -0.106  0.00  0.00    +0.044 C 
ENDBRANCH   1  17
ENDBRANCH   7   1
ENDBRANCH  14   7
ENDBRANCH  12  14
TORSDOF 8
