REMARK  Name = 26744892
REMARK  6 active torsions:
REMARK  status: ('A' for Active; 'I' for Inactive)
REMARK    1  A    between atoms: O_2  and  C_30
REMARK    2  A    between atoms: N_4  and  C_14
REMARK    3  A    between atoms: C_9  and  C_15
REMARK    4  A    between atoms: C_14  and  C_16
REMARK    5  A    between atoms: C_20  and  C_21
REMARK    6  A    between atoms: C_24  and  C_30
REMARK                            x       y       z     vdW  Elec       q    Type
REMARK                         _______ _______ _______ _____ _____    ______ ____
ROOT
ATOM      4  N   UNL     1      -2.220  -1.152   0.397  0.00  0.00    -0.281 NA
ATOM      5  N   UNL     1      -4.751  -3.177  -1.489  0.00  0.00    -0.347 N 
ATOM      6  N   UNL     1      -3.036  -4.545  -1.920  0.00  0.00    -0.240 NA
ATOM      9  C   UNL     1      -1.346  -2.338   0.699  0.00  0.00    +0.152 C 
ATOM     10  C   UNL     1      -1.306  -3.370  -0.483  0.00  0.00    +0.086 C 
ATOM     11  C   UNL     1      -3.635  -1.545   0.135  0.00  0.00    +0.140 C 
ATOM     12  C   UNL     1      -3.690  -2.704  -0.779  0.00  0.00    +0.053 A 
ATOM     13  C   UNL     1      -2.656  -3.560  -1.053  0.00  0.00    +0.065 A 
ATOM     17  C   UNL     1      -4.306  -4.289  -2.162  0.00  0.00    +0.197 A 
ATOM     35  H   UNL     1      -5.686  -2.792  -1.516  0.00  0.00    +0.167 HD
ENDROOT
BRANCH   9  15
ATOM      1  O   UNL     1       0.526  -2.334   2.285  0.00  0.00    -0.336 OA
ATOM      7  N   UNL     1       0.991  -1.352   0.326  0.00  0.00    -0.190 NA
ATOM      8  N   UNL     1       1.855  -1.898   2.373  0.00  0.00    -0.056 NA
ATOM     15  C   UNL     1       0.093  -1.973   1.048  0.00  0.00    +0.245 A 
ATOM     20  C   UNL     1       2.055  -1.330   1.180  0.00  0.00    +0.202 A 
BRANCH  20  21
ATOM     21  C   UNL     1       3.306  -0.732   0.810  0.00  0.00    +0.023 A 
ATOM     25  C   UNL     1       3.456  -0.154  -0.451  0.00  0.00    +0.020 A 
ATOM     26  C   UNL     1       4.368  -0.729   1.710  0.00  0.00    +0.012 A 
ATOM     27  C   UNL     1       4.674   0.435  -0.828  0.00  0.00    -0.017 A 
ATOM     28  C   UNL     1       5.754   0.438   0.087  0.00  0.00    -0.018 A 
ATOM     29  C   UNL     1       5.585  -0.148   1.352  0.00  0.00    +0.009 A 
ATOM     31  C   UNL     1       4.843   1.022  -2.092  0.00  0.00    +0.008 A 
ATOM     32  C   UNL     1       6.972   1.028  -0.290  0.00  0.00    +0.008 A 
ATOM     33  C   UNL     1       6.060   1.603  -2.450  0.00  0.00    +0.001 A 
ATOM     34  C   UNL     1       7.122   1.606  -1.551  0.00  0.00    +0.001 A 
ENDBRANCH  20  21
ENDBRANCH   9  15
BRANCH   4  14
ATOM     14  C   UNL     1      -2.214  -0.163   1.484  0.00  0.00    +0.120 C 
BRANCH  14  16
ATOM     16  C   UNL     1      -2.564   1.215   0.990  0.00  0.00    -0.033 A 
ATOM     18  C   UNL     1      -1.618   1.967   0.294  0.00  0.00    +0.006 A 
ATOM     19  C   UNL     1      -3.835   1.740   1.228  0.00  0.00    +0.006 A 
ATOM     22  C   UNL     1      -1.942   3.244  -0.165  0.00  0.00    +0.015 A 
ATOM     23  C   UNL     1      -4.159   3.017   0.769  0.00  0.00    +0.015 A 
ATOM     24  C   UNL     1      -3.212   3.769   0.073  0.00  0.00    +0.059 A 
BRANCH  24  30
ATOM      3  O   UNL     1      -2.795   5.850  -1.030  0.00  0.00    -0.245 OA
ATOM     30  C   UNL     1      -3.551   5.100  -0.405  0.00  0.00    +0.337 C 
BRANCH  30   2
ATOM      2  O   UNL     1      -4.826   5.457  -0.090  0.00  0.00    -0.477 OA
ATOM     36  H   UNL     1      -5.045   6.356  -0.417  0.00  0.00    +0.295 HD
ENDBRANCH  30   2
ENDBRANCH  24  30
ENDBRANCH  14  16
ENDBRANCH   4  14
TORSDOF 6
