REMARK  Name = 44716627
REMARK  11 active torsions:
REMARK  status: ('A' for Active; 'I' for Inactive)
REMARK    1  A    between atoms: O_2  and  C_10
REMARK    2  A    between atoms: O_4  and  C_26
REMARK    3  A    between atoms: O_4  and  C_27
REMARK    4  A    between atoms: N_6  and  C_24
REMARK    5  A    between atoms: N_7  and  C_25
REMARK    6  A    between atoms: C_8  and  C_16
REMARK    7  A    between atoms: C_11  and  C_17
REMARK    8  A    between atoms: C_13  and  C_20
REMARK    9  A    between atoms: C_17  and  C_21
REMARK   10  A    between atoms: C_17  and  C_22
REMARK   11  A    between atoms: C_24  and  C_26
REMARK                            x       y       z     vdW  Elec       q    Type
REMARK                         _______ _______ _______ _____ _____    ______ ____
ROOT
ATOM      1  S   UNL     1       4.551  -2.030   0.492  0.00  0.00    -0.057 S 
ATOM      5  N   UNL     1       4.653   0.392  -0.407  0.00  0.00    -0.229 NA
ATOM      7  N   UNL     1       6.740  -0.710  -0.246  0.00  0.00    -0.327 N 
ATOM      8  C   UNL     1       0.740  -0.554   0.958  0.00  0.00    -0.022 C 
ATOM      9  C   UNL     1       0.807   0.456  -0.255  0.00  0.00    +0.033 C 
ATOM     10  C   UNL     1      -0.352   1.490  -0.196  0.00  0.00    +0.123 C 
ATOM     11  C   UNL     1      -1.738   0.826  -0.043  0.00  0.00    +0.029 C 
ATOM     12  C   UNL     1      -0.668  -1.191   1.027  0.00  0.00    +0.008 C 
ATOM     13  C   UNL     1       2.238   1.121  -0.393  0.00  0.00    +0.042 C 
ATOM     14  C   UNL     1      -1.786  -0.163   1.122  0.00  0.00    +0.007 C 
ATOM     15  C   UNL     1       1.765  -1.710   0.739  0.00  0.00    +0.051 C 
ATOM     16  C   UNL     1       1.046   0.139   2.311  0.00  0.00    +0.012 C 
ATOM     18  C   UNL     1       3.323   0.096  -0.164  0.00  0.00    +0.057 A 
ATOM     19  C   UNL     1       3.093  -1.163   0.352  0.00  0.00    +0.015 A 
ATOM     20  C   UNL     1       2.454   1.819  -1.743  0.00  0.00    +0.014 C 
ATOM     23  C   UNL     1       5.388  -0.657  -0.109  0.00  0.00    +0.158 A 
ATOM     25  C   UNL     1       7.565   0.387  -0.740  0.00  0.00    +0.127 C 
ATOM     30  H   UNL     1       7.235  -1.560   0.009  0.00  0.00    +0.148 HD
ENDROOT
BRANCH  10   2
ATOM      2  O   UNL     1      -0.377   2.245  -1.407  0.00  0.00    -0.391 OA
ATOM     28  H   UNL     1      -0.522   1.627  -2.144  0.00  0.00    +0.210 HD
ENDBRANCH  10   2
BRANCH  11  17
ATOM     17  C   UNL     1      -2.854   1.865   0.119  0.00  0.00    +0.077 C 
ATOM     21  C   UNL     1      -2.598   2.721   1.355  0.00  0.00    +0.017 C 
BRANCH  17  22
ATOM      3  O   UNL     1      -4.973   1.330   1.173  0.00  0.00    -0.276 OA
ATOM      6  N   UNL     1      -4.492   0.401  -0.895  0.00  0.00    -0.313 N 
ATOM     22  C   UNL     1      -4.217   1.188   0.214  0.00  0.00    +0.216 C 
ATOM     29  H   UNL     1      -3.842   0.376  -1.674  0.00  0.00    +0.149 HD
BRANCH   6  24
ATOM     24  C   UNL     1      -5.714  -0.341  -1.031  0.00  0.00    +0.132 C 
BRANCH  24  26
ATOM     26  C   UNL     1      -5.588  -1.735  -0.447  0.00  0.00    +0.178 C 
BRANCH  26   4
ATOM      4  O   UNL     1      -4.580  -2.452  -1.148  0.00  0.00    -0.381 OA
ATOM     27  C   UNL     1      -4.428  -3.770  -0.639  0.00  0.00    +0.194 C 
ENDBRANCH  26   4
ENDBRANCH  24  26
ENDBRANCH   6  24
ENDBRANCH  17  22
ENDBRANCH  11  17
TORSDOF 6
