REMARK  Name = 7134499
REMARK  14 active torsions:
REMARK  status: ('A' for Active; 'I' for Inactive)
REMARK    1  A    between atoms: O_1  and  C_20
REMARK    2  A    between atoms: O_2  and  C_22
REMARK    3  A    between atoms: O_3  and  C_23
REMARK    4  A    between atoms: O_5  and  C_27
REMARK    5  A    between atoms: N_9  and  C_18
REMARK    6  A    between atoms: N_10  and  C_28
REMARK    7  A    between atoms: C_12  and  C_17
REMARK    8  A    between atoms: C_12  and  C_19
REMARK    9  A    between atoms: C_17  and  C_25
REMARK   10  A    between atoms: C_19  and  C_27
REMARK   11  A    between atoms: C_20  and  C_26
REMARK   12  A    between atoms: C_28  and  C_29
REMARK   13  A    between atoms: C_28  and  C_30
REMARK   14  A    between atoms: C_29  and  C_31
REMARK                            x       y       z     vdW  Elec       q    Type
REMARK                         _______ _______ _______ _____ _____    ______ ____
ROOT
ATOM     18  C   UNL     1      -0.794  -2.524  -0.026  0.00  0.00    +0.107 C 
ATOM     20  C   UNL     1       1.720  -2.161  -0.100  0.00  0.00    +0.146 C 
ATOM     21  C   UNL     1       0.345  -1.500   0.014  0.00  0.00    +0.069 C 
ATOM     22  C   UNL     1      -0.605  -3.631   1.020  0.00  0.00    +0.163 C 
ATOM     23  C   UNL     1       0.778  -4.281   0.924  0.00  0.00    +0.148 C 
ATOM     24  C   UNL     1       1.903  -3.245   0.959  0.00  0.00    +0.078 C 
ENDROOT
BRANCH  18   9
ATOM      4  O   UNL     1      -2.474  -1.340  -2.063  0.00  0.00    -0.276 OA
ATOM      9  N   UNL     1      -2.062  -1.854   0.165  0.00  0.00    -0.310 N 
ATOM     25  C   UNL     1      -2.798  -1.315  -0.878  0.00  0.00    +0.214 C 
ATOM     37  H   UNL     1      -2.381  -1.721   1.120  0.00  0.00    +0.149 HD
BRANCH  25  17
ATOM     17  C   UNL     1      -4.082  -0.679  -0.382  0.00  0.00    +0.103 C 
BRANCH  17  12
ATOM     12  C   UNL     1      -4.150   0.820  -0.681  0.00  0.00    -0.011 C 
ATOM     13  C   UNL     1      -4.074   1.099  -2.188  0.00  0.00    +0.008 C 
ATOM     14  C   UNL     1      -5.524   1.406  -0.326  0.00  0.00    +0.008 C 
ATOM     15  C   UNL     1      -4.717   2.472  -2.371  0.00  0.00    +0.001 C 
ATOM     16  C   UNL     1      -5.648   2.669  -1.175  0.00  0.00    +0.001 C 
BRANCH  12  19
ATOM     19  C   UNL     1      -3.023   1.540   0.078  0.00  0.00    +0.127 C 
BRANCH  19  27
ATOM      7  O   UNL     1      -4.025   1.535   2.301  0.00  0.00    -0.251 OA
ATOM     27  C   UNL     1      -3.098   1.268   1.552  0.00  0.00    +0.305 C 
BRANCH  27   5
ATOM      5  O   UNL     1      -1.952   0.662   1.956  0.00  0.00    -0.481 OA
ATOM     42  H   UNL     1      -1.961   0.464   2.917  0.00  0.00    +0.295 HD
ENDBRANCH  27   5
ENDBRANCH  19  27
ENDBRANCH  12  19
ENDBRANCH  17  12
ENDBRANCH  25  17
ENDBRANCH  18   9
BRANCH  20  26
ATOM      6  O   UNL     1       3.646  -1.177   0.913  0.00  0.00    -0.273 OA
ATOM     10  N   UNL     1       2.729  -0.172  -0.976  0.00  0.00    -0.301 N 
ATOM     26  C   UNL     1       2.810  -1.136   0.014  0.00  0.00    +0.246 C 
ATOM     41  H   UNL     1       2.042  -0.276  -1.716  0.00  0.00    +0.150 HD
BRANCH  10  28
ATOM     28  C   UNL     1       3.648   0.939  -1.075  0.00  0.00    +0.163 C 
BRANCH  28  30
ATOM      8  O   UNL     1       3.892   0.333  -3.416  0.00  0.00    -0.274 OA
ATOM     11  N   UNL     1       5.691   1.256  -2.327  0.00  0.00    -0.328 N 
ATOM     30  C   UNL     1       4.397   0.785  -2.391  0.00  0.00    +0.231 C 
ATOM     43  H   UNL     1       6.088   1.650  -1.480  0.00  0.00    +0.145 HD
ATOM     44  H   UNL     1       6.297   1.226  -3.141  0.00  0.00    +0.145 HD
ENDBRANCH  28  30
BRANCH  28  29
ATOM     29  C   UNL     1       2.930   2.292  -1.024  0.00  0.00    +0.067 C 
BRANCH  29  31
ATOM     31  C   UNL     1       2.558   2.703   0.380  0.00  0.00    -0.045 A 
ATOM     32  C   UNL     1       1.323   2.332   0.911  0.00  0.00    +0.004 A 
ATOM     33  C   UNL     1       3.450   3.454   1.146  0.00  0.00    +0.004 A 
ATOM     34  C   UNL     1       0.980   2.712   2.209  0.00  0.00    +0.000 A 
ATOM     35  C   UNL     1       3.107   3.833   2.444  0.00  0.00    +0.000 A 
ATOM     36  C   UNL     1       1.871   3.462   2.975  0.00  0.00    +0.000 A 
ENDBRANCH  29  31
ENDBRANCH  28  29
ENDBRANCH  10  28
ENDBRANCH  20  26
BRANCH  20   1
ATOM      1  O   UNL     1       1.890  -2.737  -1.390  0.00  0.00    -0.379 OA
ATOM     38  H   UNL     1       2.728  -3.230  -1.399  0.00  0.00    +0.211 HD
ENDBRANCH  20   1
BRANCH  22   2
ATOM      2  O   UNL     1      -1.580  -4.654   0.800  0.00  0.00    -0.387 OA
ATOM     39  H   UNL     1      -1.459  -4.996  -0.102  0.00  0.00    +0.210 HD
ENDBRANCH  22   2
BRANCH  23   3
ATOM      3  O   UNL     1       0.936  -5.171   2.029  0.00  0.00    -0.389 OA
ATOM     40  H   UNL     1       1.812  -5.586   1.947  0.00  0.00    +0.210 HD
ENDBRANCH  23   3
TORSDOF 14
