REMARK  Name = 26744176
REMARK  9 active torsions:
REMARK  status: ('A' for Active; 'I' for Inactive)
REMARK    1  A    between atoms: O_1  and  C_11
REMARK    2  A    between atoms: O_3  and  C_27
REMARK    3  A    between atoms: O_3  and  C_30
REMARK    4  A    between atoms: N_5  and  C_13
REMARK    5  A    between atoms: N_8  and  C_21
REMARK    6  A    between atoms: C_9  and  C_14
REMARK    7  A    between atoms: C_13  and  C_15
REMARK    8  A    between atoms: C_18  and  C_22
REMARK    9  A    between atoms: C_28  and  C_29
REMARK                            x       y       z     vdW  Elec       q    Type
REMARK                         _______ _______ _______ _____ _____    ______ ____
ROOT
ATOM      5  N   UNL     1       3.523   0.395   0.655  0.00  0.00    -0.285 NA
ATOM      9  C   UNL     1       3.479  -0.548  -0.481  0.00  0.00    +0.149 C 
ATOM     10  C   UNL     1       4.377  -1.723  -0.052  0.00  0.00    +0.061 C 
ATOM     11  C   UNL     1       4.915  -1.329   1.317  0.00  0.00    +0.130 C 
ATOM     12  C   UNL     1       4.808   0.184   1.319  0.00  0.00    +0.116 C 
ENDROOT
BRANCH   9  14
ATOM      2  O   UNL     1       1.844  -1.343  -2.115  0.00  0.00    -0.336 OA
ATOM      6  N   UNL     1       1.015  -1.064  -0.053  0.00  0.00    -0.190 NA
ATOM      7  N   UNL     1       0.492  -1.698  -2.188  0.00  0.00    -0.056 NA
ATOM     14  C   UNL     1       2.070  -0.982  -0.824  0.00  0.00    +0.245 A 
ATOM     18  C   UNL     1       0.072  -1.508  -0.934  0.00  0.00    +0.202 A 
BRANCH  18  22
ATOM     22  C   UNL     1      -1.282  -1.752  -0.528  0.00  0.00    +0.023 A 
ATOM     23  C   UNL     1      -1.663  -1.536   0.797  0.00  0.00    +0.015 A 
ATOM     24  C   UNL     1      -2.217  -2.206  -1.457  0.00  0.00    +0.015 A 
ATOM     25  C   UNL     1      -2.980  -1.776   1.191  0.00  0.00    +0.046 A 
ATOM     26  C   UNL     1      -3.534  -2.446  -1.063  0.00  0.00    +0.046 A 
ATOM     27  C   UNL     1      -3.915  -2.230   0.262  0.00  0.00    +0.120 A 
BRANCH  27   3
ATOM      3  O   UNL     1      -5.199  -2.464   0.646  0.00  0.00    -0.495 OA
ATOM     30  C   UNL     1      -5.521  -2.222   2.015  0.00  0.00    +0.277 C 
ENDBRANCH  27   3
ENDBRANCH  18  22
ENDBRANCH   9  14
BRANCH  11   1
ATOM      1  O   UNL     1       6.253  -1.761   1.474  0.00  0.00    -0.390 OA
ATOM     31  H   UNL     1       6.260  -2.729   1.387  0.00  0.00    +0.210 HD
ENDBRANCH  11   1
BRANCH   5  13
ATOM     13  C   UNL     1       3.332   1.783   0.258  0.00  0.00    +0.120 C 
BRANCH  13  15
ATOM     15  C   UNL     1       1.880   2.107   0.029  0.00  0.00    -0.033 A 
ATOM     16  C   UNL     1       1.457   2.577  -1.214  0.00  0.00    +0.007 A 
ATOM     17  C   UNL     1       0.957   1.938   1.061  0.00  0.00    +0.007 A 
ATOM     19  C   UNL     1       0.112   2.879  -1.425  0.00  0.00    +0.023 A 
ATOM     20  C   UNL     1      -0.389   2.239   0.850  0.00  0.00    +0.023 A 
ATOM     21  C   UNL     1      -0.811   2.710  -0.393  0.00  0.00    +0.033 A 
BRANCH  21   8
ATOM      4  O   UNL     1      -3.170   2.529   1.470  0.00  0.00    -0.276 OA
ATOM      8  N   UNL     1      -2.157   3.011  -0.604  0.00  0.00    -0.286 N 
ATOM     28  C   UNL     1      -3.220   2.906   0.303  0.00  0.00    +0.214 C 
ATOM     29  C   UNL     1      -4.528   3.331  -0.316  0.00  0.00    +0.109 C 
ATOM     32  H   UNL     1      -2.385   3.348  -1.537  0.00  0.00    +0.155 HD
ENDBRANCH  21   8
ENDBRANCH  13  15
ENDBRANCH   5  13
TORSDOF 7
