REMARK  Name = 26744182
REMARK  7 active torsions:
REMARK  status: ('A' for Active; 'I' for Inactive)
REMARK    1  A    between atoms: O_1  and  C_14
REMARK    2  A    between atoms: O_3  and  C_22
REMARK    3  A    between atoms: O_3  and  C_23
REMARK    4  A    between atoms: N_4  and  C_10
REMARK    5  A    between atoms: C_7  and  C_10
REMARK    6  A    between atoms: C_11  and  C_15
REMARK    7  A    between atoms: C_16  and  C_17
REMARK                            x       y       z     vdW  Elec       q    Type
REMARK                         _______ _______ _______ _____ _____    ______ ____
ROOT
ATOM      2  O   UNL     1      -0.776  -1.924   1.647  0.00  0.00    -0.336 OA
ATOM      5  N   UNL     1      -0.191  -0.472   0.045  0.00  0.00    -0.190 NA
ATOM      6  N   UNL     1       0.623  -1.864   1.667  0.00  0.00    -0.056 NA
ATOM     15  C   UNL     1      -1.175  -1.075   0.663  0.00  0.00    +0.245 A 
ATOM     16  C   UNL     1       0.892  -0.988   0.695  0.00  0.00    +0.202 A 
ENDROOT
BRANCH  16  17
ATOM     17  C   UNL     1       2.231  -0.607   0.348  0.00  0.00    +0.023 A 
ATOM     18  C   UNL     1       2.451   0.312  -0.677  0.00  0.00    +0.015 A 
ATOM     19  C   UNL     1       3.312  -1.158   1.036  0.00  0.00    +0.015 A 
ATOM     20  C   UNL     1       3.753   0.681  -1.015  0.00  0.00    +0.046 A 
ATOM     21  C   UNL     1       4.614  -0.789   0.698  0.00  0.00    +0.046 A 
ATOM     22  C   UNL     1       4.835   0.130  -0.328  0.00  0.00    +0.120 A 
BRANCH  22   3
ATOM      3  O   UNL     1       6.106   0.489  -0.657  0.00  0.00    -0.495 OA
ATOM     23  C   UNL     1       6.260   1.434  -1.715  0.00  0.00    +0.277 C 
ENDBRANCH  22   3
ENDBRANCH  16  17
BRANCH  15  11
ATOM      4  N   UNL     1      -3.056   0.354  -0.120  0.00  0.00    -0.289 NA
ATOM     11  C   UNL     1      -2.667  -0.957   0.437  0.00  0.00    +0.148 C 
ATOM     12  C   UNL     1      -4.258   0.125  -0.920  0.00  0.00    +0.116 C 
ATOM     13  C   UNL     1      -3.200  -1.988  -0.575  0.00  0.00    +0.061 C 
ATOM     14  C   UNL     1      -3.911  -1.164  -1.641  0.00  0.00    +0.130 C 
BRANCH  14   1
ATOM      1  O   UNL     1      -5.068  -1.834  -2.104  0.00  0.00    -0.390 OA
ATOM     24  H   UNL     1      -4.782  -2.682  -2.484  0.00  0.00    +0.210 HD
ENDBRANCH  14   1
BRANCH   4  10
ATOM     10  C   UNL     1      -3.263   1.374   0.900  0.00  0.00    +0.088 C 
BRANCH  10   7
ATOM      7  C   UNL     1      -3.133   2.748   0.329  0.00  0.00    +0.003 C 
ATOM      8  C   UNL     1      -1.765   3.316   0.086  0.00  0.00    +0.005 C 
ATOM      9  C   UNL     1      -2.615   3.857   1.198  0.00  0.00    +0.005 C 
ENDBRANCH  10   7
ENDBRANCH   4  10
ENDBRANCH  15  11
TORSDOF 6
