REMARK  Name = 45360665
REMARK  11 active torsions:
REMARK  status: ('A' for Active; 'I' for Inactive)
REMARK    1  A    between atoms: O_3  and  C_35
REMARK    2  A    between atoms: O_3  and  C_36
REMARK    3  A    between atoms: N_5  and  C_10
REMARK    4  A    between atoms: N_5  and  C_18
REMARK    5  A    between atoms: N_7  and  C_27
REMARK    6  A    between atoms: N_8  and  C_26
REMARK    7  A    between atoms: C_12  and  C_16
REMARK    8  A    between atoms: C_16  and  C_17
REMARK    9  A    between atoms: C_17  and  C_20
REMARK   10  A    between atoms: C_18  and  C_19
REMARK   11  A    between atoms: C_26  and  C_30
REMARK                            x       y       z     vdW  Elec       q    Type
REMARK                         _______ _______ _______ _____ _____    ______ ____
ROOT
ATOM      1  O   UNL     1      -1.288  -2.446   2.520  0.00  0.00    -0.274 OA
ATOM      4  N   UNL     1      -1.024   0.819   0.911  0.00  0.00    -0.286 NA
ATOM      6  N   UNL     1      -1.819  -0.384   3.318  0.00  0.00    -0.313 N 
ATOM      9  C   UNL     1      -1.125  -0.645   0.941  0.00  0.00    +0.145 C 
ATOM     10  C   UNL     1       1.027   0.140   0.137  0.00  0.00    +0.070 C 
ATOM     11  C   UNL     1       0.226  -1.136   0.397  0.00  0.00    +0.048 C 
ATOM     12  C   UNL     1      -1.989   1.506   1.763  0.00  0.00    +0.075 C 
ATOM     13  C   UNL     1       0.388   1.157   1.072  0.00  0.00    +0.104 C 
ATOM     14  C   UNL     1      -1.850   1.056   3.209  0.00  0.00    +0.123 C 
ATOM     15  C   UNL     1      -1.393  -1.232   2.324  0.00  0.00    +0.230 C 
ATOM     38  H   UNL     1      -2.015  -0.790   4.228  0.00  0.00    +0.149 HD
ENDROOT
BRANCH  10   5
ATOM      5  N   UNL     1       2.455  -0.029   0.352  0.00  0.00    -0.308 NA
ATOM     37  H   UNL     1       2.882   0.887   0.486  0.00  0.00    +0.123 HD
BRANCH   5  18
ATOM     18  C   UNL     1       3.083  -0.682  -0.790  0.00  0.00    +0.118 C 
BRANCH  18  19
ATOM      7  N   UNL     1       6.518  -1.836  -0.172  0.00  0.00    -0.349 N 
ATOM     19  C   UNL     1       4.557  -0.880  -0.583  0.00  0.00    -0.008 A 
ATOM     21  C   UNL     1       5.565   0.121  -0.665  0.00  0.00    +0.004 A 
ATOM     22  C   UNL     1       5.173  -2.072  -0.279  0.00  0.00    +0.091 A 
ATOM     23  C   UNL     1       6.786  -0.505  -0.403  0.00  0.00    +0.049 A 
ATOM     24  C   UNL     1       5.557   1.503  -0.938  0.00  0.00    +0.010 A 
ATOM     25  C   UNL     1       8.003   0.185  -0.400  0.00  0.00    +0.026 A 
ATOM     27  C   UNL     1       7.501  -2.850   0.142  0.00  0.00    +0.149 C 
ATOM     28  C   UNL     1       6.767   2.206  -0.938  0.00  0.00    +0.001 A 
ATOM     29  C   UNL     1       7.970   1.555  -0.673  0.00  0.00    +0.002 A 
ENDBRANCH  18  19
ENDBRANCH   5  18
ENDBRANCH  10   5
BRANCH  12  16
ATOM     16  C   UNL     1      -1.902   3.028   1.651  0.00  0.00    +0.029 C 
BRANCH  16  17
ATOM     17  C   UNL     1      -1.998   3.480   0.200  0.00  0.00    +0.097 C 
BRANCH  17  20
ATOM      2  O   UNL     1      -4.409   3.440  -0.020  0.00  0.00    -0.276 OA
ATOM      8  N   UNL     1      -3.116   2.250  -1.538  0.00  0.00    -0.311 N 
ATOM     20  C   UNL     1      -3.313   3.074  -0.440  0.00  0.00    +0.213 C 
ATOM     39  H   UNL     1      -2.175   1.973  -1.802  0.00  0.00    +0.149 HD
BRANCH   8  26
ATOM     26  C   UNL     1      -4.213   1.728  -2.317  0.00  0.00    +0.139 C 
BRANCH  26  30
ATOM     30  C   UNL     1      -4.697   0.407  -1.793  0.00  0.00    -0.030 A 
ATOM     31  C   UNL     1      -3.954  -0.750  -2.025  0.00  0.00    +0.009 A 
ATOM     32  C   UNL     1      -5.889   0.338  -1.071  0.00  0.00    +0.009 A 
ATOM     33  C   UNL     1      -4.404  -1.977  -1.537  0.00  0.00    +0.046 A 
ATOM     34  C   UNL     1      -6.338  -0.889  -0.584  0.00  0.00    +0.046 A 
ATOM     35  C   UNL     1      -5.596  -2.047  -0.817  0.00  0.00    +0.120 A 
BRANCH  35   3
ATOM      3  O   UNL     1      -6.034  -3.244  -0.340  0.00  0.00    -0.495 OA
ATOM     36  C   UNL     1      -5.225  -4.387  -0.614  0.00  0.00    +0.277 C 
ENDBRANCH  35   3
ENDBRANCH  26  30
ENDBRANCH   8  26
ENDBRANCH  17  20
ENDBRANCH  16  17
ENDBRANCH  12  16
TORSDOF 9
