REMARK  Name = 7134313
REMARK  13 active torsions:
REMARK  status: ('A' for Active; 'I' for Inactive)
REMARK    1  A    between atoms: S_1  and  N_12
REMARK    2  A    between atoms: S_1  and  C_26
REMARK    3  A    between atoms: O_7  and  C_24
REMARK    4  A    between atoms: O_7  and  C_35
REMARK    5  A    between atoms: O_9  and  C_40
REMARK    6  A    between atoms: N_12  and  C_16
REMARK    7  A    between atoms: N_13  and  C_23
REMARK    8  A    between atoms: C_17  and  C_21
REMARK    9  A    between atoms: C_22  and  C_24
REMARK   10  A    between atoms: C_23  and  C_25
REMARK   11  A    between atoms: C_23  and  C_28
REMARK   12  A    between atoms: C_25  and  C_27
REMARK   13  A    between atoms: C_35  and  C_40
REMARK                            x       y       z     vdW  Elec       q    Type
REMARK                         _______ _______ _______ _____ _____    ______ ____
ROOT
ATOM      4  O   UNL     1      -3.649   2.962   0.811  0.00  0.00    -0.273 OA
ATOM     11  N   UNL     1      -1.612   2.001   0.221  0.00  0.00    -0.288 N 
ATOM     16  C   UNL     1       1.243   2.335  -0.254  0.00  0.00    +0.080 C 
ATOM     17  C   UNL     1      -0.848   0.873  -0.340  0.00  0.00    +0.163 C 
ATOM     18  C   UNL     1       0.435   1.310  -1.050  0.00  0.00    +0.052 C 
ATOM     19  C   UNL     1       0.359   3.506   0.164  0.00  0.00    +0.039 C 
ATOM     20  C   UNL     1      -0.845   3.013   0.957  0.00  0.00    +0.110 C 
ATOM     22  C   UNL     1      -3.010   2.084   0.224  0.00  0.00    +0.242 C 
ENDROOT
BRANCH  17  21
ATOM      3  O   UNL     1       0.096   0.261   1.768  0.00  0.00    -0.274 OA
ATOM     13  N   UNL     1      -1.133  -1.321   0.582  0.00  0.00    -0.302 N 
ATOM     21  C   UNL     1      -0.573  -0.072   0.793  0.00  0.00    +0.234 C 
ATOM     42  H   UNL     1      -1.694  -1.487  -0.248  0.00  0.00    +0.150 HD
BRANCH  13  23
ATOM     23  C   UNL     1      -0.994  -2.417   1.513  0.00  0.00    +0.163 C 
BRANCH  23  28
ATOM      8  O   UNL     1      -3.403  -2.679   1.328  0.00  0.00    -0.274 OA
ATOM     15  N   UNL     1      -2.390  -3.204   3.322  0.00  0.00    -0.328 N 
ATOM     28  C   UNL     1      -2.389  -2.754   2.018  0.00  0.00    +0.231 C 
ATOM     44  H   UNL     1      -1.542  -3.283   3.873  0.00  0.00    +0.145 HD
ATOM     45  H   UNL     1      -3.255  -3.477   3.777  0.00  0.00    +0.145 HD
ENDBRANCH  23  28
BRANCH  23  25
ATOM     25  C   UNL     1      -0.345  -3.648   0.867  0.00  0.00    +0.069 C 
BRANCH  25  27
ATOM     14  N   UNL     1       3.231  -3.161   0.169  0.00  0.00    -0.360 N 
ATOM     27  C   UNL     1       1.026  -3.373   0.320  0.00  0.00    -0.020 A 
ATOM     29  C   UNL     1       1.341  -2.931  -0.995  0.00  0.00    +0.003 A 
ATOM     31  C   UNL     1       2.208  -3.505   1.012  0.00  0.00    +0.087 A 
ATOM     32  C   UNL     1       2.731  -2.806  -1.064  0.00  0.00    +0.047 A 
ATOM     34  C   UNL     1       0.576  -2.624  -2.138  0.00  0.00    +0.010 A 
ATOM     37  C   UNL     1       3.395  -2.388  -2.222  0.00  0.00    +0.026 A 
ATOM     38  C   UNL     1       1.226  -2.205  -3.304  0.00  0.00    +0.001 A 
ATOM     39  C   UNL     1       2.615  -2.090  -3.343  0.00  0.00    +0.002 A 
ATOM     43  H   UNL     1       4.211  -3.170   0.414  0.00  0.00    +0.165 HD
ENDBRANCH  25  27
ENDBRANCH  23  25
ENDBRANCH  13  23
ENDBRANCH  17  21
BRANCH  16  12
ATOM     12  N   UNL     1       2.360   2.835  -1.093  0.00  0.00    -0.186 NA
ATOM     41  H   UNL     1       2.069   3.381  -1.914  0.00  0.00    +0.148 HD
BRANCH  12   1
ATOM      1  S   UNL     1       3.797   3.316  -0.300  0.00  0.00    +0.065 S 
ATOM      5  O   UNL     1       3.481   4.293   0.723  0.00  0.00    -0.153 OA
ATOM      6  O   UNL     1       4.817   3.574  -1.298  0.00  0.00    -0.153 OA
BRANCH   1  26
ATOM      2  S   UNL     1       5.037   0.638  -0.419  0.00  0.00    -0.077 S 
ATOM     26  C   UNL     1       4.421   1.885   0.581  0.00  0.00    +0.142 A 
ATOM     30  C   UNL     1       4.513   1.568   1.918  0.00  0.00    +0.036 A 
ATOM     33  C   UNL     1       5.096   0.284   2.125  0.00  0.00    +0.010 A 
ATOM     36  C   UNL     1       5.428  -0.331   0.938  0.00  0.00    +0.047 A 
ENDBRANCH   1  26
ENDBRANCH  12   1
ENDBRANCH  16  12
BRANCH  22  24
ATOM     24  C   UNL     1      -3.756   1.029  -0.554  0.00  0.00    +0.256 C 
BRANCH  24   7
ATOM      7  O   UNL     1      -5.126   1.293  -0.377  0.00  0.00    -0.359 OA
BRANCH   7  35
ATOM     35  C   UNL     1      -5.947   0.355  -1.071  0.00  0.00    +0.280 C 
BRANCH  35  40
ATOM     10  O   UNL     1      -7.825   1.597  -0.157  0.00  0.00    -0.248 OA
ATOM     40  C   UNL     1      -7.397   0.684  -0.847  0.00  0.00    +0.331 C 
BRANCH  40   9
ATOM      9  O   UNL     1      -8.185  -0.185  -1.528  0.00  0.00    -0.479 OA
ATOM     46  H   UNL     1      -9.139   0.008  -1.400  0.00  0.00    +0.295 HD
ENDBRANCH  40   9
ENDBRANCH  35  40
ENDBRANCH   7  35
ENDBRANCH  24   7
ENDBRANCH  22  24
TORSDOF 13
