REMARK  Name = 44716689
REMARK  14 active torsions:
REMARK  status: ('A' for Active; 'I' for Inactive)
REMARK    1  A    between atoms: O_2  and  C_10
REMARK    2  A    between atoms: N_6  and  C_24
REMARK    3  A    between atoms: N_6  and  C_25
REMARK    4  A    between atoms: C_8  and  C_16
REMARK    5  A    between atoms: C_11  and  C_17
REMARK    6  A    between atoms: C_13  and  C_20
REMARK    7  A    between atoms: C_17  and  C_21
REMARK    8  A    between atoms: C_17  and  C_22
REMARK    9  A    between atoms: C_24  and  C_28
REMARK   10  A    between atoms: C_26  and  C_27
REMARK   11  A    between atoms: C_27  and  C_29
REMARK   12  A    between atoms: C_29  and  C_30
REMARK   13  A    between atoms: C_29  and  C_31
REMARK   14  A    between atoms: C_29  and  C_32
REMARK                            x       y       z     vdW  Elec       q    Type
REMARK                         _______ _______ _______ _____ _____    ______ ____
ROOT
ATOM      1  S   UNL     1       3.197   1.629   1.407  0.00  0.00    -0.057 S 
ATOM      4  O   UNL     1       5.518  -2.086  -0.254  0.00  0.00    -0.275 OA
ATOM      5  N   UNL     1       2.916  -0.606   0.137  0.00  0.00    -0.229 NA
ATOM      7  N   UNL     1       5.151  -0.020   0.825  0.00  0.00    -0.265 N 
ATOM      8  C   UNL     1      -0.716   1.603   0.140  0.00  0.00    -0.022 C 
ATOM      9  C   UNL     1      -0.880   0.032   0.150  0.00  0.00    +0.033 C 
ATOM     10  C   UNL     1      -2.152  -0.410  -0.628  0.00  0.00    +0.123 C 
ATOM     11  C   UNL     1      -3.424   0.330  -0.162  0.00  0.00    +0.029 C 
ATOM     12  C   UNL     1      -2.021   2.266   0.640  0.00  0.00    +0.008 C 
ATOM     13  C   UNL     1       0.439  -0.704  -0.328  0.00  0.00    +0.042 C 
ATOM     14  C   UNL     1      -3.248   1.849  -0.159  0.00  0.00    +0.007 C 
ATOM     15  C   UNL     1       0.425   2.021   1.120  0.00  0.00    +0.051 C 
ATOM     16  C   UNL     1      -0.385   2.145  -1.275  0.00  0.00    +0.012 C 
ATOM     18  C   UNL     1       1.660  -0.039   0.261  0.00  0.00    +0.057 A 
ATOM     19  C   UNL     1       1.635   1.185   0.897  0.00  0.00    +0.015 A 
ATOM     20  C   UNL     1       0.450  -2.204   0.003  0.00  0.00    +0.014 C 
ATOM     23  C   UNL     1       3.800   0.179   0.714  0.00  0.00    +0.165 A 
ATOM     26  C   UNL     1       5.934  -1.104   0.356  0.00  0.00    +0.219 C 
ATOM     35  H   UNL     1       5.639   0.723   1.318  0.00  0.00    +0.157 HD
ENDROOT
BRANCH  10   2
ATOM      2  O   UNL     1      -2.373  -1.804  -0.421  0.00  0.00    -0.391 OA
ATOM     34  H   UNL     1      -2.510  -1.949   0.531  0.00  0.00    +0.210 HD
ENDBRANCH  10   2
BRANCH  11  17
ATOM     17  C   UNL     1      -4.644  -0.043  -1.013  0.00  0.00    +0.078 C 
ATOM     21  C   UNL     1      -4.381   0.330  -2.473  0.00  0.00    +0.017 C 
BRANCH  17  22
ATOM      3  O   UNL     1      -6.170   1.799  -0.901  0.00  0.00    -0.275 OA
ATOM      6  N   UNL     1      -6.649   0.017   0.495  0.00  0.00    -0.301 N 
ATOM     22  C   UNL     1      -5.887   0.672  -0.478  0.00  0.00    +0.219 C 
ATOM     25  C   UNL     1      -7.827   0.681   1.042  0.00  0.00    +0.132 C 
BRANCH   6  24
ATOM     24  C   UNL     1      -6.405  -1.324   1.022  0.00  0.00    +0.134 C 
BRANCH  24  28
ATOM     28  C   UNL     1      -7.145  -2.317   0.189  0.00  0.00    -0.016 C 
ATOM     33  C   UNL     1      -8.067  -3.157   0.673  0.00  0.00    +0.005 C 
ENDBRANCH  24  28
ENDBRANCH   6  24
ENDBRANCH  17  22
ENDBRANCH  11  17
BRANCH  26  27
ATOM     27  C   UNL     1       7.419  -0.962   0.667  0.00  0.00    +0.102 C 
BRANCH  27  29
ATOM     29  C   UNL     1       8.231  -0.185  -0.397  0.00  0.00    -0.029 C 
ATOM     30  C   UNL     1       8.163  -0.885  -1.765  0.00  0.00    +0.011 C 
ATOM     31  C   UNL     1       7.734   1.262  -0.542  0.00  0.00    +0.011 C 
ATOM     32  C   UNL     1       9.703  -0.151   0.059  0.00  0.00    +0.011 C 
ENDBRANCH  27  29
ENDBRANCH  26  27
TORSDOF 7
