REMARK  Name = 38030170
REMARK  10 active torsions:
REMARK  status: ('A' for Active; 'I' for Inactive)
REMARK    1  A    between atoms: O_1  and  C_13
REMARK    2  A    between atoms: N_3  and  C_18
REMARK    3  A    between atoms: C_5  and  C_9
REMARK    4  A    between atoms: C_7  and  C_13
REMARK    5  A    between atoms: C_8  and  C_12
REMARK    6  A    between atoms: C_9  and  C_14
REMARK    7  A    between atoms: C_9  and  C_15
REMARK    8  A    between atoms: C_10  and  C_16
REMARK    9  A    between atoms: C_12  and  C_17
REMARK   10  A    between atoms: C_18  and  C_19
REMARK                            x       y       z     vdW  Elec       q    Type
REMARK                         _______ _______ _______ _____ _____    ______ ____
ROOT
ATOM      5  C   UNL     1       1.975  -1.036   0.006  0.00  0.00    +0.001 C 
ATOM      6  C   UNL     1       1.294  -0.101  -1.006  0.00  0.00    +0.012 C 
ATOM      7  C   UNL     1       3.502  -0.776   0.039  0.00  0.00    +0.040 C 
ATOM      8  C   UNL     1       1.530   1.385  -0.676  0.00  0.00    +0.023 C 
ATOM     10  C   UNL     1       2.985   1.669  -0.365  0.00  0.00    -0.073 C 
ATOM     11  C   UNL     1       3.855   0.689  -0.061  0.00  0.00    -0.022 C 
ATOM     16  C   UNL     1       3.430   3.102  -0.457  0.00  0.00    +0.039 C 
ENDROOT
BRANCH   5   9
ATOM      9  C   UNL     1       1.654  -2.494  -0.337  0.00  0.00    -0.013 C 
ATOM     14  C   UNL     1       0.280  -2.877   0.203  0.00  0.00    +0.007 C 
ATOM     15  C   UNL     1       1.723  -2.714  -1.845  0.00  0.00    +0.007 C 
ENDBRANCH   5   9
BRANCH   8  12
ATOM     12  C   UNL     1       0.624   1.846   0.471  0.00  0.00    +0.103 C 
BRANCH  12  17
ATOM      2  O   UNL     1      -1.142   2.339  -1.107  0.00  0.00    -0.276 OA
ATOM      3  N   UNL     1      -1.688   1.750   1.073  0.00  0.00    -0.311 N 
ATOM     17  C   UNL     1      -0.813   2.012   0.030  0.00  0.00    +0.214 C 
ATOM     25  H   UNL     1      -1.319   1.482   1.981  0.00  0.00    +0.149 HD
BRANCH   3  18
ATOM     18  C   UNL     1      -3.124   1.833   0.939  0.00  0.00    +0.141 C 
BRANCH  18  19
ATOM      4  N   UNL     1      -5.021  -0.726  -1.100  0.00  0.00    -0.263 NA
ATOM     19  C   UNL     1      -3.725   0.525   0.513  0.00  0.00    -0.012 A 
ATOM     20  C   UNL     1      -3.570  -0.620   1.287  0.00  0.00    +0.008 A 
ATOM     21  C   UNL     1      -4.453   0.420  -0.661  0.00  0.00    +0.115 A 
ATOM     22  C   UNL     1      -4.140  -1.818   0.869  0.00  0.00    +0.020 A 
ATOM     23  C   UNL     1      -4.849  -1.818  -0.321  0.00  0.00    +0.111 A 
ENDBRANCH  18  19
ENDBRANCH   3  18
ENDBRANCH  12  17
ENDBRANCH   8  12
BRANCH   7  13
ATOM     13  C   UNL     1       4.137  -1.369   1.302  0.00  0.00    +0.163 C 
BRANCH  13   1
ATOM      1  O   UNL     1       5.540  -1.222   1.204  0.00  0.00    -0.394 OA
ATOM     24  H   UNL     1       5.925  -1.594   2.016  0.00  0.00    +0.209 HD
ENDBRANCH  13   1
ENDBRANCH   7  13
TORSDOF 7
