REMARK  Name = 11883120
REMARK  8 active torsions:
REMARK  status: ('A' for Active; 'I' for Inactive)
REMARK    1  A    between atoms: O_3  and  C_16
REMARK    2  A    between atoms: O_4  and  C_21
REMARK    3  A    between atoms: C_11  and  C_19
REMARK    4  A    between atoms: C_13  and  C_21
REMARK    5  A    between atoms: C_13  and  C_22
REMARK    6  A    between atoms: C_14  and  C_24
REMARK    7  A    between atoms: C_24  and  C_25
REMARK    8  A    between atoms: C_31  and  C_32
REMARK                            x       y       z     vdW  Elec       q    Type
REMARK                         _______ _______ _______ _____ _____    ______ ____
ROOT
ATOM      1  S   UNL     1      -0.359   2.733   0.528  0.00  0.00    -0.057 S 
ATOM      7  O   UNL     1      -3.531  -0.477  -0.615  0.00  0.00    -0.270 OA
ATOM      8  N   UNL     1      -0.696   0.307  -0.303  0.00  0.00    -0.229 NA
ATOM     10  N   UNL     1      -2.687   1.603   0.104  0.00  0.00    -0.261 N 
ATOM     11  C   UNL     1       3.127   0.066  -0.747  0.00  0.00    -0.019 C 
ATOM     12  C   UNL     1       3.409   1.074   0.453  0.00  0.00    +0.011 C 
ATOM     13  C   UNL     1       4.910   1.490   0.701  0.00  0.00    +0.021 C 
ATOM     14  C   UNL     1       1.666  -0.547  -0.543  0.00  0.00    +0.054 C 
ATOM     15  C   UNL     1       4.155  -1.094  -0.699  0.00  0.00    +0.010 C 
ATOM     16  C   UNL     1       5.806   0.220   0.672  0.00  0.00    +0.123 C 
ATOM     17  C   UNL     1       2.420   2.276   0.431  0.00  0.00    +0.049 C 
ATOM     18  C   UNL     1       5.600  -0.632  -0.576  0.00  0.00    +0.032 C 
ATOM     19  C   UNL     1       3.210   0.747  -2.135  0.00  0.00    +0.012 C 
ATOM     20  C   UNL     1       0.666   0.532  -0.215  0.00  0.00    +0.058 A 
ATOM     22  C   UNL     1       5.036   2.113   2.120  0.00  0.00    +0.016 C 
ATOM     23  C   UNL     1       1.025   1.785   0.237  0.00  0.00    +0.015 A 
ATOM     26  C   UNL     1      -1.333   1.400   0.057  0.00  0.00    +0.165 A 
ATOM     31  C   UNL     1      -3.688   0.675  -0.226  0.00  0.00    +0.250 C 
ATOM     40  H   UNL     1      -2.944   2.518   0.461  0.00  0.00    +0.157 HD
ENDROOT
BRANCH  31  32
ATOM      2  F   UNL     1      -8.371  -0.188   0.613  0.00  0.00    -0.205 F 
ATOM     32  C   UNL     1      -5.084   1.157  -0.052  0.00  0.00    +0.040 A 
ATOM     33  C   UNL     1      -6.078   0.235   0.202  0.00  0.00    +0.051 A 
ATOM     34  C   UNL     1      -5.338   2.508  -0.150  0.00  0.00    +0.013 A 
ATOM     35  C   UNL     1      -7.387   0.686   0.366  0.00  0.00    +0.124 A 
ATOM     36  C   UNL     1      -6.648   2.959   0.014  0.00  0.00    +0.004 A 
ATOM     37  C   UNL     1      -7.672   2.049   0.272  0.00  0.00    +0.038 A 
ENDBRANCH  31  32
BRANCH  16   3
ATOM      3  O   UNL     1       7.185   0.575   0.764  0.00  0.00    -0.391 OA
ATOM     38  H   UNL     1       7.372   0.819   1.685  0.00  0.00    +0.210 HD
ENDBRANCH  16   3
BRANCH  13  21
ATOM     21  C   UNL     1       5.446   2.564  -0.272  0.00  0.00    +0.165 C 
BRANCH  21   4
ATOM      4  O   UNL     1       6.783   2.836   0.080  0.00  0.00    -0.394 OA
ATOM     39  H   UNL     1       6.781   3.531   0.759  0.00  0.00    +0.209 HD
ENDBRANCH  21   4
ENDBRANCH  13  21
BRANCH  14  24
ATOM     24  C   UNL     1       1.179  -1.433  -1.698  0.00  0.00    +0.106 C 
BRANCH  24  25
ATOM      5  O   UNL     1      -1.130  -1.873  -2.007  0.00  0.00    -0.276 OA
ATOM      6  O   UNL     1      -0.373  -5.093   1.568  0.00  0.00    -0.377 OA
ATOM      9  N   UNL     1      -0.106  -2.919  -0.205  0.00  0.00    -0.297 N 
ATOM     25  C   UNL     1      -0.126  -2.089  -1.324  0.00  0.00    +0.216 C 
ATOM     27  C   UNL     1       1.080  -3.593   0.334  0.00  0.00    +0.136 C 
ATOM     28  C   UNL     1      -1.308  -3.073   0.615  0.00  0.00    +0.136 C 
ATOM     29  C   UNL     1       0.751  -5.038   0.686  0.00  0.00    +0.179 C 
ATOM     30  C   UNL     1      -1.538  -4.540   0.950  0.00  0.00    +0.179 C 
ENDBRANCH  24  25
ENDBRANCH  14  24
TORSDOF 6
