REMARK  Name = 56774669
REMARK  7 active torsions:
REMARK  status: ('A' for Active; 'I' for Inactive)
REMARK    1  A    between atoms: O_3  and  C_9
REMARK    2  A    between atoms: N_6  and  C_11
REMARK    3  A    between atoms: N_7  and  C_22
REMARK    4  A    between atoms: C_8  and  C_9
REMARK    5  A    between atoms: C_9  and  C_13
REMARK    6  A    between atoms: C_11  and  C_15
REMARK    7  A    between atoms: C_26  and  C_27
REMARK                            x       y       z     vdW  Elec       q    Type
REMARK                         _______ _______ _______ _____ _____    ______ ____
ROOT
ATOM      2  O   UNL     1      -0.057   2.406   1.470  0.00  0.00    -0.369 OA
ATOM      4  O   UNL     1      -3.196   2.979  -0.221  0.00  0.00    -0.273 OA
ATOM      6  N   UNL     1      -1.818   1.104  -0.280  0.00  0.00    -0.287 N 
ATOM      8  C   UNL     1      -0.516   0.523   0.071  0.00  0.00    +0.135 C 
ATOM     10  C   UNL     1      -0.098   0.984   1.462  0.00  0.00    +0.185 C 
ATOM     12  C   UNL     1      -2.202   2.365   0.171  0.00  0.00    +0.242 C 
ATOM     14  C   UNL     1      -1.345   2.950   1.288  0.00  0.00    +0.255 C 
ENDROOT
BRANCH   8   9
ATOM      9  C   UNL     1       0.540   0.895  -0.974  0.00  0.00    +0.167 C 
BRANCH   9  13
ATOM     13  C   UNL     1       1.880   0.281  -0.659  0.00  0.00    -0.017 A 
ATOM     16  C   UNL     1       2.995   1.098  -0.473  0.00  0.00    +0.008 A 
ATOM     17  C   UNL     1       2.006  -1.104  -0.553  0.00  0.00    +0.008 A 
ATOM     20  C   UNL     1       4.235   0.531  -0.182  0.00  0.00    +0.023 A 
ATOM     21  C   UNL     1       3.246  -1.672  -0.263  0.00  0.00    +0.023 A 
ATOM     22  C   UNL     1       4.361  -0.855  -0.077  0.00  0.00    +0.033 A 
BRANCH  22   7
ATOM      5  O   UNL     1       7.037   0.437   0.411  0.00  0.00    -0.276 OA
ATOM      7  N   UNL     1       5.601  -1.423   0.214  0.00  0.00    -0.286 N 
ATOM     26  C   UNL     1       6.822  -0.771   0.431  0.00  0.00    +0.214 C 
ATOM     27  C   UNL     1       7.935  -1.748   0.718  0.00  0.00    +0.109 C 
ATOM     29  H   UNL     1       5.610  -2.439   0.273  0.00  0.00    +0.155 HD
ENDBRANCH  22   7
ENDBRANCH   9  13
BRANCH   9   3
ATOM      3  O   UNL     1       0.106   0.457  -2.257  0.00  0.00    -0.385 OA
ATOM     28  H   UNL     1       0.177  -0.511  -2.306  0.00  0.00    +0.210 HD
ENDBRANCH   9   3
ENDBRANCH   8   9
BRANCH   6  11
ATOM     11  C   UNL     1      -2.626   0.399  -1.266  0.00  0.00    +0.143 C 
BRANCH  11  15
ATOM      1  F   UNL     1      -6.670  -2.692   1.140  0.00  0.00    -0.205 F 
ATOM     15  C   UNL     1      -3.704  -0.425  -0.625  0.00  0.00    -0.030 A 
ATOM     18  C   UNL     1      -3.451  -1.750  -0.270  0.00  0.00    +0.008 A 
ATOM     19  C   UNL     1      -4.959   0.134  -0.384  0.00  0.00    +0.008 A 
ATOM     23  C   UNL     1      -4.453  -2.516   0.326  0.00  0.00    +0.038 A 
ATOM     24  C   UNL     1      -5.961  -0.632   0.212  0.00  0.00    +0.038 A 
ATOM     25  C   UNL     1      -5.708  -1.957   0.567  0.00  0.00    +0.123 A 
ENDBRANCH  11  15
ENDBRANCH   6  11
TORSDOF 6
