REMARK  Name = 23786327
REMARK  14 active torsions:
REMARK  status: ('A' for Active; 'I' for Inactive)
REMARK    1  A    between atoms: O_1  and  C_17
REMARK    2  A    between atoms: O_1  and  C_26
REMARK    3  A    between atoms: O_2  and  C_18
REMARK    4  A    between atoms: O_3  and  C_22
REMARK    5  A    between atoms: O_8  and  C_39
REMARK    6  A    between atoms: O_8  and  C_41
REMARK    7  A    between atoms: N_9  and  C_27
REMARK    8  A    between atoms: N_10  and  C_28
REMARK    9  A    between atoms: C_11  and  C_21
REMARK   10  A    between atoms: C_13  and  C_22
REMARK   11  A    between atoms: C_13  and  C_23
REMARK   12  A    between atoms: C_14  and  C_24
REMARK   13  A    between atoms: C_24  and  C_25
REMARK   14  A    between atoms: C_27  and  C_29
REMARK                            x       y       z     vdW  Elec       q    Type
REMARK                         _______ _______ _______ _____ _____    ______ ____
ROOT
ATOM     11  C   UNL     1       0.322  -1.536  -0.578  0.00  0.00    -0.023 C 
ATOM     12  C   UNL     1      -0.203  -0.831   0.738  0.00  0.00    +0.007 C 
ATOM     13  C   UNL     1      -1.758  -1.027   1.016  0.00  0.00    +0.031 C 
ATOM     14  C   UNL     1       1.825  -1.139  -0.881  0.00  0.00    +0.032 C 
ATOM     15  C   UNL     1      -0.582  -1.113  -1.771  0.00  0.00    +0.011 C 
ATOM     16  C   UNL     1       0.161   0.685   0.746  0.00  0.00    +0.007 C 
ATOM     17  C   UNL     1      -2.578  -0.661  -0.255  0.00  0.00    +0.186 C 
ATOM     18  C   UNL     1       2.035   0.387  -0.893  0.00  0.00    +0.119 C 
ATOM     19  C   UNL     1      -2.074  -1.337  -1.530  0.00  0.00    +0.046 C 
ATOM     20  C   UNL     1       1.613   1.003   0.426  0.00  0.00    +0.032 C 
ATOM     21  C   UNL     1       0.286  -3.085  -0.480  0.00  0.00    +0.012 C 
ATOM     23  C   UNL     1      -2.225  -0.117   2.188  0.00  0.00    +0.017 C 
ENDROOT
BRANCH  18   2
ATOM      2  O   UNL     1       3.399   0.721  -1.134  0.00  0.00    -0.391 OA
ATOM     42  H   UNL     1       3.469   1.691  -1.149  0.00  0.00    +0.210 HD
ENDBRANCH  18   2
BRANCH  17   1
ATOM      1  O   UNL     1      -3.955  -1.006  -0.106  0.00  0.00    -0.446 OA
BRANCH   1  26
ATOM      5  O   UNL     1      -4.523   1.191  -0.388  0.00  0.00    -0.226 OA
ATOM     10  N   UNL     1      -6.129  -0.474  -0.029  0.00  0.00    -0.251 N 
ATOM     26  C   UNL     1      -4.853   0.027  -0.194  0.00  0.00    +0.405 C 
ATOM     45  H   UNL     1      -6.203  -1.477   0.123  0.00  0.00    +0.158 HD
BRANCH  10  28
ATOM     28  C   UNL     1      -7.352   0.236  -0.046  0.00  0.00    +0.037 A 
ATOM     31  C   UNL     1      -7.354   1.616  -0.247  0.00  0.00    +0.027 A 
ATOM     32  C   UNL     1      -8.556  -0.444   0.139  0.00  0.00    +0.027 A 
ATOM     36  C   UNL     1      -8.560   2.317  -0.263  0.00  0.00    +0.047 A 
ATOM     37  C   UNL     1      -9.762   0.256   0.123  0.00  0.00    +0.047 A 
ATOM     39  C   UNL     1      -9.764   1.637  -0.078  0.00  0.00    +0.120 A 
BRANCH  39   8
ATOM      8  O   UNL     1     -10.941   2.321  -0.091  0.00  0.00    -0.495 OA
ATOM     41  C   UNL     1     -12.134   1.564   0.107  0.00  0.00    +0.277 C 
ENDBRANCH  39   8
ENDBRANCH  10  28
ENDBRANCH   1  26
ENDBRANCH  17   1
BRANCH  13  22
ATOM     22  C   UNL     1      -2.082  -2.464   1.494  0.00  0.00    +0.166 C 
BRANCH  22   3
ATOM      3  O   UNL     1      -1.054  -2.865   2.369  0.00  0.00    -0.394 OA
ATOM     43  H   UNL     1      -1.261  -3.768   2.665  0.00  0.00    +0.209 HD
ENDBRANCH  22   3
ENDBRANCH  13  22
BRANCH  14  24
ATOM     24  C   UNL     1       2.840  -1.818   0.069  0.00  0.00    +0.102 C 
BRANCH  24  25
ATOM      4  O   UNL     1       4.444  -1.929  -1.741  0.00  0.00    -0.276 OA
ATOM      9  N   UNL     1       5.187  -1.824   0.459  0.00  0.00    -0.311 N 
ATOM     25  C   UNL     1       4.220  -1.864  -0.535  0.00  0.00    +0.214 C 
ATOM     44  H   UNL     1       4.905  -1.762   1.433  0.00  0.00    +0.149 HD
BRANCH   9  27
ATOM     27  C   UNL     1       6.605  -1.855   0.182  0.00  0.00    +0.139 C 
BRANCH  27  29
ATOM      6  O   UNL     1       9.194   2.080   1.688  0.00  0.00    -0.453 OA
ATOM      7  O   UNL     1       8.779   3.284  -0.358  0.00  0.00    -0.453 OA
ATOM     29  C   UNL     1       7.173  -0.477   0.003  0.00  0.00    -0.027 A 
ATOM     30  C   UNL     1       7.936   0.096   1.023  0.00  0.00    +0.054 A 
ATOM     33  C   UNL     1       6.931   0.225  -1.191  0.00  0.00    +0.009 A 
ATOM     34  C   UNL     1       8.435   1.365   0.813  0.00  0.00    +0.167 A 
ATOM     35  C   UNL     1       7.449   1.509  -1.378  0.00  0.00    +0.050 A 
ATOM     38  C   UNL     1       8.198   2.053  -0.355  0.00  0.00    +0.166 A 
ATOM     40  C   UNL     1       9.408   3.294   0.940  0.00  0.00    +0.466 C 
ENDBRANCH  27  29
ENDBRANCH   9  27
ENDBRANCH  24  25
ENDBRANCH  14  24
TORSDOF 11
