REMARK  Name = 40777855
REMARK  7 active torsions:
REMARK  status: ('A' for Active; 'I' for Inactive)
REMARK    1  A    between atoms: O_3  and  C_10
REMARK    2  A    between atoms: O_4  and  C_11
REMARK    3  A    between atoms: N_8  and  C_14
REMARK    4  A    between atoms: C_9  and  C_13
REMARK    5  A    between atoms: C_12  and  C_14
REMARK    6  A    between atoms: C_13  and  C_15
REMARK    7  A    between atoms: C_22  and  C_25
REMARK                            x       y       z     vdW  Elec       q    Type
REMARK                         _______ _______ _______ _____ _____    ______ ____
ROOT
ATOM      2  O   UNL     1      -2.640   1.221   0.815  0.00  0.00    -0.366 OA
ATOM      9  C   UNL     1      -2.558   1.773  -0.519  0.00  0.00    +0.159 C 
ATOM     10  C   UNL     1      -3.791   1.277  -1.266  0.00  0.00    +0.175 C 
ATOM     11  C   UNL     1      -4.072  -0.040  -0.571  0.00  0.00    +0.176 C 
ATOM     12  C   UNL     1      -3.746   0.303   0.873  0.00  0.00    +0.167 C 
ENDROOT
BRANCH  10   3
ATOM      3  O   UNL     1      -4.853   2.199  -1.028  0.00  0.00    -0.387 OA
ATOM     31  H   UNL     1      -4.614   3.036  -1.462  0.00  0.00    +0.210 HD
ENDBRANCH  10   3
BRANCH  11   4
ATOM      4  O   UNL     1      -5.405  -0.479  -0.723  0.00  0.00    -0.387 OA
ATOM     32  H   UNL     1      -5.579  -0.556  -1.677  0.00  0.00    +0.210 HD
ENDBRANCH  11   4
BRANCH   9  13
ATOM     13  C   UNL     1      -1.252   1.296  -1.141  0.00  0.00    +0.130 C 
BRANCH  13  15
ATOM      5  O   UNL     1      -0.301   2.377   0.742  0.00  0.00    -0.275 OA
ATOM      7  N   UNL     1       1.157   1.309  -0.734  0.00  0.00    -0.271 N 
ATOM     15  C   UNL     1      -0.087   1.720  -0.277  0.00  0.00    +0.222 C 
ATOM     16  C   UNL     1       1.411   0.519  -1.958  0.00  0.00    +0.118 C 
ATOM     17  C   UNL     1       2.922   0.293  -2.063  0.00  0.00    +0.056 C 
ATOM     18  C   UNL     1       2.395   1.574  -0.113  0.00  0.00    +0.039 A 
ATOM     19  C   UNL     1       3.433   1.004  -0.853  0.00  0.00    -0.024 A 
ATOM     20  C   UNL     1       2.663   2.278   1.052  0.00  0.00    +0.024 A 
ATOM     21  C   UNL     1       4.755   1.122  -0.451  0.00  0.00    +0.005 A 
ATOM     23  C   UNL     1       3.993   2.403   1.464  0.00  0.00    +0.002 A 
ATOM     24  C   UNL     1       5.032   1.829   0.719  0.00  0.00    +0.000 A 
ENDBRANCH  13  15
ENDBRANCH   9  13
BRANCH  12  14
ATOM     14  C   UNL     1      -3.363  -0.907   1.707  0.00  0.00    +0.138 C 
BRANCH  14   8
ATOM      6  O   UNL     1      -0.622  -0.363   2.365  0.00  0.00    -0.270 OA
ATOM      8  N   UNL     1      -2.208  -1.562   1.169  0.00  0.00    -0.309 N 
ATOM     22  C   UNL     1      -0.909  -1.233   1.547  0.00  0.00    +0.244 C 
ATOM     33  H   UNL     1      -2.376  -2.330   0.527  0.00  0.00    +0.149 HD
BRANCH  22  25
ATOM      1  F   UNL     1       0.815  -3.733  -2.252  0.00  0.00    -0.205 F 
ATOM     25  C   UNL     1       0.181  -1.988   0.877  0.00  0.00    +0.039 A 
ATOM     26  C   UNL     1      -0.018  -2.517  -0.398  0.00  0.00    +0.051 A 
ATOM     27  C   UNL     1       1.404  -2.168   1.524  0.00  0.00    +0.013 A 
ATOM     28  C   UNL     1       1.006  -3.225  -1.027  0.00  0.00    +0.124 A 
ATOM     29  C   UNL     1       2.428  -2.877   0.895  0.00  0.00    +0.004 A 
ATOM     30  C   UNL     1       2.229  -3.405  -0.380  0.00  0.00    +0.038 A 
ENDBRANCH  22  25
ENDBRANCH  14   8
ENDBRANCH  12  14
TORSDOF 7
