REMARK  Name = 56775296
REMARK  5 active torsions:
REMARK  status: ('A' for Active; 'I' for Inactive)
REMARK    1  A    between atoms: N_4  and  C_11
REMARK    2  A    between atoms: N_6  and  C_17
REMARK    3  A    between atoms: C_11  and  C_15
REMARK    4  A    between atoms: C_11  and  C_16
REMARK    5  A    between atoms: C_17  and  C_18
REMARK                            x       y       z     vdW  Elec       q    Type
REMARK                         _______ _______ _______ _____ _____    ______ ____
ROOT
ATOM      1  O   UNL     1       0.769   1.983  -0.773  0.00  0.00    -0.364 OA
ATOM      2  O   UNL     1       3.659   0.026  -1.463  0.00  0.00    -0.273 OA
ATOM      3  O   UNL     1      -3.675   1.112   0.566  0.00  0.00    -0.253 OA
ATOM      4  N   UNL     1       2.105  -0.229   0.250  0.00  0.00    -0.290 N 
ATOM      5  N   UNL     1      -1.459   0.474   0.529  0.00  0.00    -0.281 N 
ATOM      6  N   UNL     1      -3.148  -1.066   0.024  0.00  0.00    -0.300 N 
ATOM      7  C   UNL     1       0.871   0.232   0.874  0.00  0.00    +0.124 C 
ATOM      8  C   UNL     1       0.554   1.701   0.607  0.00  0.00    +0.158 C 
ATOM      9  C   UNL     1      -0.372  -0.486   0.342  0.00  0.00    +0.134 C 
ATOM     10  C   UNL     1      -0.940   1.789   0.892  0.00  0.00    +0.142 C 
ATOM     12  C   UNL     1       2.696   0.442  -0.817  0.00  0.00    +0.242 C 
ATOM     13  C   UNL     1       2.127   1.820  -1.111  0.00  0.00    +0.256 C 
ATOM     14  C   UNL     1      -2.824   0.236   0.387  0.00  0.00    +0.302 C 
ATOM     19  H   UNL     1      -2.414  -1.743  -0.151  0.00  0.00    +0.150 HD
ENDROOT
BRANCH   4  11
ATOM     11  C   UNL     1       2.621  -1.521   0.682  0.00  0.00    +0.070 C 
ATOM     15  C   UNL     1       4.063  -1.385   1.153  0.00  0.00    +0.028 C 
ATOM     16  C   UNL     1       2.499  -2.547  -0.437  0.00  0.00    +0.028 C 
ENDBRANCH   4  11
BRANCH   6  17
ATOM     17  C   UNL     1      -4.513  -1.498  -0.172  0.00  0.00    +0.102 C 
ATOM     18  C   UNL     1      -5.035  -1.085  -1.533  0.00  0.00    +0.024 C 
ENDBRANCH   6  17
TORSDOF 2
