REMARK  Name = 28991064
REMARK  14 active torsions:
REMARK  status: ('A' for Active; 'I' for Inactive)
REMARK    1  A    between atoms: N_3  and  C_14
REMARK    2  A    between atoms: N_3  and  C_16
REMARK    3  A    between atoms: N_3  and  C_17
REMARK    4  A    between atoms: N_4  and  C_15
REMARK    5  A    between atoms: N_5  and  C_18
REMARK    6  A    between atoms: N_5  and  C_21
REMARK    7  A    between atoms: N_5  and  C_22
REMARK    8  A    between atoms: N_6  and  C_27
REMARK    9  A    between atoms: N_6  and  C_28
REMARK   10  A    between atoms: N_6  and  C_29
REMARK   11  A    between atoms: C_8  and  C_14
REMARK   12  A    between atoms: C_9  and  C_15
REMARK   13  A    between atoms: C_16  and  C_18
REMARK   14  A    between atoms: C_19  and  C_20
REMARK                            x       y       z     vdW  Elec       q    Type
REMARK                         _______ _______ _______ _____ _____    ______ ____
ROOT
ATOM      2  N   UNL     1       2.261  -2.512   0.988  0.00  0.00    -0.298 NA
ATOM      7  C   UNL     1       2.446  -2.133  -1.579  0.00  0.00    -0.003 C 
ATOM      8  C   UNL     1       3.619  -1.454  -0.835  0.00  0.00    +0.020 C 
ATOM      9  C   UNL     1       0.982  -1.964   0.460  0.00  0.00    +0.074 C 
ATOM     10  C   UNL     1       1.113  -1.589  -1.033  0.00  0.00    +0.024 C 
ATOM     11  C   UNL     1       3.380  -1.587   0.686  0.00  0.00    +0.089 C 
ATOM     12  C   UNL     1       2.504  -3.633  -1.232  0.00  0.00    +0.019 C 
ATOM     13  C   UNL     1       2.525  -3.798   0.298  0.00  0.00    +0.085 C 
ENDROOT
BRANCH   8  14
ATOM     14  C   UNL     1       3.832   0.001  -1.246  0.00  0.00    +0.089 C 
BRANCH  14   3
ATOM      3  N   UNL     1       4.965   0.563  -0.577  0.00  0.00    -0.304 NA
ATOM     17  C   UNL     1       6.228   0.166  -1.224  0.00  0.00    +0.104 C 
BRANCH   3  16
ATOM     16  C   UNL     1       4.889   2.033  -0.523  0.00  0.00    +0.099 C 
BRANCH  16  18
ATOM     18  C   UNL     1       3.931   2.496   0.565  0.00  0.00    +0.099 C 
BRANCH  18   5
ATOM      5  N   UNL     1       3.863   3.951   0.595  0.00  0.00    -0.307 NA
ATOM     21  C   UNL     1       3.322   4.417   1.873  0.00  0.00    +0.104 C 
ATOM     22  C   UNL     1       3.047   4.453  -0.513  0.00  0.00    +0.104 C 
ENDBRANCH  18   5
ENDBRANCH  16  18
ENDBRANCH   3  16
ENDBRANCH  14   3
ENDBRANCH   8  14
BRANCH   9  15
ATOM     15  C   UNL     1       0.460  -0.793   1.297  0.00  0.00    +0.123 C 
BRANCH  15   4
ATOM      1  O   UNL     1      -2.082  -1.775   2.202  0.00  0.00    -0.270 OA
ATOM      4  N   UNL     1      -0.829  -0.375   0.839  0.00  0.00    -0.310 N 
ATOM     19  C   UNL     1      -2.018  -0.907   1.335  0.00  0.00    +0.244 C 
ATOM     30  H   UNL     1      -0.847   0.297   0.080  0.00  0.00    +0.149 HD
BRANCH  19  20
ATOM     20  C   UNL     1      -3.274  -0.385   0.738  0.00  0.00    +0.037 A 
ATOM     23  C   UNL     1      -4.421  -1.178   0.719  0.00  0.00    +0.015 A 
ATOM     24  C   UNL     1      -3.307   0.900   0.196  0.00  0.00    +0.015 A 
ATOM     25  C   UNL     1      -5.600  -0.688   0.158  0.00  0.00    +0.024 A 
ATOM     26  C   UNL     1      -4.486   1.391  -0.365  0.00  0.00    +0.024 A 
ATOM     27  C   UNL     1      -5.632   0.598  -0.384  0.00  0.00    +0.029 A 
BRANCH  27   6
ATOM      6  N   UNL     1      -6.824   1.094  -0.952  0.00  0.00    -0.336 N 
ATOM     28  C   UNL     1      -8.021   0.277  -0.976  0.00  0.00    +0.129 C 
ATOM     29  C   UNL     1      -6.870   2.431  -1.510  0.00  0.00    +0.129 C 
ENDBRANCH  27   6
ENDBRANCH  19  20
ENDBRANCH  15   4
ENDBRANCH   9  15
TORSDOF 9
