REMARK  Name = 26743812
REMARK  6 active torsions:
REMARK  status: ('A' for Active; 'I' for Inactive)
REMARK    1  A    between atoms: O_2  and  C_11
REMARK    2  A    between atoms: N_4  and  C_13
REMARK    3  A    between atoms: C_9  and  C_14
REMARK    4  A    between atoms: C_13  and  C_15
REMARK    5  A    between atoms: C_16  and  C_17
REMARK    6  A    between atoms: C_24  and  C_25
REMARK                            x       y       z     vdW  Elec       q    Type
REMARK                         _______ _______ _______ _____ _____    ______ ____
ROOT
ATOM      4  N   UNL     1      -3.081   0.277   0.522  0.00  0.00    -0.282 NA
ATOM      9  C   UNL     1      -2.581   0.758  -0.782  0.00  0.00    +0.149 C 
ATOM     10  C   UNL     1      -2.845   2.275  -0.769  0.00  0.00    +0.061 C 
ATOM     11  C   UNL     1      -3.537   2.544   0.561  0.00  0.00    +0.130 C 
ATOM     12  C   UNL     1      -4.139   1.200   0.926  0.00  0.00    +0.117 C 
ENDROOT
BRANCH   9  14
ATOM      3  O   UNL     1      -0.835  -0.312  -2.116  0.00  0.00    -0.336 OA
ATOM      5  N   UNL     1      -0.076   0.729  -0.284  0.00  0.00    -0.190 NA
ATOM      8  N   UNL     1       0.553  -0.497  -2.110  0.00  0.00    -0.056 NA
ATOM     14  C   UNL     1      -1.122   0.419  -1.008  0.00  0.00    +0.245 A 
ATOM     16  C   UNL     1       0.928   0.145  -1.000  0.00  0.00    +0.202 A 
BRANCH  16  17
ATOM      1  F   UNL     1       4.270   1.645   2.125  0.00  0.00    -0.205 F 
ATOM     17  C   UNL     1       2.297   0.223  -0.578  0.00  0.00    +0.025 A 
ATOM     20  C   UNL     1       2.629   0.909   0.591  0.00  0.00    +0.050 A 
ATOM     21  C   UNL     1       3.296  -0.386  -1.337  0.00  0.00    +0.012 A 
ATOM     22  C   UNL     1       3.960   0.984   1.000  0.00  0.00    +0.127 A 
ATOM     23  C   UNL     1       4.627  -0.311  -0.927  0.00  0.00    +0.007 A 
ATOM     24  C   UNL     1       4.959   0.374   0.242  0.00  0.00    -0.015 A 
ATOM     25  C   UNL     1       6.384   0.453   0.677  0.00  0.00    +0.047 C 
ENDBRANCH  16  17
ENDBRANCH   9  14
BRANCH  11   2
ATOM      2  O   UNL     1      -4.528   3.543   0.419  0.00  0.00    -0.390 OA
ATOM     26  H   UNL     1      -4.085   4.352   0.112  0.00  0.00    +0.210 HD
ENDBRANCH  11   2
BRANCH   4  13
ATOM     13  C   UNL     1      -3.543  -1.105   0.486  0.00  0.00    +0.159 C 
BRANCH  13  15
ATOM      6  N   UNL     1      -1.526  -2.085   1.603  0.00  0.00    -0.347 N 
ATOM      7  N   UNL     1      -2.098  -3.003  -0.336  0.00  0.00    -0.239 NA
ATOM     15  C   UNL     1      -2.398  -2.081   0.551  0.00  0.00    +0.121 A 
ATOM     18  C   UNL     1      -0.610  -3.073   1.372  0.00  0.00    +0.104 A 
ATOM     19  C   UNL     1      -0.985  -3.626   0.170  0.00  0.00    +0.130 A 
ATOM     27  H   UNL     1      -1.550  -1.469   2.405  0.00  0.00    +0.167 HD
ENDBRANCH  13  15
ENDBRANCH   4  13
TORSDOF 5
