REMARK  Name = 11911995
REMARK  7 active torsions:
REMARK  status: ('A' for Active; 'I' for Inactive)
REMARK    1  A    between atoms: O_3  and  C_13
REMARK    2  A    between atoms: O_3  and  C_17
REMARK    3  A    between atoms: O_5  and  C_29
REMARK    4  A    between atoms: O_5  and  C_33
REMARK    5  A    between atoms: N_6  and  C_12
REMARK    6  A    between atoms: N_9  and  C_21
REMARK    7  A    between atoms: C_18  and  C_22
REMARK                            x       y       z     vdW  Elec       q    Type
REMARK                         _______ _______ _______ _____ _____    ______ ____
ROOT
ATOM      1  O   UNL     1      -1.046   0.942   2.062  0.00  0.00    -0.368 OA
ATOM      2  O   UNL     1      -2.795   2.211  -0.117  0.00  0.00    -0.368 OA
ATOM     10  C   UNL     1      -2.616   0.837   0.288  0.00  0.00    +0.173 C 
ATOM     11  C   UNL     1      -1.154   0.674   0.654  0.00  0.00    +0.192 C 
ATOM     12  C   UNL     1      -3.349   0.580   1.584  0.00  0.00    +0.130 C 
ATOM     13  C   UNL     1      -0.488   1.747  -0.172  0.00  0.00    +0.235 C 
ATOM     14  C   UNL     1      -2.361   1.087   2.620  0.00  0.00    +0.185 C 
ATOM     15  C   UNL     1      -1.514   2.858  -0.139  0.00  0.00    +0.207 C 
ENDROOT
BRANCH  12   6
ATOM      6  N   UNL     1      -3.577  -0.839   1.759  0.00  0.00    -0.306 N 
ATOM      7  N   UNL     1      -5.530  -0.776   0.504  0.00  0.00    -0.214 NA
ATOM      8  N   UNL     1      -4.731  -2.833   1.472  0.00  0.00    -0.223 NA
ATOM     16  C   UNL     1      -4.660  -1.512   1.222  0.00  0.00    +0.216 A 
ATOM     18  C   UNL     1      -6.573  -1.464  -0.004  0.00  0.00    +0.076 A 
ATOM     19  C   UNL     1      -5.799  -3.458   0.934  0.00  0.00    +0.116 A 
ATOM     20  C   UNL     1      -6.761  -2.819   0.179  0.00  0.00    +0.048 A 
ATOM     39  H   UNL     1      -2.891  -1.396   2.256  0.00  0.00    +0.149 HD
BRANCH  18  22
ATOM     22  C   UNL     1      -7.507  -0.679  -0.775  0.00  0.00    +0.001 A 
ATOM     25  C   UNL     1      -8.843  -0.600  -0.381  0.00  0.00    +0.010 A 
ATOM     26  C   UNL     1      -7.075   0.001  -1.914  0.00  0.00    +0.010 A 
ATOM     30  C   UNL     1      -9.746   0.159  -1.125  0.00  0.00    +0.001 A 
ATOM     31  C   UNL     1      -7.978   0.760  -2.658  0.00  0.00    +0.001 A 
ATOM     32  C   UNL     1      -9.314   0.839  -2.264  0.00  0.00    +0.000 A 
ENDBRANCH  18  22
ENDBRANCH  12   6
BRANCH  13   3
ATOM      3  O   UNL     1       0.758   2.161   0.341  0.00  0.00    -0.442 OA
BRANCH   3  17
ATOM      4  O   UNL     1       1.819   0.640  -0.998  0.00  0.00    -0.226 OA
ATOM      9  N   UNL     1       3.008   2.045   0.449  0.00  0.00    -0.251 N 
ATOM     17  C   UNL     1       1.878   1.525  -0.153  0.00  0.00    +0.405 C 
ATOM     40  H   UNL     1       2.854   2.782   1.133  0.00  0.00    +0.158 HD
BRANCH   9  21
ATOM     21  C   UNL     1       4.356   1.679   0.233  0.00  0.00    +0.037 A 
ATOM     23  C   UNL     1       4.668   0.678  -0.687  0.00  0.00    +0.027 A 
ATOM     24  C   UNL     1       5.374   2.321   0.938  0.00  0.00    +0.027 A 
ATOM     27  C   UNL     1       5.999   0.318  -0.901  0.00  0.00    +0.048 A 
ATOM     28  C   UNL     1       6.704   1.961   0.724  0.00  0.00    +0.048 A 
ATOM     29  C   UNL     1       7.017   0.960  -0.195  0.00  0.00    +0.129 A 
BRANCH  29   5
ATOM      5  O   UNL     1       8.315   0.609  -0.404  0.00  0.00    -0.456 OA
BRANCH   5  33
ATOM     33  C   UNL     1       8.616  -0.742  -0.459  0.00  0.00    +0.128 A 
ATOM     34  C   UNL     1       8.080  -1.615   0.488  0.00  0.00    +0.046 A 
ATOM     35  C   UNL     1       9.456  -1.229  -1.460  0.00  0.00    +0.046 A 
ATOM     36  C   UNL     1       8.384  -2.975   0.434  0.00  0.00    +0.004 A 
ATOM     37  C   UNL     1       9.761  -2.590  -1.514  0.00  0.00    +0.004 A 
ATOM     38  C   UNL     1       9.224  -3.462  -0.567  0.00  0.00    +0.000 A 
ENDBRANCH   5  33
ENDBRANCH  29   5
ENDBRANCH   9  21
ENDBRANCH   3  17
ENDBRANCH  13   3
TORSDOF 7
