REMARK  Name = 75537012
REMARK  2 active torsions:
REMARK  status: ('A' for Active; 'I' for Inactive)
REMARK    1  A    between atoms: N_4  and  C_8
REMARK    2  A    between atoms: C_19  and  C_20
REMARK                            x       y       z     vdW  Elec       q    Type
REMARK                         _______ _______ _______ _____ _____    ______ ____
ROOT
ATOM      2  O   UNL     1       3.193   2.626  -0.350  0.00  0.00    -0.252 OA
ATOM      3  O   UNL     1      -3.782   2.482   0.021  0.00  0.00    -0.270 OA
ATOM      4  N   UNL     1       2.721   0.324  -0.155  0.00  0.00    -0.281 N 
ATOM      5  N   UNL     1       1.006   1.767  -0.322  0.00  0.00    -0.278 N 
ATOM      6  N   UNL     1      -1.666   1.571   0.415  0.00  0.00    -0.294 N 
ATOM      7  C   UNL     1       0.384   0.454  -0.339  0.00  0.00    +0.112 C 
ATOM      9  C   UNL     1       1.531  -0.497  -0.011  0.00  0.00    +0.133 C 
ATOM     12  C   UNL     1      -0.783   0.411   0.643  0.00  0.00    +0.132 C 
ATOM     13  C   UNL     1       2.406   1.691  -0.288  0.00  0.00    +0.305 C 
ATOM     14  C   UNL     1       0.185   2.959  -0.443  0.00  0.00    +0.128 C 
ATOM     18  C   UNL     1      -1.000   2.877   0.518  0.00  0.00    +0.127 C 
ATOM     19  C   UNL     1      -3.039   1.512   0.168  0.00  0.00    +0.247 C 
ENDROOT
BRANCH  19  20
ATOM      1  F   UNL     1      -5.430  -3.531  -0.249  0.00  0.00    -0.205 F 
ATOM     20  C   UNL     1      -3.666   0.189   0.058  0.00  0.00    +0.037 A 
ATOM     21  C   UNL     1      -4.177  -0.436   1.195  0.00  0.00    +0.016 A 
ATOM     22  C   UNL     1      -3.750  -0.443  -1.182  0.00  0.00    +0.016 A 
ATOM     23  C   UNL     1      -4.773  -1.693   1.092  0.00  0.00    +0.039 A 
ATOM     24  C   UNL     1      -4.346  -1.700  -1.286  0.00  0.00    +0.039 A 
ATOM     25  C   UNL     1      -4.857  -2.325  -0.149  0.00  0.00    +0.123 A 
ENDBRANCH  19  20
BRANCH   4   8
ATOM      8  C   UNL     1       4.048  -0.228  -0.034  0.00  0.00    +0.078 C 
ATOM     10  C   UNL     1       4.215  -0.952   1.305  0.00  0.00    +0.022 C 
ATOM     11  C   UNL     1       4.353  -1.157  -1.211  0.00  0.00    +0.022 C 
ATOM     15  C   UNL     1       5.595  -1.590   1.431  0.00  0.00    +0.002 C 
ATOM     16  C   UNL     1       5.733  -1.797  -1.081  0.00  0.00    +0.002 C 
ATOM     17  C   UNL     1       5.898  -2.514   0.255  0.00  0.00    +0.000 C 
ENDBRANCH   4   8
TORSDOF 2
