REMARK  Name = 40779916
REMARK  9 active torsions:
REMARK  status: ('A' for Active; 'I' for Inactive)
REMARK    1  A    between atoms: S_1  and  N_8
REMARK    2  A    between atoms: S_1  and  C_23
REMARK    3  A    between atoms: O_3  and  C_22
REMARK    4  A    between atoms: O_3  and  C_24
REMARK    5  A    between atoms: N_7  and  C_16
REMARK    6  A    between atoms: N_8  and  C_17
REMARK    7  A    between atoms: C_10  and  C_16
REMARK    8  A    between atoms: C_11  and  C_17
REMARK    9  A    between atoms: C_18  and  C_22
REMARK                            x       y       z     vdW  Elec       q    Type
REMARK                         _______ _______ _______ _____ _____    ______ ____
ROOT
ATOM      6  N   UNL     1      -0.415   2.695   1.237  0.00  0.00    -0.298 NA
ATOM      9  C   UNL     1      -1.599   2.844  -1.075  0.00  0.00    -0.003 C 
ATOM     10  C   UNL     1      -2.279   1.788  -0.173  0.00  0.00    +0.020 C 
ATOM     11  C   UNL     1       0.584   2.557   0.143  0.00  0.00    +0.072 C 
ATOM     12  C   UNL     1      -0.109   2.492  -1.236  0.00  0.00    +0.024 C 
ATOM     13  C   UNL     1      -1.452   1.640   1.123  0.00  0.00    +0.089 C 
ATOM     14  C   UNL     1      -1.672   4.187  -0.323  0.00  0.00    +0.019 C 
ATOM     15  C   UNL     1      -1.079   4.012   1.086  0.00  0.00    +0.085 C 
ENDROOT
BRANCH  10  16
ATOM     16  C   UNL     1      -2.483   0.444  -0.869  0.00  0.00    +0.089 C 
BRANCH  16   7
ATOM      7  N   UNL     1      -3.209  -0.482  -0.008  0.00  0.00    -0.297 NA
ATOM     18  C   UNL     1      -3.093  -1.884  -0.433  0.00  0.00    +0.082 C 
ATOM     19  C   UNL     1      -4.647  -0.204  -0.014  0.00  0.00    +0.085 C 
ATOM     20  C   UNL     1      -4.233  -2.562   0.331  0.00  0.00    +0.022 C 
ATOM     21  C   UNL     1      -5.250  -1.457   0.599  0.00  0.00    +0.017 C 
BRANCH  18  22
ATOM     22  C   UNL     1      -1.743  -2.507  -0.102  0.00  0.00    +0.178 C 
BRANCH  22   3
ATOM      3  O   UNL     1      -1.781  -3.881  -0.447  0.00  0.00    -0.381 OA
ATOM     24  C   UNL     1      -0.547  -4.529  -0.164  0.00  0.00    +0.194 C 
ENDBRANCH  22   3
ENDBRANCH  18  22
ENDBRANCH  16   7
ENDBRANCH  10  16
BRANCH  11  17
ATOM     17  C   UNL     1       1.528   1.373   0.362  0.00  0.00    +0.124 C 
BRANCH  17   8
ATOM      8  N   UNL     1       2.584   1.364  -0.638  0.00  0.00    -0.188 NA
ATOM     28  H   UNL     1       2.253   1.181  -1.594  0.00  0.00    +0.148 HD
BRANCH   8   1
ATOM      1  S   UNL     1       4.135   0.740  -0.267  0.00  0.00    +0.065 S 
ATOM      4  O   UNL     1       4.637   1.403   0.922  0.00  0.00    -0.153 OA
ATOM      5  O   UNL     1       4.942   0.693  -1.471  0.00  0.00    -0.153 OA
BRANCH   1  23
ATOM      2  S   UNL     1       3.252  -1.912  -1.150  0.00  0.00    -0.077 S 
ATOM     23  C   UNL     1       3.749  -0.931   0.162  0.00  0.00    +0.142 A 
ATOM     25  C   UNL     1       3.764  -1.627   1.351  0.00  0.00    +0.036 A 
ATOM     26  C   UNL     1       3.362  -2.983   1.182  0.00  0.00    +0.010 A 
ATOM     27  C   UNL     1       3.055  -3.272  -0.129  0.00  0.00    +0.047 A 
ENDBRANCH   1  23
ENDBRANCH   8   1
ENDBRANCH  17   8
ENDBRANCH  11  17
TORSDOF 8
