REMARK  Name = 11882522
REMARK  13 active torsions:
REMARK  status: ('A' for Active; 'I' for Inactive)
REMARK    1  A    between atoms: S_2  and  C_30
REMARK    2  A    between atoms: S_2  and  C_34
REMARK    3  A    between atoms: O_3  and  C_12
REMARK    4  A    between atoms: O_4  and  C_14
REMARK    5  A    between atoms: O_7  and  C_25
REMARK    6  A    between atoms: O_7  and  C_33
REMARK    7  A    between atoms: N_9  and  C_13
REMARK    8  A    between atoms: N_10  and  C_19
REMARK    9  A    between atoms: C_16  and  C_18
REMARK   10  A    between atoms: C_19  and  C_21
REMARK   11  A    between atoms: C_19  and  C_23
REMARK   12  A    between atoms: C_20  and  C_22
REMARK   13  A    between atoms: C_21  and  C_24
REMARK                            x       y       z     vdW  Elec       q    Type
REMARK                         _______ _______ _______ _____ _____    ______ ____
ROOT
ATOM     12  C   UNL     1      -0.568  -2.461  -0.914  0.00  0.00    +0.167 C 
ATOM     13  C   UNL     1      -0.953  -1.589   0.296  0.00  0.00    +0.128 C 
ATOM     14  C   UNL     1       0.893  -2.920  -0.835  0.00  0.00    +0.149 C 
ATOM     15  C   UNL     1       1.865  -1.735  -0.700  0.00  0.00    +0.074 C 
ATOM     16  C   UNL     1       1.350  -0.639   0.188  0.00  0.00    +0.015 C 
ATOM     17  C   UNL     1       0.092  -0.565   0.648  0.00  0.00    +0.006 C 
ENDROOT
BRANCH  16  18
ATOM      5  O   UNL     1       2.161   0.981   1.684  0.00  0.00    -0.271 OA
ATOM     10  N   UNL     1       3.262   0.666  -0.346  0.00  0.00    -0.300 N 
ATOM     18  C   UNL     1       2.284   0.413   0.599  0.00  0.00    +0.241 C 
ATOM     38  H   UNL     1       3.228   0.216  -1.254  0.00  0.00    +0.150 HD
BRANCH  10  19
ATOM     19  C   UNL     1       4.294   1.663  -0.168  0.00  0.00    +0.164 C 
BRANCH  19  23
ATOM      8  O   UNL     1       2.951   3.093  -1.602  0.00  0.00    -0.274 OA
ATOM     11  N   UNL     1       4.135   4.058   0.114  0.00  0.00    -0.328 N 
ATOM     23  C   UNL     1       3.727   2.988  -0.654  0.00  0.00    +0.231 C 
ATOM     39  H   UNL     1       4.774   3.957   0.896  0.00  0.00    +0.145 HD
ATOM     40  H   UNL     1       3.816   4.999  -0.094  0.00  0.00    +0.145 HD
ENDBRANCH  19  23
BRANCH  19  21
ATOM     21  C   UNL     1       5.574   1.315  -0.937  0.00  0.00    +0.074 C 
BRANCH  21  24
ATOM      1  S   UNL     1       8.030   0.677   0.147  0.00  0.00    -0.102 S 
ATOM     24  C   UNL     1       6.421   0.287  -0.227  0.00  0.00    -0.008 A 
ATOM     27  C   UNL     1       6.051  -0.960   0.168  0.00  0.00    +0.011 A 
ATOM     31  C   UNL     1       7.129  -1.635   0.808  0.00  0.00    +0.008 A 
ATOM     32  C   UNL     1       8.266  -0.860   0.864  0.00  0.00    +0.045 A 
ENDBRANCH  21  24
ENDBRANCH  19  21
ENDBRANCH  10  19
ENDBRANCH  16  18
BRANCH  13   9
ATOM      6  O   UNL     1      -3.562  -2.598   0.945  0.00  0.00    -0.270 OA
ATOM      9  N   UNL     1      -2.213  -0.917   0.089  0.00  0.00    -0.302 N 
ATOM     20  C   UNL     1      -3.429  -1.488   0.437  0.00  0.00    +0.248 C 
ATOM     35  H   UNL     1      -2.195  -0.027  -0.400  0.00  0.00    +0.150 HD
BRANCH  20  22
ATOM     22  C   UNL     1      -4.637  -0.678   0.134  0.00  0.00    +0.078 A 
ATOM     25  C   UNL     1      -4.561   0.700   0.144  0.00  0.00    +0.133 A 
ATOM     26  C   UNL     1      -5.811  -1.347  -0.150  0.00  0.00    +0.018 A 
ATOM     28  C   UNL     1      -5.707   1.441  -0.143  0.00  0.00    +0.061 A 
ATOM     29  C   UNL     1      -6.957  -0.605  -0.437  0.00  0.00    +0.015 A 
ATOM     30  C   UNL     1      -6.905   0.789  -0.433  0.00  0.00    +0.011 A 
BRANCH  30   2
ATOM      2  S   UNL     1      -8.370   1.736  -0.800  0.00  0.00    -0.128 S 
ATOM     34  C   UNL     1      -8.581   2.695   0.727  0.00  0.00    +0.090 C 
ENDBRANCH  30   2
BRANCH  25   7
ATOM      7  O   UNL     1      -3.399   1.355   0.424  0.00  0.00    -0.494 OA
ATOM     33  C   UNL     1      -3.150   1.674   1.791  0.00  0.00    +0.277 C 
ENDBRANCH  25   7
ENDBRANCH  20  22
ENDBRANCH  13   9
BRANCH  12   3
ATOM      3  O   UNL     1      -0.750  -1.715  -2.120  0.00  0.00    -0.387 OA
ATOM     36  H   UNL     1      -0.279  -0.869  -2.040  0.00  0.00    +0.210 HD
ENDBRANCH  12   3
BRANCH  14   4
ATOM      4  O   UNL     1       1.066  -3.821   0.257  0.00  0.00    -0.389 OA
ATOM     37  H   UNL     1       1.989  -4.125   0.245  0.00  0.00    +0.210 HD
ENDBRANCH  14   4
TORSDOF 11
