REMARK  Name = 75536962
REMARK  2 active torsions:
REMARK  status: ('A' for Active; 'I' for Inactive)
REMARK    1  A    between atoms: O_3  and  C_6
REMARK    2  A    between atoms: O_3  and  C_14
REMARK                            x       y       z     vdW  Elec       q    Type
REMARK                         _______ _______ _______ _____ _____    ______ ____
ROOT
ATOM      1  S   UNL     1       3.074   1.314   0.148  0.00  0.00    -0.052 S 
ATOM      2  O   UNL     1      -0.950   3.433   0.923  0.00  0.00    -0.375 OA
ATOM      4  N   UNL     1       0.671   1.852  -0.919  0.00  0.00    -0.304 N 
ATOM      5  N   UNL     1       1.420  -0.418  -0.809  0.00  0.00    -0.225 NA
ATOM      6  C   UNL     1      -1.610   1.284  -0.087  0.00  0.00    +0.216 C 
ATOM      7  C   UNL     1      -0.711   1.535  -1.305  0.00  0.00    +0.154 C 
ATOM      8  C   UNL     1       0.918   3.275  -0.653  0.00  0.00    +0.135 C 
ATOM      9  C   UNL     1      -1.262   2.067   1.181  0.00  0.00    +0.206 C 
ATOM     10  C   UNL     1       0.450   3.665   0.746  0.00  0.00    +0.179 C 
ATOM     11  C   UNL     1       1.598   0.864  -0.590  0.00  0.00    +0.162 A 
ATOM     12  C   UNL     1       3.545  -0.344   0.193  0.00  0.00    +0.041 A 
ATOM     13  C   UNL     1       2.528  -1.124  -0.365  0.00  0.00    +0.080 A 
ATOM     15  C   UNL     1       4.730  -0.913   0.688  0.00  0.00    +0.017 A 
ATOM     16  C   UNL     1       2.705  -2.523  -0.430  0.00  0.00    +0.029 A 
ATOM     19  C   UNL     1       4.880  -2.300   0.611  0.00  0.00    +0.001 A 
ATOM     20  C   UNL     1       3.882  -3.097   0.060  0.00  0.00    +0.002 A 
ENDROOT
BRANCH   6   3
ATOM      3  O   UNL     1      -1.616  -0.102   0.249  0.00  0.00    -0.485 OA
BRANCH   3  14
ATOM     14  C   UNL     1      -2.817  -0.750   0.155  0.00  0.00    +0.121 A 
ATOM     17  C   UNL     1      -3.485  -0.810  -1.068  0.00  0.00    +0.045 A 
ATOM     18  C   UNL     1      -3.375  -1.352   1.284  0.00  0.00    +0.045 A 
ATOM     21  C   UNL     1      -4.710  -1.470  -1.163  0.00  0.00    +0.004 A 
ATOM     22  C   UNL     1      -4.599  -2.013   1.188  0.00  0.00    +0.004 A 
ATOM     23  C   UNL     1      -5.267  -2.072  -0.035  0.00  0.00    +0.000 A 
ENDBRANCH   3  14
ENDBRANCH   6   3
TORSDOF 2
