REMARK  Name = 40777157
REMARK  6 active torsions:
REMARK  status: ('A' for Active; 'I' for Inactive)
REMARK    1  A    between atoms: N_7  and  C_18
REMARK    2  A    between atoms: C_12  and  C_19
REMARK    3  A    between atoms: C_13  and  C_18
REMARK    4  A    between atoms: C_21  and  C_24
REMARK    5  A    between atoms: C_23  and  C_25
REMARK    6  A    between atoms: C_34  and  C_35
REMARK                            x       y       z     vdW  Elec       q    Type
REMARK                         _______ _______ _______ _____ _____    ______ ____
ROOT
ATOM      6  N   UNL     1      -1.886   2.496  -1.574  0.00  0.00    -0.297 NA
ATOM     11  C   UNL     1      -1.513   2.774   0.988  0.00  0.00    +0.002 C 
ATOM     12  C   UNL     1      -0.171   2.452   0.275  0.00  0.00    +0.055 C 
ATOM     13  C   UNL     1      -2.869   1.669  -0.825  0.00  0.00    +0.074 C 
ATOM     14  C   UNL     1      -2.533   1.657   0.682  0.00  0.00    +0.024 C 
ATOM     15  C   UNL     1      -2.055   4.071   0.352  0.00  0.00    +0.019 C 
ATOM     16  C   UNL     1      -0.503   2.103  -1.204  0.00  0.00    +0.094 C 
ATOM     17  C   UNL     1      -2.087   3.910  -1.178  0.00  0.00    +0.085 C 
ENDROOT
BRANCH  12  19
ATOM      8  N   UNL     1       0.332   0.860   2.063  0.00  0.00    -0.237 NA
ATOM     10  N   UNL     1       2.377  -0.414   2.112  0.00  0.00    -0.232 NA
ATOM     19  C   UNL     1       0.756   1.428   0.915  0.00  0.00    +0.050 A 
ATOM     20  C   UNL     1       1.962   1.131   0.313  0.00  0.00    +0.052 A 
ATOM     21  C   UNL     1       2.739   0.193   0.963  0.00  0.00    +0.075 A 
ATOM     23  C   UNL     1       1.179  -0.039   2.600  0.00  0.00    +0.127 A 
ATOM     25  C   UNL     1       0.745  -0.687   3.871  0.00  0.00    +0.088 C 
BRANCH  21  24
ATOM     24  C   UNL     1       4.023  -0.204   0.436  0.00  0.00    +0.000 A 
ATOM     30  C   UNL     1       4.109  -0.779  -0.831  0.00  0.00    +0.010 A 
ATOM     31  C   UNL     1       5.177  -0.013   1.196  0.00  0.00    +0.010 A 
ATOM     32  C   UNL     1       5.350  -1.163  -1.340  0.00  0.00    +0.013 A 
ATOM     33  C   UNL     1       6.418  -0.396   0.687  0.00  0.00    +0.013 A 
ATOM     34  C   UNL     1       6.504  -0.972  -0.581  0.00  0.00    +0.055 A 
BRANCH  34  35
ATOM      1  F   UNL     1       8.719  -0.351  -1.238  0.00  0.00    -0.166 F 
ATOM      2  F   UNL     1       7.741  -1.927  -2.372  0.00  0.00    -0.166 F 
ATOM      3  F   UNL     1       8.469  -2.319  -0.361  0.00  0.00    -0.166 F 
ATOM     35  C   UNL     1       7.831  -1.382  -1.124  0.00  0.00    +0.417 C 
ENDBRANCH  34  35
ENDBRANCH  21  24
ENDBRANCH  12  19
BRANCH  13  18
ATOM     18  C   UNL     1      -2.992   0.253  -1.392  0.00  0.00    +0.124 C 
BRANCH  18   7
ATOM      4  O   UNL     1      -5.697   0.165  -2.161  0.00  0.00    -0.253 OA
ATOM      5  O   UNL     1      -8.011  -3.187   0.648  0.00  0.00    -0.377 OA
ATOM      7  N   UNL     1      -4.037  -0.484  -0.717  0.00  0.00    -0.298 N 
ATOM      9  N   UNL     1      -6.255  -1.235  -0.398  0.00  0.00    -0.281 N 
ATOM     22  C   UNL     1      -5.354  -0.476  -1.163  0.00  0.00    +0.302 C 
ATOM     26  C   UNL     1      -7.666  -1.277  -0.791  0.00  0.00    +0.137 C 
ATOM     27  C   UNL     1      -5.963  -1.898   0.881  0.00  0.00    +0.137 C 
ATOM     28  C   UNL     1      -8.222  -2.687  -0.673  0.00  0.00    +0.179 C 
ATOM     29  C   UNL     1      -6.616  -3.275   0.940  0.00  0.00    +0.179 C 
ATOM     36  H   UNL     1      -3.755  -1.006   0.099  0.00  0.00    +0.150 HD
ENDBRANCH  18   7
ENDBRANCH  13  18
TORSDOF 5
