REMARK  Name = 45783996
REMARK  13 active torsions:
REMARK  status: ('A' for Active; 'I' for Inactive)
REMARK    1  A    between atoms: O_2  and  C_23
REMARK    2  A    between atoms: N_3  and  C_10
REMARK    3  A    between atoms: C_6  and  C_11
REMARK    4  A    between atoms: C_7  and  C_10
REMARK    5  A    between atoms: C_9  and  C_19
REMARK    6  A    between atoms: C_11  and  C_20
REMARK    7  A    between atoms: C_11  and  C_21
REMARK    8  A    between atoms: C_13  and  C_22
REMARK    9  A    between atoms: C_16  and  C_23
REMARK   10  A    between atoms: C_19  and  C_24
REMARK   11  A    between atoms: C_25  and  C_26
REMARK   12  A    between atoms: C_26  and  C_27
REMARK   13  A    between atoms: C_27  and  C_28
REMARK                            x       y       z     vdW  Elec       q    Type
REMARK                         _______ _______ _______ _____ _____    ______ ____
ROOT
ATOM      6  C   UNL     1       0.078  -1.928   0.689  0.00  0.00    +0.000 C 
ATOM      7  C   UNL     1       0.225  -1.803  -0.845  0.00  0.00    +0.029 C 
ATOM      8  C   UNL     1      -1.199  -1.223   1.167  0.00  0.00    +0.012 C 
ATOM      9  C   UNL     1      -2.480  -1.748   0.484  0.00  0.00    +0.024 C 
ATOM     12  C   UNL     1      -1.072  -2.052  -1.573  0.00  0.00    -0.023 C 
ATOM     13  C   UNL     1      -2.288  -2.044  -0.995  0.00  0.00    -0.073 C 
ATOM     22  C   UNL     1      -3.511  -2.392  -1.799  0.00  0.00    +0.039 C 
ENDROOT
BRANCH   6  11
ATOM     11  C   UNL     1       0.101  -3.396   1.136  0.00  0.00    -0.013 C 
ATOM     20  C   UNL     1       1.521  -3.950   1.071  0.00  0.00    +0.007 C 
ATOM     21  C   UNL     1      -0.469  -3.533   2.544  0.00  0.00    +0.007 C 
ENDBRANCH   6  11
BRANCH   7  10
ATOM     10  C   UNL     1       0.775  -0.432  -1.251  0.00  0.00    +0.092 C 
BRANCH  10   3
ATOM      3  N   UNL     1       2.048  -0.167  -0.581  0.00  0.00    -0.302 NA
ATOM     14  C   UNL     1       3.130  -0.935  -1.211  0.00  0.00    +0.085 C 
ATOM     15  C   UNL     1       2.344   1.272  -0.590  0.00  0.00    +0.085 C 
ATOM     16  C   UNL     1       4.819   0.778  -0.431  0.00  0.00    +0.017 C 
ATOM     17  C   UNL     1       4.459  -0.711  -0.487  0.00  0.00    +0.021 C 
ATOM     18  C   UNL     1       3.646   1.572   0.154  0.00  0.00    +0.021 C 
BRANCH  16  23
ATOM     23  C   UNL     1       6.093   1.005   0.377  0.00  0.00    +0.159 C 
BRANCH  23   2
ATOM      2  O   UNL     1       6.412   2.384   0.338  0.00  0.00    -0.395 OA
ATOM     29  H   UNL     1       7.226   2.505   0.855  0.00  0.00    +0.209 HD
ENDBRANCH  23   2
ENDBRANCH  16  23
ENDBRANCH  10   3
ENDBRANCH   7  10
BRANCH   9  19
ATOM     19  C   UNL     1      -3.619  -0.757   0.751  0.00  0.00    +0.105 C 
BRANCH  19  24
ATOM      1  O   UNL     1      -3.315   1.661   0.884  0.00  0.00    -0.425 OA
ATOM      4  N   UNL     1      -3.180   0.834  -1.190  0.00  0.00    -0.112 NA
ATOM      5  N   UNL     1      -2.990   2.201  -1.262  0.00  0.00    -0.112 NA
ATOM     24  C   UNL     1      -3.366   0.563   0.081  0.00  0.00    +0.218 A 
ATOM     25  C   UNL     1      -3.077   2.642  -0.029  0.00  0.00    +0.217 A 
BRANCH  25  26
ATOM     26  C   UNL     1      -2.953   4.011   0.486  0.00  0.00    +0.097 C 
BRANCH  26  27
ATOM     27  C   UNL     1      -1.489   4.495   0.569  0.00  0.00    +0.006 C 
ATOM     28  C   UNL     1      -0.644   3.654   1.512  0.00  0.00    +0.004 C 
ENDBRANCH  26  27
ENDBRANCH  25  26
ENDBRANCH  19  24
ENDBRANCH   9  19
TORSDOF 9
