REMARK  Name = 45783974
REMARK  16 active torsions:
REMARK  status: ('A' for Active; 'I' for Inactive)
REMARK    1  A    between atoms: O_2  and  C_22
REMARK    2  A    between atoms: N_3  and  C_14
REMARK    3  A    between atoms: N_3  and  C_20
REMARK    4  A    between atoms: N_3  and  C_21
REMARK    5  A    between atoms: N_6  and  C_29
REMARK    6  A    between atoms: N_6  and  C_30
REMARK    7  A    between atoms: N_6  and  C_31
REMARK    8  A    between atoms: C_7  and  C_11
REMARK    9  A    between atoms: C_8  and  C_14
REMARK   10  A    between atoms: C_10  and  C_15
REMARK   11  A    between atoms: C_11  and  C_16
REMARK   12  A    between atoms: C_11  and  C_17
REMARK   13  A    between atoms: C_12  and  C_18
REMARK   14  A    between atoms: C_15  and  C_19
REMARK   15  A    between atoms: C_20  and  C_22
REMARK   16  A    between atoms: C_23  and  C_24
REMARK                            x       y       z     vdW  Elec       q    Type
REMARK                         _______ _______ _______ _____ _____    ______ ____
ROOT
ATOM      7  C   UNL     1       3.541  -0.461  -0.872  0.00  0.00    +0.000 C 
ATOM      8  C   UNL     1       3.703  -0.580   0.661  0.00  0.00    +0.029 C 
ATOM      9  C   UNL     1       2.443   0.554  -1.220  0.00  0.00    +0.012 C 
ATOM     10  C   UNL     1       2.693   1.954  -0.619  0.00  0.00    +0.024 C 
ATOM     12  C   UNL     1       3.258   1.905   0.792  0.00  0.00    -0.073 C 
ATOM     13  C   UNL     1       3.693   0.760   1.351  0.00  0.00    -0.023 C 
ATOM     18  C   UNL     1       3.373   3.205   1.540  0.00  0.00    +0.039 C 
ENDROOT
BRANCH   7  11
ATOM     11  C   UNL     1       4.870  -0.095  -1.548  0.00  0.00    -0.013 C 
ATOM     16  C   UNL     1       4.621   0.439  -2.955  0.00  0.00    +0.007 C 
ATOM     17  C   UNL     1       5.799  -1.304  -1.585  0.00  0.00    +0.007 C 
ENDBRANCH   7  11
BRANCH   8  14
ATOM     14  C   UNL     1       2.620  -1.471   1.277  0.00  0.00    +0.092 C 
BRANCH  14   3
ATOM      3  N   UNL     1       2.617  -2.782   0.651  0.00  0.00    -0.303 NA
ATOM     21  C   UNL     1       3.680  -3.626   1.205  0.00  0.00    +0.105 C 
BRANCH   3  20
ATOM     20  C   UNL     1       1.316  -3.437   0.820  0.00  0.00    +0.112 C 
BRANCH  20  22
ATOM     22  C   UNL     1       0.306  -2.887  -0.174  0.00  0.00    +0.171 C 
BRANCH  22   2
ATOM      2  O   UNL     1      -0.932  -3.561   0.013  0.00  0.00    -0.394 OA
ATOM     32  H   UNL     1      -1.558  -3.194  -0.635  0.00  0.00    +0.209 HD
ENDBRANCH  22   2
ENDBRANCH  20  22
ENDBRANCH   3  20
ENDBRANCH  14   3
ENDBRANCH   8  14
BRANCH  10  15
ATOM     15  C   UNL     1       1.395   2.766  -0.714  0.00  0.00    +0.105 C 
BRANCH  15  19
ATOM      1  O   UNL     1      -0.834   1.805  -0.460  0.00  0.00    -0.420 OA
ATOM      4  N   UNL     1       0.313   1.978   1.453  0.00  0.00    -0.112 NA
ATOM      5  N   UNL     1      -0.919   1.423   1.743  0.00  0.00    -0.107 NA
ATOM     19  C   UNL     1       0.319   2.184   0.157  0.00  0.00    +0.218 A 
ATOM     23  C   UNL     1      -1.555   1.341   0.597  0.00  0.00    +0.248 A 
BRANCH  23  24
ATOM     24  C   UNL     1      -2.866   0.846   0.293  0.00  0.00    +0.039 A 
ATOM     25  C   UNL     1      -3.678   0.350   1.313  0.00  0.00    +0.015 A 
ATOM     26  C   UNL     1      -3.330   0.863  -1.022  0.00  0.00    +0.015 A 
ATOM     27  C   UNL     1      -4.954  -0.131   1.017  0.00  0.00    +0.024 A 
ATOM     28  C   UNL     1      -4.606   0.382  -1.318  0.00  0.00    +0.024 A 
ATOM     29  C   UNL     1      -5.418  -0.115  -0.298  0.00  0.00    +0.029 A 
BRANCH  29   6
ATOM      6  N   UNL     1      -6.707  -0.602  -0.597  0.00  0.00    -0.336 N 
ATOM     30  C   UNL     1      -7.202  -0.582  -1.959  0.00  0.00    +0.129 C 
ATOM     31  C   UNL     1      -7.558  -1.121   0.456  0.00  0.00    +0.129 C 
ENDBRANCH  29   6
ENDBRANCH  23  24
ENDBRANCH  15  19
ENDBRANCH  10  15
TORSDOF 10
