REMARK  Name = 51137136
REMARK  6 active torsions:
REMARK  status: ('A' for Active; 'I' for Inactive)
REMARK    1  A    between atoms: S_1  and  C_18
REMARK    2  A    between atoms: S_1  and  C_23
REMARK    3  A    between atoms: N_6  and  C_13
REMARK    4  A    between atoms: C_8  and  C_12
REMARK    5  A    between atoms: C_13  and  C_14
REMARK    6  A    between atoms: C_23  and  C_27
REMARK                            x       y       z     vdW  Elec       q    Type
REMARK                         _______ _______ _______ _____ _____    ______ ____
ROOT
ATOM      3  O   UNL     1       1.443  -2.000   0.436  0.00  0.00    -0.439 OA
ATOM      7  N   UNL     1       1.279   0.229   0.060  0.00  0.00    -0.213 NA
ATOM     12  C   UNL     1       0.652  -0.897   0.322  0.00  0.00    +0.201 A 
ATOM     15  C   UNL     1       2.598  -0.151  -0.007  0.00  0.00    +0.111 A 
ATOM     16  C   UNL     1       2.702  -1.515   0.223  0.00  0.00    +0.155 A 
ATOM     17  C   UNL     1       3.765   0.585  -0.255  0.00  0.00    +0.058 A 
ATOM     18  C   UNL     1       4.988  -0.100  -0.258  0.00  0.00    +0.090 A 
ATOM     21  C   UNL     1       3.894  -2.228   0.228  0.00  0.00    +0.050 A 
ATOM     22  C   UNL     1       5.049  -1.479  -0.021  0.00  0.00    +0.030 A 
ENDROOT
BRANCH  12   8
ATOM      6  N   UNL     1      -2.939  -0.335  -0.141  0.00  0.00    -0.297 NA
ATOM      8  C   UNL     1      -0.830  -1.124   0.512  0.00  0.00    +0.090 C 
ATOM      9  C   UNL     1      -1.462  -0.330   1.668  0.00  0.00    +0.029 C 
ATOM     10  C   UNL     1      -1.658  -0.741  -0.722  0.00  0.00    +0.097 C 
ATOM     11  C   UNL     1      -2.585   0.474   1.025  0.00  0.00    +0.085 C 
BRANCH   6  13
ATOM     13  C   UNL     1      -3.772   0.391  -1.088  0.00  0.00    +0.119 C 
BRANCH  13  14
ATOM      2  F   UNL     1      -9.171   0.502   0.524  0.00  0.00    -0.205 F 
ATOM     14  C   UNL     1      -5.215   0.421  -0.657  0.00  0.00    -0.033 A 
ATOM     19  C   UNL     1      -6.085  -0.589  -1.065  0.00  0.00    +0.008 A 
ATOM     20  C   UNL     1      -5.681   1.459   0.150  0.00  0.00    +0.008 A 
ATOM     24  C   UNL     1      -7.422  -0.562  -0.666  0.00  0.00    +0.038 A 
ATOM     25  C   UNL     1      -7.017   1.487   0.549  0.00  0.00    +0.038 A 
ATOM     26  C   UNL     1      -7.888   0.476   0.141  0.00  0.00    +0.123 A 
ENDBRANCH  13  14
ENDBRANCH   6  13
ENDBRANCH  12   8
BRANCH  18   1
ATOM      1  S   UNL     1       6.465   0.786  -0.566  0.00  0.00    -0.003 S 
ATOM      4  O   UNL     1       7.468  -0.137  -1.076  0.00  0.00    -0.169 OA
ATOM      5  O   UNL     1       6.119   1.976  -1.329  0.00  0.00    -0.169 OA
BRANCH   1  23
ATOM     23  C   UNL     1       7.009   1.306   1.045  0.00  0.00    +0.168 C 
ATOM     27  C   UNL     1       8.294   2.098   0.968  0.00  0.00    +0.028 C 
ENDBRANCH   1  23
ENDBRANCH  18   1
TORSDOF 5
