REMARK  Name = 51136740
REMARK  8 active torsions:
REMARK  status: ('A' for Active; 'I' for Inactive)
REMARK    1  A    between atoms: O_1  and  C_17
REMARK    2  A    between atoms: N_6  and  C_25
REMARK    3  A    between atoms: C_7  and  C_11
REMARK    4  A    between atoms: C_8  and  C_13
REMARK    5  A    between atoms: C_11  and  C_14
REMARK    6  A    between atoms: C_13  and  C_17
REMARK    7  A    between atoms: C_23  and  C_26
REMARK    8  A    between atoms: C_25  and  C_27
REMARK                            x       y       z     vdW  Elec       q    Type
REMARK                         _______ _______ _______ _____ _____    ______ ____
ROOT
ATOM      2  O   UNL     1      -4.544  -1.122  -0.391  0.00  0.00    -0.253 OA
ATOM      4  N   UNL     1      -2.511  -1.318   0.706  0.00  0.00    -0.285 N 
ATOM      6  N   UNL     1      -3.585   0.775   0.469  0.00  0.00    -0.296 N 
ATOM      7  C   UNL     1      -0.046  -1.053   0.694  0.00  0.00    +0.016 C 
ATOM      8  C   UNL     1       0.080  -2.574   0.410  0.00  0.00    +0.006 C 
ATOM      9  C   UNL     1      -1.177  -3.133  -0.280  0.00  0.00    +0.023 C 
ATOM     10  C   UNL     1      -1.361  -0.776   1.444  0.00  0.00    +0.113 C 
ATOM     12  C   UNL     1      -2.447  -2.763   0.485  0.00  0.00    +0.109 C 
ATOM     15  C   UNL     1      -3.611  -0.592   0.222  0.00  0.00    +0.302 C 
ATOM     29  H   UNL     1      -2.786   1.220   0.898  0.00  0.00    +0.151 HD
ENDROOT
BRANCH   7  11
ATOM     11  C   UNL     1       0.051  -0.174  -0.559  0.00  0.00    +0.061 C 
BRANCH  11  14
ATOM      5  N   UNL     1      -0.534   2.064   0.085  0.00  0.00    -0.287 NA
ATOM     14  C   UNL     1       0.425   1.236  -0.169  0.00  0.00    +0.044 C 
ATOM     16  C   UNL     1       1.863   1.598  -0.089  0.00  0.00    -0.001 A 
ATOM     18  C   UNL     1       2.182   2.756   0.632  0.00  0.00    -0.037 A 
ATOM     19  C   UNL     1       1.073   3.532   1.277  0.00  0.00    +0.059 C 
ATOM     20  C   UNL     1      -0.172   3.450   0.404  0.00  0.00    +0.146 C 
ATOM     21  C   UNL     1       2.869   0.833  -0.681  0.00  0.00    +0.013 A 
ATOM     22  C   UNL     1       3.521   3.130   0.779  0.00  0.00    +0.004 A 
ATOM     23  C   UNL     1       4.202   1.223  -0.542  0.00  0.00    -0.050 A 
ATOM     24  C   UNL     1       4.527   2.366   0.188  0.00  0.00    +0.003 A 
ATOM     26  C   UNL     1       5.283   0.412  -1.173  0.00  0.00    +0.044 C 
ENDBRANCH  11  14
ENDBRANCH   7  11
BRANCH   8  13
ATOM     13  C   UNL     1       1.336  -2.933  -0.383  0.00  0.00    +0.124 C 
BRANCH  13  17
ATOM      3  O   UNL     1       1.147  -5.192   0.513  0.00  0.00    -0.251 OA
ATOM     17  C   UNL     1       1.727  -4.372  -0.182  0.00  0.00    +0.305 C 
BRANCH  17   1
ATOM      1  O   UNL     1       2.847  -4.646  -0.898  0.00  0.00    -0.481 OA
ATOM     30  H   UNL     1       3.131  -5.579  -0.790  0.00  0.00    +0.295 HD
ENDBRANCH  17   1
ENDBRANCH  13  17
ENDBRANCH   8  13
BRANCH   6  25
ATOM     25  C   UNL     1      -4.642   1.657   0.026  0.00  0.00    +0.132 C 
BRANCH  25  27
ATOM     27  C   UNL     1      -4.315   2.161  -1.340  0.00  0.00    -0.016 C 
ATOM     28  C   UNL     1      -4.188   3.457  -1.646  0.00  0.00    +0.005 C 
ENDBRANCH  25  27
ENDBRANCH   6  25
TORSDOF 7
