REMARK  Name = 45361052
REMARK  9 active torsions:
REMARK  status: ('A' for Active; 'I' for Inactive)
REMARK    1  A    between atoms: S_1  and  C_27
REMARK    2  A    between atoms: S_1  and  C_29
REMARK    3  A    between atoms: N_6  and  C_17
REMARK    4  A    between atoms: N_7  and  C_19
REMARK    5  A    between atoms: N_9  and  C_28
REMARK    6  A    between atoms: C_14  and  C_18
REMARK    7  A    between atoms: C_17  and  C_21
REMARK    8  A    between atoms: C_18  and  C_20
REMARK    9  A    between atoms: C_20  and  C_24
REMARK                            x       y       z     vdW  Elec       q    Type
REMARK                         _______ _______ _______ _____ _____    ______ ____
ROOT
ATOM      2  O   UNL     1       0.450   0.016  -1.417  0.00  0.00    -0.274 OA
ATOM      6  N   UNL     1       2.105  -1.526   0.058  0.00  0.00    -0.286 NA
ATOM      7  N   UNL     1      -1.310  -2.531   0.908  0.00  0.00    -0.296 NA
ATOM      8  N   UNL     1      -1.065  -1.650  -1.828  0.00  0.00    -0.312 N 
ATOM     10  C   UNL     1       0.146  -2.764   0.782  0.00  0.00    +0.084 C 
ATOM     11  C   UNL     1       0.886  -2.178  -0.457  0.00  0.00    +0.161 C 
ATOM     12  C   UNL     1       0.974  -2.194   1.949  0.00  0.00    +0.036 C 
ATOM     13  C   UNL     1       2.371  -2.095   1.375  0.00  0.00    +0.087 C 
ATOM     14  C   UNL     1      -2.129  -3.151  -0.170  0.00  0.00    +0.074 C 
ATOM     15  C   UNL     1       0.091  -1.150  -1.257  0.00  0.00    +0.232 C 
ATOM     16  C   UNL     1      -1.557  -2.993  -1.592  0.00  0.00    +0.123 C 
ATOM     19  C   UNL     1      -1.796  -2.962   2.230  0.00  0.00    +0.105 C 
ATOM     35  H   UNL     1      -1.605  -1.035  -2.428  0.00  0.00    +0.149 HD
ENDROOT
BRANCH   6  17
ATOM     17  C   UNL     1       3.249  -1.653  -0.836  0.00  0.00    +0.120 C 
BRANCH  17  21
ATOM     21  C   UNL     1       4.286  -0.594  -0.573  0.00  0.00    -0.033 A 
ATOM     22  C   UNL     1       4.078   0.712  -1.017  0.00  0.00    +0.007 A 
ATOM     23  C   UNL     1       5.455  -0.919   0.115  0.00  0.00    +0.007 A 
ATOM     25  C   UNL     1       5.039   1.693  -0.773  0.00  0.00    +0.027 A 
ATOM     26  C   UNL     1       6.417   0.062   0.358  0.00  0.00    +0.027 A 
ATOM     27  C   UNL     1       6.208   1.368  -0.086  0.00  0.00    +0.088 A 
BRANCH  27   1
ATOM      1  S   UNL     1       7.409   2.598   0.222  0.00  0.00    -0.006 S 
ATOM      4  O   UNL     1       8.703   1.956   0.410  0.00  0.00    -0.170 OA
ATOM      5  O   UNL     1       7.257   3.635  -0.788  0.00  0.00    -0.170 OA
ATOM     29  C   UNL     1       6.941   3.290   1.792  0.00  0.00    +0.200 C 
ENDBRANCH  27   1
ENDBRANCH  17  21
ENDBRANCH   6  17
BRANCH  14  18
ATOM     18  C   UNL     1      -3.554  -2.558  -0.174  0.00  0.00    +0.029 C 
BRANCH  18  20
ATOM     20  C   UNL     1      -3.535  -1.042  -0.072  0.00  0.00    +0.098 C 
BRANCH  20  24
ATOM      3  O   UNL     1      -5.946  -1.071  -0.080  0.00  0.00    -0.275 OA
ATOM      9  N   UNL     1      -4.814   0.982   0.050  0.00  0.00    -0.285 N 
ATOM     24  C   UNL     1      -4.918  -0.403  -0.044  0.00  0.00    +0.217 C 
ATOM     36  H   UNL     1      -3.878   1.382   0.084  0.00  0.00    +0.155 HD
BRANCH   9  28
ATOM     28  C   UNL     1      -5.869   1.924   0.102  0.00  0.00    +0.033 A 
ATOM     30  C   UNL     1      -5.582   3.286   0.197  0.00  0.00    +0.023 A 
ATOM     31  C   UNL     1      -7.194   1.492   0.058  0.00  0.00    +0.023 A 
ATOM     32  C   UNL     1      -6.621   4.216   0.248  0.00  0.00    +0.002 A 
ATOM     33  C   UNL     1      -8.233   2.422   0.109  0.00  0.00    +0.002 A 
ATOM     34  C   UNL     1      -7.946   3.784   0.204  0.00  0.00    +0.000 A 
ENDBRANCH   9  28
ENDBRANCH  20  24
ENDBRANCH  18  20
ENDBRANCH  14  18
TORSDOF 7
