REMARK  Name = 51137955
REMARK  6 active torsions:
REMARK  status: ('A' for Active; 'I' for Inactive)
REMARK    1  A    between atoms: N_3  and  C_5
REMARK    2  A    between atoms: C_9  and  C_13
REMARK    3  A    between atoms: C_10  and  C_16
REMARK    4  A    between atoms: C_13  and  C_17
REMARK    5  A    between atoms: C_17  and  C_22
REMARK    6  A    between atoms: C_17  and  C_23
REMARK                            x       y       z     vdW  Elec       q    Type
REMARK                         _______ _______ _______ _____ _____    ______ ____
ROOT
ATOM      2  N   UNL     1      -0.264   0.275   0.581  0.00  0.00    -0.299 NA
ATOM      4  N   UNL     1       4.154  -2.131   0.135  0.00  0.00    -0.360 N 
ATOM      9  C   UNL     1       0.610   1.184  -0.173  0.00  0.00    +0.085 C 
ATOM     10  C   UNL     1      -0.424  -1.045  -0.011  0.00  0.00    +0.145 C 
ATOM     11  C   UNL     1       0.523  -2.062   0.623  0.00  0.00    +0.065 C 
ATOM     12  C   UNL     1       2.078   0.761  -0.286  0.00  0.00    -0.021 A 
ATOM     14  C   UNL     1       2.575  -0.550  -0.032  0.00  0.00    +0.008 A 
ATOM     15  C   UNL     1       1.966  -1.793   0.358  0.00  0.00    -0.020 A 
ATOM     18  C   UNL     1       3.942  -0.810  -0.185  0.00  0.00    +0.047 A 
ATOM     19  C   UNL     1       2.973  -2.732   0.457  0.00  0.00    +0.087 A 
ATOM     20  C   UNL     1       3.024   1.709  -0.752  0.00  0.00    +0.006 A 
ATOM     21  C   UNL     1       4.866   0.150  -0.600  0.00  0.00    +0.026 A 
ATOM     24  C   UNL     1       4.379   1.417  -0.895  0.00  0.00    +0.002 A 
ATOM     25  H   UNL     1       0.032   0.209   1.554  0.00  0.00    +0.123 HD
ATOM     27  H   UNL     1       5.053  -2.592   0.117  0.00  0.00    +0.165 HD
ENDROOT
BRANCH  10  16
ATOM      1  O   UNL     1      -2.132  -2.060   1.305  0.00  0.00    -0.274 OA
ATOM      3  N   UNL     1      -2.740  -1.029  -0.684  0.00  0.00    -0.311 N 
ATOM     16  C   UNL     1      -1.839  -1.440   0.284  0.00  0.00    +0.231 C 
ATOM     26  H   UNL     1      -2.381  -0.518  -1.487  0.00  0.00    +0.149 HD
BRANCH   3   5
ATOM      5  C   UNL     1      -4.185  -1.301  -0.585  0.00  0.00    +0.073 C 
ATOM      6  C   UNL     1      -5.046  -0.542  -1.616  0.00  0.00    +0.022 C 
ATOM      7  C   UNL     1      -4.912  -0.487   0.506  0.00  0.00    +0.022 C 
ATOM      8  C   UNL     1      -6.081  -0.341  -0.489  0.00  0.00    +0.004 C 
ENDBRANCH   3   5
ENDBRANCH  10  16
BRANCH   9  13
ATOM     13  C   UNL     1       0.441   2.549   0.518  0.00  0.00    +0.026 C 
BRANCH  13  17
ATOM     17  C   UNL     1      -0.875   3.245   0.155  0.00  0.00    -0.015 C 
ATOM     22  C   UNL     1      -2.103   2.422   0.546  0.00  0.00    +0.007 C 
ATOM     23  C   UNL     1      -0.929   4.612   0.841  0.00  0.00    +0.007 C 
ENDBRANCH  13  17
ENDBRANCH   9  13
TORSDOF 4
