REMARK  Name = 11885926
REMARK  6 active torsions:
REMARK  status: ('A' for Active; 'I' for Inactive)
REMARK    1  A    between atoms: O_5  and  C_27
REMARK    2  A    between atoms: O_5  and  C_31
REMARK    3  A    between atoms: N_8  and  C_22
REMARK    4  A    between atoms: N_9  and  C_20
REMARK    5  A    between atoms: C_23  and  C_24
REMARK    6  A    between atoms: C_24  and  C_27
REMARK                            x       y       z     vdW  Elec       q    Type
REMARK                         _______ _______ _______ _____ _____    ______ ____
ROOT
ATOM      2  O   UNL     1      -0.348   2.528   2.134  0.00  0.00    -0.266 OA
ATOM      3  O   UNL     1      -2.634  -2.140   1.602  0.00  0.00    -0.252 OA
ATOM      6  N   UNL     1      -3.420  -0.755  -0.077  0.00  0.00    -0.284 N 
ATOM      7  N   UNL     1      -1.791   1.948   0.390  0.00  0.00    -0.310 N 
ATOM      8  N   UNL     1      -1.734  -2.345  -0.525  0.00  0.00    -0.269 N 
ATOM     10  C   UNL     1      -4.272   1.442   0.756  0.00  0.00    +0.027 C 
ATOM     11  C   UNL     1      -3.316   1.284  -1.503  0.00  0.00    +0.054 C 
ATOM     12  C   UNL     1      -4.439   1.914  -0.683  0.00  0.00    +0.018 C 
ATOM     13  C   UNL     1      -4.361  -0.091   0.829  0.00  0.00    +0.114 C 
ATOM     14  C   UNL     1      -2.941   1.970   1.303  0.00  0.00    +0.130 C 
ATOM     15  C   UNL     1      -3.439  -0.254  -1.464  0.00  0.00    +0.119 C 
ATOM     16  C   UNL     1      -1.955   1.702  -0.977  0.00  0.00    +0.027 A 
ATOM     17  C   UNL     1      -0.907   1.801  -1.812  0.00  0.00    +0.024 A 
ATOM     18  C   UNL     1      -0.538   2.287   0.942  0.00  0.00    +0.273 A 
ATOM     19  C   UNL     1      -2.585  -1.779   0.423  0.00  0.00    +0.306 C 
ATOM     20  C   UNL     1       0.608   2.361  -0.018  0.00  0.00    +0.099 A 
ATOM     21  C   UNL     1       0.399   2.136  -1.320  0.00  0.00    +0.030 A 
ATOM     32  H   UNL     1      -2.025  -2.339  -1.497  0.00  0.00    +0.156 HD
ENDROOT
BRANCH   8  22
ATOM      1  F   UNL     1       3.102  -4.882   0.407  0.00  0.00    -0.205 F 
ATOM     22  C   UNL     1      -0.497  -2.992  -0.287  0.00  0.00    +0.035 A 
ATOM     25  C   UNL     1       0.185  -3.590  -1.343  0.00  0.00    +0.026 A 
ATOM     26  C   UNL     1       0.028  -3.029   1.002  0.00  0.00    +0.026 A 
ATOM     28  C   UNL     1       1.403  -4.229  -1.108  0.00  0.00    +0.040 A 
ATOM     29  C   UNL     1       1.246  -3.668   1.236  0.00  0.00    +0.040 A 
ATOM     30  C   UNL     1       1.933  -4.268   0.181  0.00  0.00    +0.124 A 
ENDBRANCH   8  22
BRANCH  20   9
ATOM      4  O   UNL     1       3.130   1.515  -1.080  0.00  0.00    -0.275 OA
ATOM      9  N   UNL     1       1.840   2.670   0.478  0.00  0.00    -0.281 N 
ATOM     23  C   UNL     1       3.031   2.227  -0.083  0.00  0.00    +0.220 C 
ATOM     33  H   UNL     1       1.871   3.056   1.419  0.00  0.00    +0.155 HD
BRANCH  23  24
ATOM     24  C   UNL     1       4.234   2.737   0.696  0.00  0.00    +0.124 C 
BRANCH  24  27
ATOM     27  C   UNL     1       5.560   2.274   0.112  0.00  0.00    +0.168 C 
BRANCH  27   5
ATOM      5  O   UNL     1       5.626   0.854   0.158  0.00  0.00    -0.382 OA
ATOM     31  C   UNL     1       6.854   0.372  -0.369  0.00  0.00    +0.194 C 
ENDBRANCH  27   5
ENDBRANCH  24  27
ENDBRANCH  23  24
ENDBRANCH  20   9
TORSDOF 5
