REMARK  Name = 75367072
REMARK  10 active torsions:
REMARK  status: ('A' for Active; 'I' for Inactive)
REMARK    1  A    between atoms: O_2  and  C_7
REMARK    2  A    between atoms: N_4  and  C_6
REMARK    3  A    between atoms: N_4  and  C_16
REMARK    4  A    between atoms: N_5  and  C_13
REMARK    5  A    between atoms: C_8  and  C_13
REMARK    6  A    between atoms: C_9  and  C_18
REMARK    7  A    between atoms: C_16  and  C_17
REMARK    8  A    between atoms: C_17  and  C_19
REMARK    9  A    between atoms: C_17  and  C_20
REMARK   10  A    between atoms: C_17  and  C_21
REMARK                            x       y       z     vdW  Elec       q    Type
REMARK                         _______ _______ _______ _____ _____    ______ ____
ROOT
ATOM      1  O   UNL     1      -0.207  -1.217   0.147  0.00  0.00    -0.371 OA
ATOM      6  C   UNL     1      -2.170   0.064  -0.238  0.00  0.00    +0.111 C 
ATOM      7  C   UNL     1      -1.148   0.927   0.479  0.00  0.00    +0.164 C 
ATOM      8  C   UNL     1       0.140   0.178   0.167  0.00  0.00    +0.165 C 
ATOM     10  C   UNL     1      -1.637  -1.331   0.046  0.00  0.00    +0.181 C 
ENDROOT
BRANCH   7   2
ATOM      2  O   UNL     1      -1.117   2.255  -0.008  0.00  0.00    -0.388 OA
ATOM     24  H   UNL     1      -0.948   2.226  -0.965  0.00  0.00    +0.210 HD
ENDBRANCH   7   2
BRANCH   6   4
ATOM      4  N   UNL     1      -3.531   0.258   0.234  0.00  0.00    -0.308 NA
ATOM     22  H   UNL     1      -3.711   1.257   0.325  0.00  0.00    +0.122 HD
BRANCH   4  16
ATOM     16  C   UNL     1      -4.496  -0.324  -0.692  0.00  0.00    +0.087 C 
BRANCH  16  17
ATOM     17  C   UNL     1      -5.968  -0.217  -0.221  0.00  0.00    -0.025 C 
ATOM     19  C   UNL     1      -6.158  -0.855   1.167  0.00  0.00    +0.012 C 
ATOM     20  C   UNL     1      -6.916  -0.896  -1.225  0.00  0.00    +0.012 C 
ATOM     21  C   UNL     1      -6.338   1.276  -0.127  0.00  0.00    +0.012 C 
ENDBRANCH  16  17
ENDBRANCH   4  16
ENDBRANCH   6   4
BRANCH   8  13
ATOM     13  C   UNL     1       1.238   0.419   1.188  0.00  0.00    +0.138 C 
BRANCH  13   5
ATOM      3  O   UNL     1       3.455   1.320  -0.455  0.00  0.00    -0.276 OA
ATOM      5  N   UNL     1       2.428  -0.309   0.856  0.00  0.00    -0.313 N 
ATOM     18  C   UNL     1       3.444   0.204   0.058  0.00  0.00    +0.216 C 
ATOM     23  H   UNL     1       2.523  -1.247   1.233  0.00  0.00    +0.149 HD
BRANCH  18   9
ATOM      9  C   UNL     1       4.584  -0.754  -0.110  0.00  0.00    +0.075 C 
ATOM     11  C   UNL     1       5.631  -0.532   0.987  0.00  0.00    +0.013 C 
ATOM     12  C   UNL     1       5.300  -0.513  -1.440  0.00  0.00    +0.013 C 
ATOM     14  C   UNL     1       6.946  -0.269   0.261  0.00  0.00    +0.001 C 
ATOM     15  C   UNL     1       6.522   0.317  -1.074  0.00  0.00    +0.001 C 
ENDBRANCH  18   9
ENDBRANCH  13   5
ENDBRANCH   8  13
TORSDOF 7
