REMARK  Name = 25390428
REMARK  10 active torsions:
REMARK  status: ('A' for Active; 'I' for Inactive)
REMARK    1  A    between atoms: O_2  and  C_8
REMARK    2  A    between atoms: O_3  and  C_10
REMARK    3  A    between atoms: N_6  and  C_13
REMARK    4  A    between atoms: N_7  and  C_15
REMARK    5  A    between atoms: C_9  and  C_12
REMARK    6  A    between atoms: C_11  and  C_13
REMARK    7  A    between atoms: C_12  and  C_14
REMARK    8  A    between atoms: C_15  and  C_17
REMARK    9  A    between atoms: C_15  and  C_18
REMARK   10  A    between atoms: C_16  and  C_19
REMARK                            x       y       z     vdW  Elec       q    Type
REMARK                         _______ _______ _______ _____ _____    ______ ____
ROOT
ATOM      1  O   UNL     1       1.099   0.089  -0.616  0.00  0.00    -0.366 OA
ATOM      8  C   UNL     1       1.563   1.944   0.764  0.00  0.00    +0.175 C 
ATOM      9  C   UNL     1       0.501   1.294  -0.106  0.00  0.00    +0.158 C 
ATOM     10  C   UNL     1       2.829   1.598   0.007  0.00  0.00    +0.176 C 
ATOM     11  C   UNL     1       2.534   0.181  -0.473  0.00  0.00    +0.167 C 
ENDROOT
BRANCH   8   2
ATOM      2  O   UNL     1       1.357   3.333   0.905  0.00  0.00    -0.387 OA
ATOM     20  H   UNL     1       2.129   3.697   1.370  0.00  0.00    +0.210 HD
ENDBRANCH   8   2
BRANCH  10   3
ATOM      3  O   UNL     1       2.963   2.436  -1.141  0.00  0.00    -0.387 OA
ATOM     21  H   UNL     1       3.765   2.155  -1.614  0.00  0.00    +0.210 HD
ENDBRANCH  10   3
BRANCH   9  12
ATOM     12  C   UNL     1      -0.772   0.954   0.649  0.00  0.00    +0.130 C 
BRANCH  12  14
ATOM      4  O   UNL     1      -1.863   0.744  -1.499  0.00  0.00    -0.276 OA
ATOM      7  N   UNL     1      -3.083   0.334   0.436  0.00  0.00    -0.313 N 
ATOM     14  C   UNL     1      -1.941   0.673  -0.276  0.00  0.00    +0.216 C 
ATOM     23  H   UNL     1      -3.023   0.246   1.447  0.00  0.00    +0.149 HD
BRANCH   7  15
ATOM     15  C   UNL     1      -4.343   0.018  -0.197  0.00  0.00    +0.067 C 
ATOM     17  C   UNL     1      -5.503   0.445   0.692  0.00  0.00    +0.027 C 
ATOM     18  C   UNL     1      -4.417  -1.468  -0.528  0.00  0.00    +0.027 C 
ENDBRANCH   7  15
ENDBRANCH  12  14
ENDBRANCH   9  12
BRANCH  11  13
ATOM     13  C   UNL     1       2.974  -0.887   0.518  0.00  0.00    +0.138 C 
BRANCH  13   6
ATOM      5  O   UNL     1       0.538  -2.412   0.932  0.00  0.00    -0.276 OA
ATOM      6  N   UNL     1       2.675  -2.201   0.030  0.00  0.00    -0.313 N 
ATOM     16  C   UNL     1       1.476  -2.860   0.278  0.00  0.00    +0.210 C 
ATOM     19  C   UNL     1       1.414  -4.216  -0.373  0.00  0.00    +0.109 C 
ATOM     22  H   UNL     1       3.378  -2.662  -0.542  0.00  0.00    +0.149 HD
ENDBRANCH  13   6
ENDBRANCH  11  13
TORSDOF 7
