REMARK  Name = 40779505
REMARK  14 active torsions:
REMARK  status: ('A' for Active; 'I' for Inactive)
REMARK    1  A    between atoms: O_2  and  C_29
REMARK    2  A    between atoms: O_2  and  C_32
REMARK    3  A    between atoms: O_3  and  C_31
REMARK    4  A    between atoms: O_3  and  C_33
REMARK    5  A    between atoms: N_5  and  C_19
REMARK    6  A    between atoms: N_6  and  C_15
REMARK    7  A    between atoms: C_9  and  C_16
REMARK    8  A    between atoms: C_10  and  C_15
REMARK    9  A    between atoms: C_18  and  C_22
REMARK   10  A    between atoms: C_20  and  C_21
REMARK   11  A    between atoms: C_21  and  C_23
REMARK   12  A    between atoms: C_21  and  C_24
REMARK   13  A    between atoms: C_23  and  C_27
REMARK   14  A    between atoms: C_24  and  C_28
REMARK                            x       y       z     vdW  Elec       q    Type
REMARK                         _______ _______ _______ _____ _____    ______ ____
ROOT
ATOM      4  N   UNL     1      -3.144  -2.531   0.777  0.00  0.00    -0.297 NA
ATOM      8  C   UNL     1      -1.691  -2.444  -1.383  0.00  0.00    +0.002 C 
ATOM      9  C   UNL     1      -0.864  -3.005  -0.193  0.00  0.00    +0.055 C 
ATOM     10  C   UNL     1      -3.249  -1.188   0.148  0.00  0.00    +0.074 C 
ATOM     11  C   UNL     1      -2.239  -1.050  -1.011  0.00  0.00    +0.024 C 
ATOM     12  C   UNL     1      -2.909  -3.378  -1.557  0.00  0.00    +0.019 C 
ATOM     13  C   UNL     1      -1.726  -2.837   1.091  0.00  0.00    +0.094 C 
ATOM     14  C   UNL     1      -3.627  -3.532  -0.205  0.00  0.00    +0.085 C 
ENDROOT
BRANCH   9  16
ATOM      5  N   UNL     1       1.553  -3.255   0.539  0.00  0.00    -0.270 N 
ATOM      7  N   UNL     1       2.736  -2.622   0.620  0.00  0.00    -0.171 NA
ATOM     16  C   UNL     1       0.558  -2.496  -0.004  0.00  0.00    +0.044 A 
ATOM     17  C   UNL     1       1.129  -1.282  -0.298  0.00  0.00    +0.053 A 
ATOM     18  C   UNL     1       2.471  -1.417   0.107  0.00  0.00    +0.093 A 
ATOM     19  C   UNL     1       1.447  -4.615   1.013  0.00  0.00    +0.172 C 
BRANCH  18  22
ATOM     22  C   UNL     1       3.503  -0.418   0.015  0.00  0.00    +0.006 A 
ATOM     25  C   UNL     1       3.173   0.935   0.096  0.00  0.00    +0.059 A 
ATOM     26  C   UNL     1       4.833  -0.802  -0.154  0.00  0.00    +0.014 A 
ATOM     29  C   UNL     1       4.173   1.904   0.006  0.00  0.00    +0.162 A 
ATOM     30  C   UNL     1       5.833   0.166  -0.244  0.00  0.00    +0.050 A 
ATOM     31  C   UNL     1       5.503   1.519  -0.164  0.00  0.00    +0.162 A 
BRANCH  29   2
ATOM      2  O   UNL     1       3.838   3.222   0.086  0.00  0.00    -0.491 OA
ATOM     32  C   UNL     1       2.456   3.530   0.259  0.00  0.00    +0.277 C 
ENDBRANCH  29   2
BRANCH  31   3
ATOM      3  O   UNL     1       6.488   2.456  -0.252  0.00  0.00    -0.491 OA
ATOM     33  C   UNL     1       7.821   1.979  -0.426  0.00  0.00    +0.277 C 
ENDBRANCH  31   3
ENDBRANCH  18  22
ENDBRANCH   9  16
BRANCH  10  15
ATOM     15  C   UNL     1      -3.106  -0.055   1.167  0.00  0.00    +0.123 C 
BRANCH  15   6
ATOM      1  O   UNL     1      -5.616   1.320   0.910  0.00  0.00    -0.276 OA
ATOM      6  N   UNL     1      -3.327   1.216   0.550  0.00  0.00    -0.314 N 
ATOM     20  C   UNL     1      -4.583   1.817   0.467  0.00  0.00    +0.216 C 
ATOM     34  H   UNL     1      -2.520   1.690   0.156  0.00  0.00    +0.149 HD
BRANCH  20  21
ATOM     21  C   UNL     1      -4.554   3.167  -0.256  0.00  0.00    +0.074 C 
BRANCH  21  23
ATOM     23  C   UNL     1      -4.066   3.039  -1.709  0.00  0.00    +0.009 C 
ATOM     27  C   UNL     1      -4.924   2.083  -2.529  0.00  0.00    +0.004 C 
ENDBRANCH  21  23
BRANCH  21  24
ATOM     24  C   UNL     1      -3.715   4.182   0.548  0.00  0.00    +0.009 C 
ATOM     28  C   UNL     1      -4.174   4.392   1.986  0.00  0.00    +0.004 C 
ENDBRANCH  21  24
ENDBRANCH  20  21
ENDBRANCH  15   6
ENDBRANCH  10  15
TORSDOF 9
