REMARK  Name = 75411571
REMARK  5 active torsions:
REMARK  status: ('A' for Active; 'I' for Inactive)
REMARK    1  A    between atoms: O_6  and  C_10
REMARK    2  A    between atoms: O_6  and  C_16
REMARK    3  A    between atoms: N_7  and  C_13
REMARK    4  A    between atoms: C_13  and  C_15
REMARK    5  A    between atoms: C_24  and  C_26
REMARK                            x       y       z     vdW  Elec       q    Type
REMARK                         _______ _______ _______ _____ _____    ______ ____
ROOT
ATOM      5  O   UNL     1      -0.956   4.092  -0.466  0.00  0.00    -0.375 OA
ATOM      7  N   UNL     1      -2.204   1.486   0.707  0.00  0.00    -0.292 NA
ATOM      9  C   UNL     1      -1.005   0.907   0.090  0.00  0.00    +0.131 C 
ATOM     10  C   UNL     1      -0.014   1.866  -0.589  0.00  0.00    +0.215 C 
ATOM     11  C   UNL     1      -1.984   2.779   1.357  0.00  0.00    +0.113 C 
ATOM     12  C   UNL     1      -0.668   3.012  -1.348  0.00  0.00    +0.205 C 
ATOM     14  C   UNL     1      -2.116   3.907   0.333  0.00  0.00    +0.175 C 
ENDROOT
BRANCH  10   6
ATOM      6  O   UNL     1       0.768   1.112  -1.516  0.00  0.00    -0.469 OA
BRANCH   6  16
ATOM      8  N   UNL     1       2.168   0.710   0.287  0.00  0.00    -0.221 NA
ATOM     16  C   UNL     1       1.900   0.523  -1.024  0.00  0.00    +0.215 A 
ATOM     21  C   UNL     1       2.696  -0.221  -1.881  0.00  0.00    +0.068 A 
ATOM     23  C   UNL     1       3.842  -0.810  -1.357  0.00  0.00    +0.019 A 
ATOM     24  C   UNL     1       4.152  -0.639  -0.012  0.00  0.00    +0.073 A 
ATOM     25  C   UNL     1       3.290   0.123   0.761  0.00  0.00    +0.127 A 
BRANCH  24  26
ATOM      2  F   UNL     1       6.245  -0.350   1.109  0.00  0.00    -0.166 F 
ATOM      3  F   UNL     1       5.106  -2.131   1.597  0.00  0.00    -0.166 F 
ATOM      4  F   UNL     1       6.096  -1.970  -0.333  0.00  0.00    -0.166 F 
ATOM     26  C   UNL     1       5.369  -1.256   0.578  0.00  0.00    +0.419 C 
ENDBRANCH  24  26
ENDBRANCH   6  16
ENDBRANCH  10   6
BRANCH   7  13
ATOM     13  C   UNL     1      -2.813   0.522   1.624  0.00  0.00    +0.119 C 
BRANCH  13  15
ATOM      1  F   UNL     1      -5.303  -3.713  -1.137  0.00  0.00    -0.205 F 
ATOM     15  C   UNL     1      -3.478  -0.610   0.886  0.00  0.00    -0.033 A 
ATOM     17  C   UNL     1      -4.819  -0.508   0.516  0.00  0.00    +0.008 A 
ATOM     18  C   UNL     1      -2.754  -1.760   0.573  0.00  0.00    +0.008 A 
ATOM     19  C   UNL     1      -5.436  -1.556  -0.167  0.00  0.00    +0.038 A 
ATOM     20  C   UNL     1      -3.370  -2.808  -0.110  0.00  0.00    +0.038 A 
ATOM     22  C   UNL     1      -4.711  -2.706  -0.480  0.00  0.00    +0.123 A 
ENDBRANCH  13  15
ENDBRANCH   7  13
TORSDOF 5
