REMARK  Name = 26743034
REMARK  11 active torsions:
REMARK  status: ('A' for Active; 'I' for Inactive)
REMARK    1  A    between atoms: O_3  and  C_27
REMARK    2  A    between atoms: O_3  and  C_30
REMARK    3  A    between atoms: O_4  and  C_28
REMARK    4  A    between atoms: O_4  and  C_31
REMARK    5  A    between atoms: O_5  and  C_29
REMARK    6  A    between atoms: O_5  and  C_32
REMARK    7  A    between atoms: C_9  and  C_13
REMARK    8  A    between atoms: C_10  and  C_15
REMARK    9  A    between atoms: C_13  and  C_16
REMARK   10  A    between atoms: C_15  and  C_17
REMARK   11  A    between atoms: C_26  and  C_29
REMARK                            x       y       z     vdW  Elec       q    Type
REMARK                         _______ _______ _______ _____ _____    ______ ____
ROOT
ATOM     13  C   UNL     1       0.418  -1.340  -0.236  0.00  0.00    +0.100 C 
ENDROOT
BRANCH  13  16
ATOM      1  O   UNL     1      -0.564  -3.389  -0.917  0.00  0.00    -0.276 OA
ATOM      7  N   UNL     1      -1.946  -1.517  -0.927  0.00  0.00    -0.297 N 
ATOM     16  C   UNL     1      -0.734  -2.182  -0.726  0.00  0.00    +0.216 C 
ATOM     18  C   UNL     1      -3.062  -2.225  -1.553  0.00  0.00    +0.113 C 
ATOM     19  C   UNL     1      -2.142  -0.078  -0.697  0.00  0.00    +0.143 C 
ATOM     20  C   UNL     1      -4.332  -2.062  -0.727  0.00  0.00    +0.054 C 
ATOM     21  C   UNL     1      -3.570   0.326  -0.422  0.00  0.00    -0.023 A 
ATOM     22  C   UNL     1      -4.618  -0.611  -0.450  0.00  0.00    -0.038 A 
ATOM     24  C   UNL     1      -3.857   1.670  -0.142  0.00  0.00    +0.054 A 
ATOM     25  C   UNL     1      -5.927  -0.196  -0.167  0.00  0.00    +0.053 A 
ATOM     27  C   UNL     1      -5.165   2.075   0.124  0.00  0.00    +0.162 A 
ATOM     28  C   UNL     1      -6.199   1.142   0.114  0.00  0.00    +0.162 A 
BRANCH  27   3
ATOM      3  O   UNL     1      -5.417   3.386   0.397  0.00  0.00    -0.491 OA
ATOM     30  C   UNL     1      -5.349   3.788   1.763  0.00  0.00    +0.277 C 
ENDBRANCH  27   3
BRANCH  28   4
ATOM      4  O   UNL     1      -7.479   1.524   0.379  0.00  0.00    -0.491 OA
ATOM     31  C   UNL     1      -8.478   0.507   0.348  0.00  0.00    +0.277 C 
ENDBRANCH  28   4
ENDBRANCH  13  16
BRANCH  13   9
ATOM      6  N   UNL     1       4.004  -3.088   1.480  0.00  0.00    -0.316 NA
ATOM      9  C   UNL     1       1.653  -2.216  -0.033  0.00  0.00    +0.004 C 
ATOM     10  C   UNL     1       2.983  -1.424  -0.072  0.00  0.00    +0.012 C 
ATOM     11  C   UNL     1       1.537  -3.034   1.262  0.00  0.00    +0.019 C 
ATOM     12  C   UNL     1       4.157  -2.381   0.207  0.00  0.00    +0.085 C 
ATOM     14  C   UNL     1       2.781  -3.890   1.496  0.00  0.00    +0.081 C 
ATOM     33  H   UNL     1       3.986  -2.422   2.250  0.00  0.00    +0.122 HD
BRANCH  10  15
ATOM     15  C   UNL     1       3.019  -0.226   0.887  0.00  0.00    +0.064 C 
BRANCH  15  17
ATOM      2  O   UNL     1       4.922   2.485  -0.523  0.00  0.00    -0.357 OA
ATOM      8  N   UNL     1       3.747   1.761  -0.361  0.00  0.00    -0.083 NA
ATOM     17  C   UNL     1       4.064   0.771   0.478  0.00  0.00    +0.084 A 
ATOM     23  C   UNL     1       5.412   0.818   0.874  0.00  0.00    +0.073 A 
ATOM     26  C   UNL     1       5.906   1.914   0.217  0.00  0.00    +0.163 A 
BRANCH  26  29
ATOM     29  C   UNL     1       7.225   2.556   0.162  0.00  0.00    +0.236 C 
BRANCH  29   5
ATOM      5  O   UNL     1       7.868   2.262  -1.081  0.00  0.00    -0.375 OA
ATOM     32  C   UNL     1       9.145   2.874  -1.155  0.00  0.00    +0.194 C 
ENDBRANCH  29   5
ENDBRANCH  26  29
ENDBRANCH  15  17
ENDBRANCH  10  15
ENDBRANCH  13   9
TORSDOF 8
