REMARK  Name = 40777679
REMARK  10 active torsions:
REMARK  status: ('A' for Active; 'I' for Inactive)
REMARK    1  A    between atoms: O_5  and  C_29
REMARK    2  A    between atoms: N_7  and  C_12
REMARK    3  A    between atoms: N_8  and  C_21
REMARK    4  A    between atoms: C_10  and  C_13
REMARK    5  A    between atoms: C_16  and  C_18
REMARK    6  A    between atoms: C_17  and  C_19
REMARK    7  A    between atoms: C_20  and  C_22
REMARK    8  A    between atoms: C_22  and  C_25
REMARK    9  A    between atoms: C_25  and  C_29
REMARK   10  A    between atoms: C_28  and  C_30
REMARK                            x       y       z     vdW  Elec       q    Type
REMARK                         _______ _______ _______ _____ _____    ______ ____
ROOT
ATOM      8  N   UNL     1       2.219  -0.967   0.209  0.00  0.00    -0.236 N 
ATOM      9  N   UNL     1       1.966  -2.139   0.816  0.00  0.00    -0.171 NA
ATOM     13  C   UNL     1       0.078  -1.252  -0.115  0.00  0.00    +0.003 A 
ATOM     16  C   UNL     1       1.121  -0.394  -0.363  0.00  0.00    +0.046 A 
ATOM     17  C   UNL     1       0.656  -2.308   0.615  0.00  0.00    +0.064 A 
ATOM     18  C   UNL     1       1.161   0.895  -1.083  0.00  0.00    +0.066 C 
ATOM     19  C   UNL     1      -0.009  -3.510   1.146  0.00  0.00    +0.068 C 
ENDROOT
BRANCH   8  21
ATOM     21  C   UNL     1       3.516  -0.452   0.211  0.00  0.00    +0.066 A 
ATOM     23  C   UNL     1       4.557  -1.179  -0.366  0.00  0.00    +0.028 A 
ATOM     24  C   UNL     1       3.772   0.789   0.795  0.00  0.00    +0.028 A 
ATOM     26  C   UNL     1       5.854  -0.666  -0.360  0.00  0.00    +0.014 A 
ATOM     27  C   UNL     1       5.069   1.302   0.801  0.00  0.00    +0.014 A 
ATOM     28  C   UNL     1       6.110   0.575   0.224  0.00  0.00    +0.055 A 
BRANCH  28  30
ATOM      1  F   UNL     1       7.616   2.319  -0.418  0.00  0.00    -0.166 F 
ATOM      2  F   UNL     1       8.394   0.289  -0.372  0.00  0.00    -0.166 F 
ATOM      3  F   UNL     1       7.990   1.347   1.484  0.00  0.00    -0.166 F 
ATOM     30  C   UNL     1       7.497   1.123   0.230  0.00  0.00    +0.417 C 
ENDBRANCH  28  30
ENDBRANCH   8  21
BRANCH  13  10
ATOM     10  C   UNL     1      -1.367  -1.093  -0.530  0.00  0.00    +0.047 C 
ATOM     11  C   UNL     1      -2.017   0.199   0.005  0.00  0.00    +0.039 C 
ATOM     12  C   UNL     1      -2.998   0.656  -1.082  0.00  0.00    +0.097 C 
ATOM     14  C   UNL     1      -1.584  -0.974  -2.011  0.00  0.00    -0.021 C 
ATOM     15  C   UNL     1      -2.477  -0.023  -2.306  0.00  0.00    -0.009 C 
BRANCH  12   7
ATOM      4  O   UNL     1      -5.089   2.117   0.275  0.00  0.00    -0.276 OA
ATOM      7  N   UNL     1      -4.345   0.216  -0.836  0.00  0.00    -0.309 N 
ATOM     20  C   UNL     1      -5.286   0.991  -0.172  0.00  0.00    +0.214 C 
ATOM     31  H   UNL     1      -4.609  -0.721  -1.129  0.00  0.00    +0.149 HD
BRANCH  20  22
ATOM     22  C   UNL     1      -6.618   0.272  -0.056  0.00  0.00    +0.107 C 
BRANCH  22  25
ATOM     25  C   UNL     1      -7.668   1.106   0.671  0.00  0.00    +0.129 C 
BRANCH  25  29
ATOM      6  O   UNL     1      -9.223  -0.738   0.344  0.00  0.00    -0.251 OA
ATOM     29  C   UNL     1      -8.987   0.377   0.787  0.00  0.00    +0.305 C 
BRANCH  29   5
ATOM      5  O   UNL     1      -9.907   1.119   1.458  0.00  0.00    -0.481 OA
ATOM     32  H   UNL     1     -10.765   0.652   1.537  0.00  0.00    +0.295 HD
ENDBRANCH  29   5
ENDBRANCH  25  29
ENDBRANCH  22  25
ENDBRANCH  20  22
ENDBRANCH  12   7
ENDBRANCH  13  10
TORSDOF 8
