REMARK  Name = 51138096
REMARK  8 active torsions:
REMARK  status: ('A' for Active; 'I' for Inactive)
REMARK    1  A    between atoms: N_4  and  C_21
REMARK    2  A    between atoms: N_6  and  C_31
REMARK    3  A    between atoms: C_8  and  C_14
REMARK    4  A    between atoms: C_9  and  C_18
REMARK    5  A    between atoms: C_14  and  C_16
REMARK    6  A    between atoms: C_16  and  C_23
REMARK    7  A    between atoms: C_16  and  C_24
REMARK    8  A    between atoms: C_21  and  C_29
REMARK                            x       y       z     vdW  Elec       q    Type
REMARK                         _______ _______ _______ _____ _____    ______ ____
ROOT
ATOM      3  N   UNL     1      -1.870  -1.103  -0.703  0.00  0.00    -0.299 NA
ATOM      4  N   UNL     1       2.599   0.976   0.399  0.00  0.00    -0.339 N 
ATOM      8  C   UNL     1      -1.291  -1.940   0.357  0.00  0.00    +0.085 C 
ATOM      9  C   UNL     1      -1.997   0.307  -0.362  0.00  0.00    +0.145 C 
ATOM     10  C   UNL     1       0.157  -1.625   0.744  0.00  0.00    -0.021 A 
ATOM     11  C   UNL     1       0.848  -0.420   0.424  0.00  0.00    +0.008 A 
ATOM     12  C   UNL     1      -0.824   1.123  -0.901  0.00  0.00    +0.065 C 
ATOM     13  C   UNL     1       0.487   0.785  -0.273  0.00  0.00    -0.020 A 
ATOM     15  C   UNL     1       2.170  -0.250   0.850  0.00  0.00    +0.050 A 
ATOM     17  C   UNL     1       1.594   1.609  -0.272  0.00  0.00    +0.091 A 
ATOM     19  C   UNL     1       0.863  -2.555   1.549  0.00  0.00    +0.006 A 
ATOM     20  C   UNL     1       2.864  -1.199   1.603  0.00  0.00    +0.026 A 
ATOM     22  C   UNL     1       2.179  -2.354   1.958  0.00  0.00    +0.002 A 
ATOM     33  H   UNL     1      -1.365  -1.226  -1.580  0.00  0.00    +0.123 HD
ENDROOT
BRANCH   9  18
ATOM      1  O   UNL     1      -3.610   0.226  -2.086  0.00  0.00    -0.274 OA
ATOM      2  O   UNL     1      -5.801   3.247   1.159  0.00  0.00    -0.377 OA
ATOM      5  N   UNL     1      -3.968   1.778  -0.397  0.00  0.00    -0.296 N 
ATOM     18  C   UNL     1      -3.259   0.760  -1.031  0.00  0.00    +0.233 C 
ATOM     25  C   UNL     1      -3.517   2.521   0.785  0.00  0.00    +0.136 C 
ATOM     26  C   UNL     1      -5.213   2.276  -0.980  0.00  0.00    +0.136 C 
ATOM     27  C   UNL     1      -4.657   2.662   1.786  0.00  0.00    +0.179 C 
ATOM     28  C   UNL     1      -6.281   2.422   0.094  0.00  0.00    +0.179 C 
ENDBRANCH   9  18
BRANCH   8  14
ATOM     14  C   UNL     1      -1.466  -3.384  -0.149  0.00  0.00    +0.026 C 
BRANCH  14  16
ATOM     16  C   UNL     1      -2.901  -3.899  -0.003  0.00  0.00    -0.015 C 
ATOM     23  C   UNL     1      -3.912  -3.056  -0.782  0.00  0.00    +0.007 C 
ATOM     24  C   UNL     1      -2.966  -5.353  -0.477  0.00  0.00    +0.007 C 
ENDBRANCH  14  16
ENDBRANCH   8  14
BRANCH   4  21
ATOM     21  C   UNL     1       3.915   1.539   0.612  0.00  0.00    +0.196 C 
BRANCH  21  29
ATOM      6  N   UNL     1       6.299   1.195  -0.122  0.00  0.00    -0.336 N 
ATOM      7  N   UNL     1       4.737   0.245  -1.384  0.00  0.00    -0.239 NA
ATOM     29  C   UNL     1       4.963   0.979  -0.317  0.00  0.00    +0.129 A 
ATOM     30  C   UNL     1       6.968   0.558  -1.130  0.00  0.00    +0.106 A 
ATOM     31  C   UNL     1       6.909   1.953   0.944  0.00  0.00    +0.150 C 
ATOM     32  C   UNL     1       5.983  -0.021  -1.895  0.00  0.00    +0.130 A 
ENDBRANCH  21  29
ENDBRANCH   4  21
TORSDOF 5
