REMARK  Name = 26744100
REMARK  7 active torsions:
REMARK  status: ('A' for Active; 'I' for Inactive)
REMARK    1  A    between atoms: O_1  and  C_9
REMARK    2  A    between atoms: O_3  and  C_15
REMARK    3  A    between atoms: N_4  and  C_11
REMARK    4  A    between atoms: C_7  and  C_12
REMARK    5  A    between atoms: C_11  and  C_13
REMARK    6  A    between atoms: C_14  and  C_17
REMARK    7  A    between atoms: C_17  and  C_21
REMARK                            x       y       z     vdW  Elec       q    Type
REMARK                         _______ _______ _______ _____ _____    ______ ____
ROOT
ATOM      4  N   UNL     1       2.648   0.508   0.471  0.00  0.00    -0.284 NA
ATOM      7  C   UNL     1       2.664  -0.470  -0.635  0.00  0.00    +0.149 C 
ATOM      8  C   UNL     1       3.618  -1.583  -0.162  0.00  0.00    +0.061 C 
ATOM      9  C   UNL     1       4.122  -1.119   1.199  0.00  0.00    +0.130 C 
ATOM     10  C   UNL     1       3.935   0.386   1.152  0.00  0.00    +0.116 C 
ENDROOT
BRANCH   7  12
ATOM      2  O   UNL     1       0.868  -0.810  -2.257  0.00  0.00    -0.336 OA
ATOM      5  N   UNL     1       0.410  -1.591  -0.208  0.00  0.00    -0.194 NA
ATOM      6  N   UNL     1      -0.418  -1.360  -2.328  0.00  0.00    -0.061 NA
ATOM     12  C   UNL     1       1.283  -0.988  -0.976  0.00  0.00    +0.245 A 
ATOM     14  C   UNL     1      -0.617  -1.800  -1.082  0.00  0.00    +0.176 A 
BRANCH  14  17
ATOM     17  C   UNL     1      -1.863  -2.463  -0.681  0.00  0.00    +0.114 C 
BRANCH  17  21
ATOM     21  C   UNL     1      -2.833  -1.583   0.100  0.00  0.00    -0.040 A 
ATOM     22  C   UNL     1      -2.632  -1.363   1.463  0.00  0.00    +0.004 A 
ATOM     23  C   UNL     1      -3.921  -0.998  -0.548  0.00  0.00    +0.004 A 
ATOM     24  C   UNL     1      -3.519  -0.558   2.178  0.00  0.00    +0.000 A 
ATOM     25  C   UNL     1      -4.808  -0.193   0.167  0.00  0.00    +0.000 A 
ATOM     26  C   UNL     1      -4.607   0.027   1.530  0.00  0.00    +0.000 A 
ENDBRANCH  17  21
ENDBRANCH  14  17
ENDBRANCH   7  12
BRANCH   9   1
ATOM      1  O   UNL     1       5.478  -1.475   1.380  0.00  0.00    -0.390 OA
ATOM     27  H   UNL     1       5.536  -2.444   1.325  0.00  0.00    +0.210 HD
ENDBRANCH   9   1
BRANCH   4  11
ATOM     11  C   UNL     1       2.389   1.872   0.028  0.00  0.00    +0.124 C 
BRANCH  11  13
ATOM     13  C   UNL     1       0.924   2.112  -0.223  0.00  0.00    +0.008 A 
ATOM     15  C   UNL     1      -0.012   1.930   0.795  0.00  0.00    +0.121 A 
ATOM     16  C   UNL     1       0.507   2.520  -1.490  0.00  0.00    +0.008 A 
ATOM     18  C   UNL     1      -1.366   2.156   0.546  0.00  0.00    +0.046 A 
ATOM     19  C   UNL     1      -0.847   2.746  -1.739  0.00  0.00    +0.001 A 
ATOM     20  C   UNL     1      -1.783   2.564  -0.721  0.00  0.00    +0.004 A 
BRANCH  15   3
ATOM      3  O   UNL     1       0.378   1.531   2.038  0.00  0.00    -0.506 OA
ATOM     28  H   UNL     1      -0.408   1.448   2.606  0.00  0.00    +0.292 HD
ENDBRANCH  15   3
ENDBRANCH  11  13
ENDBRANCH   4  11
TORSDOF 7
