REMARK  Name = 7675081
REMARK  5 active torsions:
REMARK  status: ('A' for Active; 'I' for Inactive)
REMARK    1  A    between atoms: S_1  and  N_9
REMARK    2  A    between atoms: S_1  and  C_22
REMARK    3  A    between atoms: N_11  and  C_18
REMARK    4  A    between atoms: C_13  and  C_17
REMARK    5  A    between atoms: C_21  and  C_25
REMARK                            x       y       z     vdW  Elec       q    Type
REMARK                         _______ _______ _______ _____ _____    ______ ____
ROOT
ATOM      7  O   UNL     1      -2.720  -0.187   2.333  0.00  0.00    -0.270 OA
ATOM      9  N   UNL     1       1.012  -0.649  -1.063  0.00  0.00    -0.162 NA
ATOM     10  N   UNL     1      -1.356  -0.898   0.571  0.00  0.00    -0.294 N 
ATOM     13  C   UNL     1       0.821   0.238   0.117  0.00  0.00    +0.183 C 
ATOM     14  C   UNL     1      -0.137  -0.339   1.156  0.00  0.00    +0.138 C 
ATOM     15  C   UNL     1       0.249  -1.924  -1.021  0.00  0.00    +0.129 C 
ATOM     16  C   UNL     1      -1.207  -1.623  -0.695  0.00  0.00    +0.125 C 
ATOM     21  C   UNL     1      -2.563  -0.787   1.271  0.00  0.00    +0.247 C 
ENDROOT
BRANCH  21  25
ATOM      3  F   UNL     1      -6.497  -0.687  -1.564  0.00  0.00    -0.205 F 
ATOM     25  C   UNL     1      -3.752  -1.440   0.701  0.00  0.00    +0.040 A 
ATOM     28  C   UNL     1      -4.577  -0.740  -0.179  0.00  0.00    +0.051 A 
ATOM     29  C   UNL     1      -4.054  -2.758   1.042  0.00  0.00    +0.013 A 
ATOM     33  C   UNL     1      -5.705  -1.359  -0.719  0.00  0.00    +0.124 A 
ATOM     34  C   UNL     1      -5.182  -3.377   0.502  0.00  0.00    +0.004 A 
ATOM     35  C   UNL     1      -6.007  -2.677  -0.378  0.00  0.00    +0.038 A 
ENDBRANCH  21  25
BRANCH  13  17
ATOM      4  O   UNL     1      -0.439   1.526  -1.444  0.00  0.00    -0.274 OA
ATOM     11  N   UNL     1       0.752   2.626   0.227  0.00  0.00    -0.303 N 
ATOM     17  C   UNL     1       0.295   1.514  -0.459  0.00  0.00    +0.234 C 
ATOM     36  H   UNL     1       1.332   2.495   1.051  0.00  0.00    +0.149 HD
BRANCH  11  18
ATOM      8  O   UNL     1       2.773   4.449  -0.021  0.00  0.00    -0.274 OA
ATOM     12  N   UNL     1       1.353   6.176   0.448  0.00  0.00    -0.314 N 
ATOM     18  C   UNL     1       0.409   3.975  -0.142  0.00  0.00    +0.159 C 
ATOM     19  C   UNL     1      -0.866   4.423   0.559  0.00  0.00    +0.033 C 
ATOM     20  C   UNL     1      -1.105   5.899   0.290  0.00  0.00    +0.021 C 
ATOM     23  C   UNL     1       1.621   4.859   0.133  0.00  0.00    +0.233 C 
ATOM     24  C   UNL     1       0.059   6.699   0.845  0.00  0.00    +0.104 C 
ATOM     37  H   UNL     1       2.153   6.789   0.576  0.00  0.00    +0.149 HD
ENDBRANCH  11  18
ENDBRANCH  13  17
BRANCH   9   1
ATOM      1  S   UNL     1       2.591  -0.737  -1.714  0.00  0.00    +0.062 S 
ATOM      5  O   UNL     1       3.250   0.539  -1.529  0.00  0.00    -0.153 OA
ATOM      6  O   UNL     1       2.528  -1.361  -3.019  0.00  0.00    -0.153 OA
BRANCH   1  22
ATOM      2  F   UNL     1       5.037  -4.585   2.021  0.00  0.00    -0.205 F 
ATOM     22  C   UNL     1       3.324  -1.889  -0.596  0.00  0.00    +0.106 A 
ATOM     26  C   UNL     1       3.268  -3.256  -0.867  0.00  0.00    +0.031 A 
ATOM     27  C   UNL     1       3.958  -1.433   0.560  0.00  0.00    +0.031 A 
ATOM     30  C   UNL     1       3.847  -4.167   0.017  0.00  0.00    +0.040 A 
ATOM     31  C   UNL     1       4.536  -2.343   1.444  0.00  0.00    +0.040 A 
ATOM     32  C   UNL     1       4.481  -3.710   1.173  0.00  0.00    +0.124 A 
ENDBRANCH   1  22
ENDBRANCH   9   1
TORSDOF 5
