REMARK  Name = 40779924
REMARK  10 active torsions:
REMARK  status: ('A' for Active; 'I' for Inactive)
REMARK    1  A    between atoms: O_1  and  C_20
REMARK    2  A    between atoms: O_1  and  C_22
REMARK    3  A    between atoms: N_4  and  C_14
REMARK    4  A    between atoms: N_5  and  C_15
REMARK    5  A    between atoms: N_6  and  C_23
REMARK    6  A    between atoms: C_8  and  C_14
REMARK    7  A    between atoms: C_10  and  C_15
REMARK    8  A    between atoms: C_16  and  C_20
REMARK    9  A    between atoms: C_23  and  C_24
REMARK   10  A    between atoms: C_23  and  C_25
REMARK                            x       y       z     vdW  Elec       q    Type
REMARK                         _______ _______ _______ _____ _____    ______ ____
ROOT
ATOM      3  N   UNL     1      -0.113  -2.056   1.312  0.00  0.00    -0.298 NA
ATOM      7  C   UNL     1       0.537  -2.328  -1.192  0.00  0.00    -0.003 C 
ATOM      8  C   UNL     1       1.718  -1.759  -0.374  0.00  0.00    +0.020 C 
ATOM      9  C   UNL     1      -0.685  -1.405  -1.033  0.00  0.00    +0.024 C 
ATOM     10  C   UNL     1      -1.123  -1.387   0.449  0.00  0.00    +0.074 C 
ATOM     11  C   UNL     1       1.233  -1.484   1.067  0.00  0.00    +0.089 C 
ATOM     12  C   UNL     1       0.168  -3.685  -0.561  0.00  0.00    +0.019 C 
ATOM     13  C   UNL     1      -0.078  -3.493   0.946  0.00  0.00    +0.085 C 
ENDROOT
BRANCH   8  14
ATOM     14  C   UNL     1       2.345  -0.517  -1.005  0.00  0.00    +0.089 C 
BRANCH  14   4
ATOM      4  N   UNL     1       3.488  -0.095  -0.205  0.00  0.00    -0.297 NA
ATOM     16  C   UNL     1       3.904   1.289  -0.469  0.00  0.00    +0.082 C 
ATOM     17  C   UNL     1       4.673  -0.907  -0.492  0.00  0.00    +0.085 C 
ATOM     18  C   UNL     1       5.307   1.340   0.139  0.00  0.00    +0.022 C 
ATOM     19  C   UNL     1       5.807  -0.100   0.118  0.00  0.00    +0.017 C 
BRANCH  16  20
ATOM     20  C   UNL     1       2.980   2.328   0.154  0.00  0.00    +0.178 C 
BRANCH  20   1
ATOM      1  O   UNL     1       3.533   3.614  -0.063  0.00  0.00    -0.381 OA
ATOM     22  C   UNL     1       2.718   4.638   0.495  0.00  0.00    +0.194 C 
ENDBRANCH  20   1
ENDBRANCH  16  20
ENDBRANCH  14   4
ENDBRANCH   8  14
BRANCH  10  15
ATOM     15  C   UNL     1      -1.455   0.028   0.926  0.00  0.00    +0.124 C 
BRANCH  15   5
ATOM      2  O   UNL     1      -4.284  -0.194   1.449  0.00  0.00    -0.253 OA
ATOM      5  N   UNL     1      -2.553   0.569   0.109  0.00  0.00    -0.298 N 
ATOM      6  N   UNL     1      -4.702   1.012  -0.488  0.00  0.00    -0.297 N 
ATOM     21  C   UNL     1      -3.877   0.403   0.454  0.00  0.00    +0.300 C 
ATOM     26  H   UNL     1      -2.319   1.078  -0.737  0.00  0.00    +0.150 HD
ATOM     27  H   UNL     1      -4.269   1.547  -1.236  0.00  0.00    +0.150 HD
BRANCH   6  23
ATOM     23  C   UNL     1      -6.142   1.002  -0.390  0.00  0.00    +0.068 C 
ATOM     24  C   UNL     1      -6.767   0.997  -1.779  0.00  0.00    +0.027 C 
ATOM     25  C   UNL     1      -6.630   2.189   0.431  0.00  0.00    +0.027 C 
ENDBRANCH   6  23
ENDBRANCH  15   5
ENDBRANCH  10  15
TORSDOF 7
