REMARK  Name = 51137748
REMARK  4 active torsions:
REMARK  status: ('A' for Active; 'I' for Inactive)
REMARK    1  A    between atoms: N_6  and  C_24
REMARK    2  A    between atoms: C_9  and  C_13
REMARK    3  A    between atoms: C_14  and  C_15
REMARK    4  A    between atoms: C_16  and  C_17
REMARK                            x       y       z     vdW  Elec       q    Type
REMARK                         _______ _______ _______ _____ _____    ______ ____
ROOT
ATOM      2  O   UNL     1       2.529   0.052   2.446  0.00  0.00    -0.270 OA
ATOM      3  N   UNL     1       1.645   1.351   0.737  0.00  0.00    -0.297 N 
ATOM      9  C   UNL     1       0.188   2.613  -0.659  0.00  0.00    +0.095 C 
ATOM     10  C   UNL     1       0.394   3.350   0.673  0.00  0.00    +0.033 C 
ATOM     11  C   UNL     1       1.379   1.643  -0.673  0.00  0.00    +0.121 C 
ATOM     12  C   UNL     1       0.934   2.276   1.606  0.00  0.00    +0.109 C 
ATOM     14  C   UNL     1       2.392   0.303   1.251  0.00  0.00    +0.247 C 
ENDROOT
BRANCH  14  15
ATOM      8  N   UNL     1       4.331  -2.283  -1.535  0.00  0.00    -0.263 NA
ATOM     15  C   UNL     1       3.062  -0.589   0.291  0.00  0.00    +0.040 A 
ATOM     18  C   UNL     1       4.000  -0.078  -0.599  0.00  0.00    +0.033 A 
ATOM     19  C   UNL     1       2.758  -1.946   0.270  0.00  0.00    +0.033 A 
ATOM     22  C   UNL     1       4.601  -0.959  -1.484  0.00  0.00    +0.111 A 
ATOM     23  C   UNL     1       3.414  -2.743  -0.654  0.00  0.00    +0.111 A 
ENDBRANCH  14  15
BRANCH   9  13
ATOM      1  O   UNL     1      -1.325   0.715  -0.294  0.00  0.00    -0.419 OA
ATOM      4  N   UNL     1      -2.314   2.502  -1.206  0.00  0.00    -0.112 NA
ATOM      5  N   UNL     1      -3.270   1.515  -1.057  0.00  0.00    -0.106 NA
ATOM     13  C   UNL     1      -1.195   1.991  -0.748  0.00  0.00    +0.222 A 
ATOM     16  C   UNL     1      -2.648   0.490  -0.521  0.00  0.00    +0.266 A 
BRANCH  16  17
ATOM      6  N   UNL     1      -2.927  -1.569   0.809  0.00  0.00    -0.329 N 
ATOM      7  N   UNL     1      -4.666  -2.534  -0.178  0.00  0.00    -0.243 NA
ATOM     17  C   UNL     1      -3.291  -0.733  -0.209  0.00  0.00    +0.125 A 
ATOM     20  C   UNL     1      -4.367  -1.349  -0.803  0.00  0.00    +0.143 A 
ATOM     21  C   UNL     1      -3.781  -2.636   0.788  0.00  0.00    +0.199 A 
ATOM     24  C   UNL     1      -1.845  -1.383   1.748  0.00  0.00    +0.150 C 
ENDBRANCH  16  17
ENDBRANCH   9  13
TORSDOF 3
