REMARK  Name = 7144101
REMARK  4 active torsions:
REMARK  status: ('A' for Active; 'I' for Inactive)
REMARK    1  A    between atoms: O_3  and  C_27
REMARK    2  A    between atoms: O_3  and  C_30
REMARK    3  A    between atoms: C_14  and  C_19
REMARK    4  A    between atoms: C_16  and  C_20
REMARK                            x       y       z     vdW  Elec       q    Type
REMARK                         _______ _______ _______ _____ _____    ______ ____
ROOT
ATOM      1  O   UNL     1      -2.957   2.578   2.305  0.00  0.00    -0.268 OA
ATOM      2  O   UNL     1      -3.923  -1.472  -0.597  0.00  0.00    -0.270 OA
ATOM      4  N   UNL     1      -2.119  -0.366  -1.591  0.00  0.00    -0.297 N 
ATOM      5  N   UNL     1      -1.614   1.954   0.490  0.00  0.00    -0.311 N 
ATOM      7  C   UNL     1      -2.481   2.067  -1.922  0.00  0.00    +0.027 C 
ATOM      8  C   UNL     1      -0.214   1.226  -1.466  0.00  0.00    +0.054 C 
ATOM      9  C   UNL     1      -1.014   2.238  -2.286  0.00  0.00    +0.018 C 
ATOM     10  C   UNL     1      -2.956   0.640  -2.243  0.00  0.00    +0.113 C 
ATOM     11  C   UNL     1      -2.656   2.410  -0.441  0.00  0.00    +0.130 C 
ATOM     12  C   UNL     1      -0.676  -0.204  -1.819  0.00  0.00    +0.117 C 
ATOM     13  C   UNL     1      -0.370   1.470   0.037  0.00  0.00    +0.034 A 
ATOM     14  C   UNL     1       0.620   1.208   0.929  0.00  0.00    +0.002 A 
ATOM     15  C   UNL     1      -1.895   2.146   1.855  0.00  0.00    +0.252 A 
ATOM     16  C   UNL     1      -2.715  -1.339  -0.785  0.00  0.00    +0.247 C 
ATOM     17  C   UNL     1       0.365   1.390   2.345  0.00  0.00    +0.015 A 
ATOM     18  C   UNL     1      -0.811   1.814   2.807  0.00  0.00    +0.071 A 
ENDROOT
BRANCH  16  20
ATOM      6  N   UNL     1      -0.185  -4.082   1.265  0.00  0.00    -0.263 NA
ATOM     20  C   UNL     1      -1.843  -2.285  -0.079  0.00  0.00    +0.040 A 
ATOM     23  C   UNL     1      -1.381  -1.983   1.195  0.00  0.00    +0.033 A 
ATOM     24  C   UNL     1      -1.480  -3.479  -0.685  0.00  0.00    +0.033 A 
ATOM     28  C   UNL     1      -0.561  -2.908   1.820  0.00  0.00    +0.111 A 
ATOM     29  C   UNL     1      -0.655  -4.338   0.024  0.00  0.00    +0.111 A 
ENDBRANCH  16  20
BRANCH  14  19
ATOM     19  C   UNL     1       1.949   0.722   0.496  0.00  0.00    -0.016 A 
ATOM     21  C   UNL     1       2.178  -0.644   0.370  0.00  0.00    +0.012 A 
ATOM     22  C   UNL     1       2.961   1.636   0.219  0.00  0.00    +0.012 A 
ATOM     25  C   UNL     1       3.431  -1.102  -0.038  0.00  0.00    +0.046 A 
ATOM     26  C   UNL     1       4.214   1.179  -0.189  0.00  0.00    +0.046 A 
ATOM     27  C   UNL     1       4.449  -0.190  -0.317  0.00  0.00    +0.120 A 
BRANCH  27   3
ATOM      3  O   UNL     1       5.672  -0.636  -0.714  0.00  0.00    -0.495 OA
ATOM     30  C   UNL     1       6.668   0.349  -0.984  0.00  0.00    +0.277 C 
ENDBRANCH  27   3
ENDBRANCH  14  19
TORSDOF 3
