REMARK  Name = 75536632
REMARK  7 active torsions:
REMARK  status: ('A' for Active; 'I' for Inactive)
REMARK    1  A    between atoms: O_3  and  C_8
REMARK    2  A    between atoms: N_5  and  C_7
REMARK    3  A    between atoms: N_5  and  C_12
REMARK    4  A    between atoms: N_6  and  C_11
REMARK    5  A    between atoms: C_9  and  C_11
REMARK    6  A    between atoms: C_12  and  C_13
REMARK    7  A    between atoms: C_14  and  C_17
REMARK                            x       y       z     vdW  Elec       q    Type
REMARK                         _______ _______ _______ _____ _____    ______ ____
ROOT
ATOM      2  O   UNL     1       0.599   0.838   0.107  0.00  0.00    -0.371 OA
ATOM      7  C   UNL     1      -1.438  -0.370   0.299  0.00  0.00    +0.111 C 
ATOM      8  C   UNL     1      -0.527  -1.087  -0.680  0.00  0.00    +0.164 C 
ATOM      9  C   UNL     1       0.831  -0.526  -0.283  0.00  0.00    +0.165 C 
ATOM     10  C   UNL     1      -0.811   1.015   0.333  0.00  0.00    +0.181 C 
ENDROOT
BRANCH   8   3
ATOM      3  O   UNL     1      -0.577  -2.494  -0.542  0.00  0.00    -0.388 OA
ATOM     27  H   UNL     1      -0.357  -2.719   0.378  0.00  0.00    +0.210 HD
ENDBRANCH   8   3
BRANCH   7   5
ATOM      5  N   UNL     1      -2.833  -0.349  -0.110  0.00  0.00    -0.305 NA
ATOM     26  H   UNL     1      -3.101  -1.281  -0.426  0.00  0.00    +0.123 HD
BRANCH   5  12
ATOM     12  C   UNL     1      -3.699   0.041   0.997  0.00  0.00    +0.119 C 
BRANCH  12  13
ATOM      1  F   UNL     1      -4.809   2.145  -0.540  0.00  0.00    -0.205 F 
ATOM     13  C   UNL     1      -5.147   0.084   0.587  0.00  0.00    +0.002 A 
ATOM     15  C   UNL     1      -5.628   1.151  -0.171  0.00  0.00    +0.128 A 
ATOM     16  C   UNL     1      -6.007  -0.946   0.967  0.00  0.00    +0.008 A 
ATOM     18  C   UNL     1      -6.971   1.188  -0.549  0.00  0.00    +0.038 A 
ATOM     19  C   UNL     1      -7.349  -0.909   0.589  0.00  0.00    +0.000 A 
ATOM     20  C   UNL     1      -7.831   0.158  -0.169  0.00  0.00    +0.003 A 
ENDBRANCH  12  13
ENDBRANCH   5  12
ENDBRANCH   7   5
BRANCH   9  11
ATOM     11  C   UNL     1       1.852  -0.571  -1.406  0.00  0.00    +0.138 C 
BRANCH  11   6
ATOM      4  O   UNL     1       4.028  -2.016  -0.213  0.00  0.00    -0.270 OA
ATOM      6  N   UNL     1       3.113  -0.030  -0.988  0.00  0.00    -0.309 N 
ATOM     14  C   UNL     1       4.115  -0.808  -0.416  0.00  0.00    +0.244 C 
ATOM     28  H   UNL     1       3.222   0.976  -1.062  0.00  0.00    +0.149 HD
BRANCH  14  17
ATOM     17  C   UNL     1       5.352  -0.091  -0.013  0.00  0.00    +0.037 A 
ATOM     21  C   UNL     1       6.143  -0.592   1.021  0.00  0.00    +0.013 A 
ATOM     22  C   UNL     1       5.724   1.082  -0.670  0.00  0.00    +0.013 A 
ATOM     23  C   UNL     1       7.306   0.080   1.399  0.00  0.00    +0.001 A 
ATOM     24  C   UNL     1       6.886   1.754  -0.292  0.00  0.00    +0.001 A 
ATOM     25  C   UNL     1       7.677   1.253   0.742  0.00  0.00    +0.000 A 
ENDBRANCH  14  17
ENDBRANCH  11   6
ENDBRANCH   9  11
TORSDOF 7
