REMARK  Name = 45361017
REMARK  8 active torsions:
REMARK  status: ('A' for Active; 'I' for Inactive)
REMARK    1  A    between atoms: N_4  and  C_15
REMARK    2  A    between atoms: N_5  and  C_17
REMARK    3  A    between atoms: N_7  and  C_26
REMARK    4  A    between atoms: C_12  and  C_16
REMARK    5  A    between atoms: C_15  and  C_19
REMARK    6  A    between atoms: C_16  and  C_18
REMARK    7  A    between atoms: C_18  and  C_20
REMARK    8  A    between atoms: C_26  and  C_27
REMARK                            x       y       z     vdW  Elec       q    Type
REMARK                         _______ _______ _______ _____ _____    ______ ____
ROOT
ATOM      2  O   UNL     1       2.122  -1.610  -0.634  0.00  0.00    -0.274 OA
ATOM      4  N   UNL     1       3.737   0.365   0.250  0.00  0.00    -0.286 NA
ATOM      5  N   UNL     1       0.454   1.871  -0.336  0.00  0.00    -0.296 NA
ATOM      6  N   UNL     1       0.274  -0.884   0.502  0.00  0.00    -0.312 N 
ATOM      8  C   UNL     1       1.781   1.802   0.314  0.00  0.00    +0.084 C 
ATOM      9  C   UNL     1       2.338   0.404   0.716  0.00  0.00    +0.161 C 
ATOM     10  C   UNL     1       2.927   2.369  -0.544  0.00  0.00    +0.036 C 
ATOM     11  C   UNL     1       4.165   1.748   0.067  0.00  0.00    +0.087 C 
ATOM     12  C   UNL     1      -0.675   1.404   0.517  0.00  0.00    +0.074 C 
ATOM     13  C   UNL     1       1.595  -0.785   0.111  0.00  0.00    +0.232 C 
ATOM     14  C   UNL     1      -0.397   0.114   1.312  0.00  0.00    +0.123 C 
ATOM     17  C   UNL     1       0.186   3.230  -0.837  0.00  0.00    +0.105 C 
ATOM     31  H   UNL     1      -0.271  -1.666   0.154  0.00  0.00    +0.149 HD
ENDROOT
BRANCH   4  15
ATOM     15  C   UNL     1       4.623  -0.369   1.144  0.00  0.00    +0.120 C 
BRANCH  15  19
ATOM     19  C   UNL     1       5.869  -0.835   0.441  0.00  0.00    -0.033 A 
ATOM     21  C   UNL     1       5.893  -2.082  -0.184  0.00  0.00    +0.005 A 
ATOM     22  C   UNL     1       7.001  -0.019   0.413  0.00  0.00    +0.005 A 
ATOM     23  C   UNL     1       7.048  -2.513  -0.836  0.00  0.00    +0.000 A 
ATOM     24  C   UNL     1       8.156  -0.451  -0.239  0.00  0.00    +0.000 A 
ATOM     25  C   UNL     1       8.180  -1.698  -0.864  0.00  0.00    +0.000 A 
ENDBRANCH  15  19
ENDBRANCH   4  15
BRANCH  12  16
ATOM     16  C   UNL     1      -1.934   1.158  -0.341  0.00  0.00    +0.029 C 
BRANCH  16  18
ATOM     18  C   UNL     1      -3.190   1.272   0.503  0.00  0.00    +0.097 C 
BRANCH  18  20
ATOM      3  O   UNL     1      -4.421   0.779  -1.523  0.00  0.00    -0.276 OA
ATOM      7  N   UNL     1      -5.590   1.136   0.451  0.00  0.00    -0.311 N 
ATOM     20  C   UNL     1      -4.442   1.032  -0.321  0.00  0.00    +0.213 C 
ATOM     32  H   UNL     1      -5.510   1.333   1.444  0.00  0.00    +0.149 HD
BRANCH   7  26
ATOM     26  C   UNL     1      -6.910   0.951  -0.103  0.00  0.00    +0.146 C 
BRANCH  26  27
ATOM      1  S   UNL     1      -7.781  -1.339  -1.420  0.00  0.00    -0.100 S 
ATOM     27  C   UNL     1      -7.367  -0.480   0.003  0.00  0.00    +0.007 A 
ATOM     28  C   UNL     1      -7.513  -1.252   1.134  0.00  0.00    +0.013 A 
ATOM     29  C   UNL     1      -7.971  -2.567   0.829  0.00  0.00    +0.008 A 
ATOM     30  C   UNL     1      -8.157  -2.749  -0.524  0.00  0.00    +0.045 A 
ENDBRANCH  26  27
ENDBRANCH   7  26
ENDBRANCH  18  20
ENDBRANCH  16  18
ENDBRANCH  12  16
TORSDOF 7
