REMARK  Name = 45361082
REMARK  6 active torsions:
REMARK  status: ('A' for Active; 'I' for Inactive)
REMARK    1  A    between atoms: N_4  and  C_19
REMARK    2  A    between atoms: N_5  and  C_18
REMARK    3  A    between atoms: C_14  and  C_17
REMARK    4  A    between atoms: C_17  and  C_20
REMARK    5  A    between atoms: C_18  and  C_21
REMARK    6  A    between atoms: C_20  and  C_22
REMARK                            x       y       z     vdW  Elec       q    Type
REMARK                         _______ _______ _______ _____ _____    ______ ____
ROOT
ATOM      1  O   UNL     1      -1.160  -0.897  -1.285  0.00  0.00    -0.274 OA
ATOM      4  N   UNL     1       0.251   2.016   0.841  0.00  0.00    -0.296 NA
ATOM      5  N   UNL     1      -2.984   0.430   0.200  0.00  0.00    -0.283 NA
ATOM      6  N   UNL     1       0.044   0.969  -1.840  0.00  0.00    -0.312 N 
ATOM     10  C   UNL     1      -1.227   2.003   0.774  0.00  0.00    +0.084 C 
ATOM     11  C   UNL     1      -1.910   1.244  -0.401  0.00  0.00    +0.161 C 
ATOM     12  C   UNL     1      -1.903   1.367   2.003  0.00  0.00    +0.036 C 
ATOM     13  C   UNL     1      -3.287   1.014   1.501  0.00  0.00    +0.087 C 
ATOM     14  C   UNL     1       0.913   2.705  -0.302  0.00  0.00    +0.074 C 
ATOM     15  C   UNL     1      -0.990   0.318  -1.193  0.00  0.00    +0.232 C 
ATOM     16  C   UNL     1       0.318   2.384  -1.687  0.00  0.00    +0.123 C 
ATOM     19  C   UNL     1       0.713   2.586   2.118  0.00  0.00    +0.105 C 
ATOM     29  H   UNL     1       0.645   0.421  -2.447  0.00  0.00    +0.149 HD
ENDROOT
BRANCH  14  17
ATOM     17  C   UNL     1       2.415   2.351  -0.349  0.00  0.00    +0.029 C 
BRANCH  17  20
ATOM     20  C   UNL     1       2.648   0.856  -0.245  0.00  0.00    +0.097 C 
BRANCH  20  22
ATOM      2  O   UNL     1       4.937   1.441  -0.444  0.00  0.00    -0.276 OA
ATOM      3  O   UNL     1       5.259  -3.368   0.667  0.00  0.00    -0.377 OA
ATOM      7  N   UNL     1       4.458  -0.822  -0.235  0.00  0.00    -0.297 N 
ATOM     22  C   UNL     1       4.118   0.527  -0.319  0.00  0.00    +0.216 C 
ATOM     23  C   UNL     1       5.862  -1.228  -0.293  0.00  0.00    +0.136 C 
ATOM     24  C   UNL     1       3.508  -1.939  -0.214  0.00  0.00    +0.136 C 
ATOM     26  C   UNL     1       6.159  -2.263   0.782  0.00  0.00    +0.179 C 
ATOM     27  C   UNL     1       3.905  -2.949   0.855  0.00  0.00    +0.179 C 
ENDBRANCH  20  22
ENDBRANCH  17  20
ENDBRANCH  14  17
BRANCH   5  18
ATOM     18  C   UNL     1      -4.168   0.325  -0.643  0.00  0.00    +0.159 C 
BRANCH  18  21
ATOM      8  N   UNL     1      -4.640  -2.136  -0.660  0.00  0.00    -0.347 N 
ATOM      9  N   UNL     1      -6.133  -0.873   0.392  0.00  0.00    -0.239 NA
ATOM     21  C   UNL     1      -5.007  -0.873  -0.285  0.00  0.00    +0.121 A 
ATOM     25  C   UNL     1      -5.594  -2.996  -0.192  0.00  0.00    +0.104 A 
ATOM     28  C   UNL     1      -6.505  -2.193   0.454  0.00  0.00    +0.130 A 
ATOM     30  H   UNL     1      -3.814  -2.390  -1.186  0.00  0.00    +0.167 HD
ENDBRANCH  18  21
ENDBRANCH   5  18
TORSDOF 5
