REMARK  Name = 75536973
REMARK  5 active torsions:
REMARK  status: ('A' for Active; 'I' for Inactive)
REMARK    1  A    between atoms: O_3  and  C_17
REMARK    2  A    between atoms: O_3  and  C_22
REMARK    3  A    between atoms: N_5  and  C_14
REMARK    4  A    between atoms: C_14  and  C_16
REMARK    5  A    between atoms: C_15  and  C_17
REMARK                            x       y       z     vdW  Elec       q    Type
REMARK                         _______ _______ _______ _____ _____    ______ ____
ROOT
ATOM      1  O   UNL     1       1.642  -2.745   0.245  0.00  0.00    -0.252 OA
ATOM      2  O   UNL     1      -4.897  -0.748  -1.059  0.00  0.00    -0.273 OA
ATOM      4  N   UNL     1      -0.326  -1.464   0.333  0.00  0.00    -0.278 N 
ATOM      5  N   UNL     1       1.558  -0.584   1.186  0.00  0.00    -0.279 N 
ATOM      6  N   UNL     1      -2.667  -0.287  -0.606  0.00  0.00    -0.296 N 
ATOM      8  C   UNL     1      -0.745  -0.204   0.923  0.00  0.00    +0.112 C 
ATOM      9  C   UNL     1       0.569   0.473   1.304  0.00  0.00    +0.133 C 
ATOM     10  C   UNL     1      -1.608   0.583  -0.060  0.00  0.00    +0.132 C 
ATOM     11  C   UNL     1      -1.309  -2.328  -0.295  0.00  0.00    +0.128 C 
ATOM     12  C   UNL     1      -2.179  -1.516  -1.251  0.00  0.00    +0.127 C 
ATOM     13  C   UNL     1       1.033  -1.728   0.552  0.00  0.00    +0.306 C 
ATOM     15  C   UNL     1      -4.033  -0.014  -0.572  0.00  0.00    +0.241 C 
ENDROOT
BRANCH   5  14
ATOM     14  C   UNL     1       2.940  -0.386   1.564  0.00  0.00    +0.146 C 
BRANCH  14  16
ATOM      7  N   UNL     1       4.772   2.323  -0.334  0.00  0.00    -0.263 NA
ATOM     16  C   UNL     1       3.724   0.305   0.486  0.00  0.00    -0.012 A 
ATOM     18  C   UNL     1       4.124  -0.377  -0.657  0.00  0.00    +0.008 A 
ATOM     19  C   UNL     1       4.070   1.642   0.599  0.00  0.00    +0.115 A 
ATOM     20  C   UNL     1       4.848   0.290  -1.639  0.00  0.00    +0.020 A 
ATOM     21  C   UNL     1       5.144   1.627  -1.432  0.00  0.00    +0.111 A 
ENDBRANCH  14  16
ENDBRANCH   5  14
BRANCH  15  17
ATOM     17  C   UNL     1      -4.448   1.264   0.111  0.00  0.00    +0.255 C 
BRANCH  17   3
ATOM      3  O   UNL     1      -5.847   1.347  -0.007  0.00  0.00    -0.374 OA
ATOM     22  C   UNL     1      -6.368   2.526   0.606  0.00  0.00    +0.194 C 
ENDBRANCH  17   3
ENDBRANCH  15  17
TORSDOF 4
