REMARK  Name = 7049280
REMARK  8 active torsions:
REMARK  status: ('A' for Active; 'I' for Inactive)
REMARK    1  A    between atoms: O_3  and  C_12
REMARK    2  A    between atoms: O_4  and  C_14
REMARK    3  A    between atoms: N_8  and  C_13
REMARK    4  A    between atoms: N_9  and  C_20
REMARK    5  A    between atoms: N_10  and  C_23
REMARK    6  A    between atoms: C_16  and  C_18
REMARK    7  A    between atoms: C_20  and  C_21
REMARK    8  A    between atoms: C_20  and  C_22
REMARK                            x       y       z     vdW  Elec       q    Type
REMARK                         _______ _______ _______ _____ _____    ______ ____
ROOT
ATOM     12  C   UNL     1       0.654   2.506   0.982  0.00  0.00    +0.167 C 
ATOM     13  C   UNL     1       0.458   1.554  -0.213  0.00  0.00    +0.129 C 
ATOM     14  C   UNL     1       1.938   3.333   0.837  0.00  0.00    +0.149 C 
ATOM     15  C   UNL     1       3.181   2.446   0.653  0.00  0.00    +0.074 C 
ATOM     16  C   UNL     1       2.933   1.245  -0.214  0.00  0.00    +0.015 C 
ATOM     17  C   UNL     1       1.719   0.839  -0.616  0.00  0.00    +0.006 C 
ENDROOT
BRANCH  13   8
ATOM      6  O   UNL     1      -2.344   1.829  -0.739  0.00  0.00    -0.252 OA
ATOM      8  N   UNL     1      -0.569   0.575   0.050  0.00  0.00    -0.290 N 
ATOM     10  N   UNL     1      -2.679  -0.329   0.122  0.00  0.00    -0.267 N 
ATOM     19  C   UNL     1      -1.922   0.789  -0.239  0.00  0.00    +0.304 C 
ATOM     29  H   UNL     1      -0.308  -0.290   0.514  0.00  0.00    +0.151 HD
ATOM     33  H   UNL     1      -2.174  -1.113   0.527  0.00  0.00    +0.156 HD
BRANCH  10  23
ATOM      1  F   UNL     1      -3.925  -2.685   0.937  0.00  0.00    -0.203 F 
ATOM      2  F   UNL     1      -8.155  -1.025  -0.382  0.00  0.00    -0.205 F 
ATOM     23  C   UNL     1      -4.076  -0.510  -0.006  0.00  0.00    +0.070 A 
ATOM     24  C   UNL     1      -4.669  -1.701   0.412  0.00  0.00    +0.147 A 
ATOM     25  C   UNL     1      -4.860   0.507  -0.551  0.00  0.00    +0.029 A 
ATOM     26  C   UNL     1      -6.048  -1.875   0.284  0.00  0.00    +0.078 A 
ATOM     27  C   UNL     1      -6.238   0.333  -0.679  0.00  0.00    +0.040 A 
ATOM     28  C   UNL     1      -6.832  -0.858  -0.261  0.00  0.00    +0.126 A 
ENDBRANCH  10  23
ENDBRANCH  13   8
BRANCH  16  18
ATOM      5  O   UNL     1       4.978   0.999  -1.345  0.00  0.00    -0.271 OA
ATOM      9  N   UNL     1       4.052  -0.851  -0.269  0.00  0.00    -0.301 N 
ATOM     18  C   UNL     1       4.091   0.472  -0.672  0.00  0.00    +0.240 C 
ATOM     32  H   UNL     1       3.265  -1.180   0.285  0.00  0.00    +0.150 HD
BRANCH   9  20
ATOM     20  C   UNL     1       5.082  -1.808  -0.601  0.00  0.00    +0.156 C 
ATOM     21  C   UNL     1       4.769  -2.518  -1.909  0.00  0.00    +0.038 C 
BRANCH  20  22
ATOM      7  O   UNL     1       4.240  -3.173   1.223  0.00  0.00    -0.274 OA
ATOM     11  N   UNL     1       6.477  -3.280   0.715  0.00  0.00    -0.328 N 
ATOM     22  C   UNL     1       5.195  -2.803   0.545  0.00  0.00    +0.231 C 
ATOM     34  H   UNL     1       7.253  -2.979   0.134  0.00  0.00    +0.145 HD
ATOM     35  H   UNL     1       6.688  -3.959   1.439  0.00  0.00    +0.145 HD
ENDBRANCH  20  22
ENDBRANCH   9  20
ENDBRANCH  16  18
BRANCH  12   3
ATOM      3  O   UNL     1       0.731   1.749   2.192  0.00  0.00    -0.387 OA
ATOM     30  H   UNL     1       0.825   2.379   2.926  0.00  0.00    +0.210 HD
ENDBRANCH  12   3
BRANCH  14   4
ATOM      4  O   UNL     1       1.817   4.239  -0.258  0.00  0.00    -0.389 OA
ATOM     31  H   UNL     1       2.628   4.774  -0.289  0.00  0.00    +0.210 HD
ENDBRANCH  14   4
TORSDOF 7
