REMARK  Name = 45361599
REMARK  13 active torsions:
REMARK  status: ('A' for Active; 'I' for Inactive)
REMARK    1  A    between atoms: O_3  and  C_12
REMARK    2  A    between atoms: O_6  and  C_27
REMARK    3  A    between atoms: O_6  and  C_31
REMARK    4  A    between atoms: N_7  and  C_16
REMARK    5  A    between atoms: N_8  and  C_26
REMARK    6  A    between atoms: C_9  and  C_19
REMARK    7  A    between atoms: C_11  and  C_21
REMARK    8  A    between atoms: C_15  and  C_20
REMARK    9  A    between atoms: C_20  and  C_22
REMARK   10  A    between atoms: C_20  and  C_23
REMARK   11  A    between atoms: C_24  and  C_25
REMARK   12  A    between atoms: C_25  and  C_27
REMARK   13  A    between atoms: C_26  and  C_28
REMARK                            x       y       z     vdW  Elec       q    Type
REMARK                         _______ _______ _______ _____ _____    ______ ____
ROOT
ATOM      9  C   UNL     1       0.784   0.076   1.416  0.00  0.00    -0.027 C 
ATOM     10  C   UNL     1       1.215   0.805   0.100  0.00  0.00    +0.028 C 
ATOM     11  C   UNL     1       2.740   1.182   0.143  0.00  0.00    +0.012 C 
ATOM     12  C   UNL     1       0.247   1.974  -0.241  0.00  0.00    +0.122 C 
ATOM     13  C   UNL     1      -0.689  -0.380   1.294  0.00  0.00    +0.007 C 
ATOM     14  C   UNL     1       1.654  -1.188   1.601  0.00  0.00    +0.009 C 
ATOM     15  C   UNL     1      -1.235   1.533  -0.259  0.00  0.00    +0.029 C 
ATOM     16  C   UNL     1       3.600  -0.086   0.405  0.00  0.00    +0.076 C 
ATOM     17  C   UNL     1      -1.645   0.769   0.999  0.00  0.00    +0.007 C 
ATOM     18  C   UNL     1       3.146  -0.888   1.625  0.00  0.00    +0.023 C 
ATOM     19  C   UNL     1       0.923   0.979   2.668  0.00  0.00    +0.011 C 
ATOM     21  C   UNL     1       3.239   1.877  -1.134  0.00  0.00    +0.010 C 
ENDROOT
BRANCH  16   7
ATOM      5  O   UNL     1       5.863  -1.718  -0.335  0.00  0.00    -0.276 OA
ATOM      7  N   UNL     1       5.002   0.241   0.567  0.00  0.00    -0.312 N 
ATOM     24  C   UNL     1       6.021  -0.614   0.179  0.00  0.00    +0.215 C 
ATOM     35  H   UNL     1       5.238   1.107   1.043  0.00  0.00    +0.149 HD
BRANCH  24  25
ATOM     25  C   UNL     1       7.388  -0.013   0.465  0.00  0.00    +0.124 C 
BRANCH  25  27
ATOM     27  C   UNL     1       8.535  -0.923   0.052  0.00  0.00    +0.168 C 
BRANCH  27   6
ATOM      6  O   UNL     1       8.479  -1.145  -1.352  0.00  0.00    -0.382 OA
ATOM     31  C   UNL     1       9.539  -1.984  -1.789  0.00  0.00    +0.194 C 
ENDBRANCH  27   6
ENDBRANCH  25  27
ENDBRANCH  24  25
ENDBRANCH  16   7
BRANCH  12   3
ATOM      3  O   UNL     1       0.541   2.472  -1.547  0.00  0.00    -0.391 OA
ATOM     36  H   UNL     1       0.428   1.744  -2.181  0.00  0.00    +0.210 HD
ENDBRANCH  12   3
BRANCH  15  20
ATOM     20  C   UNL     1      -2.180   2.723  -0.466  0.00  0.00    +0.077 C 
ATOM     22  C   UNL     1      -1.994   3.743   0.652  0.00  0.00    +0.017 C 
BRANCH  20  23
ATOM      4  O   UNL     1      -4.496   2.622   0.236  0.00  0.00    -0.276 OA
ATOM      8  N   UNL     1      -3.824   1.318  -1.560  0.00  0.00    -0.311 N 
ATOM     23  C   UNL     1      -3.623   2.234  -0.538  0.00  0.00    +0.216 C 
ATOM     37  H   UNL     1      -3.063   1.088  -2.192  0.00  0.00    +0.149 HD
BRANCH   8  26
ATOM     26  C   UNL     1      -5.108   0.712  -1.826  0.00  0.00    +0.139 C 
BRANCH  26  28
ATOM      1  F   UNL     1      -7.102  -1.796   1.851  0.00  0.00    -0.205 F 
ATOM      2  F   UNL     1      -4.188  -4.028  -1.141  0.00  0.00    -0.205 F 
ATOM     28  C   UNL     1      -5.296  -0.564  -1.058  0.00  0.00    -0.025 A 
ATOM     29  C   UNL     1      -4.641  -1.726  -1.464  0.00  0.00    +0.043 A 
ATOM     30  C   UNL     1      -6.128  -0.588   0.062  0.00  0.00    +0.043 A 
ATOM     32  C   UNL     1      -6.303  -1.773   0.776  0.00  0.00    +0.126 A 
ATOM     33  C   UNL     1      -4.817  -2.912  -0.750  0.00  0.00    +0.126 A 
ATOM     34  C   UNL     1      -5.648  -2.935   0.369  0.00  0.00    +0.076 A 
ENDBRANCH  26  28
ENDBRANCH   8  26
ENDBRANCH  20  23
ENDBRANCH  15  20
TORSDOF 9
