REMARK  Name = 23899975
REMARK  12 active torsions:
REMARK  status: ('A' for Active; 'I' for Inactive)
REMARK    1  A    between atoms: O_3  and  C_17
REMARK    2  A    between atoms: O_3  and  C_27
REMARK    3  A    between atoms: O_4  and  C_18
REMARK    4  A    between atoms: O_5  and  C_23
REMARK    5  A    between atoms: O_8  and  C_31
REMARK    6  A    between atoms: N_10  and  C_32
REMARK    7  A    between atoms: C_11  and  C_21
REMARK    8  A    between atoms: C_13  and  C_23
REMARK    9  A    between atoms: C_13  and  C_24
REMARK   10  A    between atoms: C_14  and  C_22
REMARK   11  A    between atoms: C_22  and  C_25
REMARK   12  A    between atoms: C_26  and  C_31
REMARK                            x       y       z     vdW  Elec       q    Type
REMARK                         _______ _______ _______ _____ _____    ______ ____
ROOT
ATOM     11  C   UNL     1      -1.693  -1.175   0.439  0.00  0.00    -0.023 C 
ATOM     12  C   UNL     1      -0.927  -2.094  -0.590  0.00  0.00    +0.007 C 
ATOM     13  C   UNL     1       0.623  -2.272  -0.362  0.00  0.00    +0.031 C 
ATOM     14  C   UNL     1      -3.129  -0.895  -0.171  0.00  0.00    +0.032 C 
ATOM     15  C   UNL     1      -0.923   0.166   0.568  0.00  0.00    +0.011 C 
ATOM     16  C   UNL     1      -1.698  -3.410  -0.834  0.00  0.00    +0.007 C 
ATOM     17  C   UNL     1       1.268  -0.866  -0.167  0.00  0.00    +0.186 C 
ATOM     18  C   UNL     1      -3.912  -2.183  -0.519  0.00  0.00    +0.119 C 
ATOM     19  C   UNL     1       0.561  -0.003   0.873  0.00  0.00    +0.046 C 
ATOM     20  C   UNL     1      -3.098  -3.139  -1.385  0.00  0.00    +0.032 C 
ATOM     21  C   UNL     1      -1.815  -1.795   1.852  0.00  0.00    +0.012 C 
ATOM     24  C   UNL     1       1.256  -2.901  -1.637  0.00  0.00    +0.017 C 
ENDROOT
BRANCH  18   4
ATOM      4  O   UNL     1      -4.341  -2.851   0.663  0.00  0.00    -0.391 OA
ATOM     38  H   UNL     1      -4.847  -3.636   0.393  0.00  0.00    +0.210 HD
ENDBRANCH  18   4
BRANCH  17   3
ATOM      3  O   UNL     1       2.637  -0.961   0.228  0.00  0.00    -0.446 OA
BRANCH   3  27
ATOM      7  O   UNL     1       3.068   1.013  -0.843  0.00  0.00    -0.226 OA
ATOM     10  N   UNL     1       4.737  -0.182   0.283  0.00  0.00    -0.251 N 
ATOM     27  C   UNL     1       3.458   0.061  -0.179  0.00  0.00    +0.405 C 
ATOM     40  H   UNL     1       4.865  -1.034   0.823  0.00  0.00    +0.158 HD
BRANCH  10  32
ATOM      1 CL   UNL     1       9.732   0.428   1.159  0.00  0.00    -0.082 Cl
ATOM      2 CL   UNL     1       9.553   3.182  -0.532  0.00  0.00    -0.082 Cl
ATOM     32  C   UNL     1       5.894   0.609   0.097  0.00  0.00    +0.038 A 
ATOM     33  C   UNL     1       7.112   0.202   0.641  0.00  0.00    +0.044 A 
ATOM     34  C   UNL     1       5.817   1.796  -0.631  0.00  0.00    +0.025 A 
ATOM     35  C   UNL     1       8.253   0.983   0.458  0.00  0.00    +0.061 A 
ATOM     36  C   UNL     1       6.958   2.577  -0.815  0.00  0.00    +0.023 A 
ATOM     37  C   UNL     1       8.176   2.170  -0.270  0.00  0.00    +0.059 A 
ENDBRANCH  10  32
ENDBRANCH   3  27
ENDBRANCH  17   3
BRANCH  14  22
ATOM     22  C   UNL     1      -4.015   0.044   0.664  0.00  0.00    +0.102 C 
BRANCH  22  25
ATOM      6  O   UNL     1      -5.105   0.408  -1.421  0.00  0.00    -0.276 OA
ATOM      9  N   UNL     1      -5.935   1.543   0.416  0.00  0.00    -0.296 N 
ATOM     25  C   UNL     1      -5.063   0.674  -0.219  0.00  0.00    +0.216 C 
ATOM     26  C   UNL     1      -7.069   2.165  -0.270  0.00  0.00    +0.101 C 
ATOM     28  C   UNL     1      -5.923   1.887   1.836  0.00  0.00    +0.108 C 
ATOM     29  C   UNL     1      -7.964   2.652   0.873  0.00  0.00    +0.026 C 
ATOM     30  C   UNL     1      -6.971   2.979   1.983  0.00  0.00    +0.021 C 
BRANCH  26  31
ATOM     31  C   UNL     1      -6.616   3.309  -1.175  0.00  0.00    +0.178 C 
BRANCH  31   8
ATOM      8  O   UNL     1      -6.200   2.764  -2.413  0.00  0.00    -0.393 OA
ATOM     41  H   UNL     1      -5.921   3.507  -2.975  0.00  0.00    +0.209 HD
ENDBRANCH  31   8
ENDBRANCH  26  31
ENDBRANCH  22  25
ENDBRANCH  14  22
BRANCH  13  23
ATOM     23  C   UNL     1       0.984  -3.223   0.797  0.00  0.00    +0.166 C 
BRANCH  23   5
ATOM      5  O   UNL     1       2.311  -3.661   0.601  0.00  0.00    -0.394 OA
ATOM     39  H   UNL     1       2.528  -4.263   1.333  0.00  0.00    +0.209 HD
ENDBRANCH  23   5
ENDBRANCH  13  23
TORSDOF 10
