REMARK  Name = 75536067
REMARK  7 active torsions:
REMARK  status: ('A' for Active; 'I' for Inactive)
REMARK    1  A    between atoms: O_1  and  C_8
REMARK    2  A    between atoms: O_2  and  C_10
REMARK    3  A    between atoms: N_4  and  C_7
REMARK    4  A    between atoms: C_6  and  C_11
REMARK    5  A    between atoms: C_12  and  C_15
REMARK    6  A    between atoms: C_15  and  C_17
REMARK    7  A    between atoms: C_15  and  C_18
REMARK                            x       y       z     vdW  Elec       q    Type
REMARK                         _______ _______ _______ _____ _____    ______ ____
ROOT
ATOM      6  C   UNL     1       0.857   0.602   0.957  0.00  0.00    +0.046 C 
ATOM      7  C   UNL     1      -0.275   1.154   0.061  0.00  0.00    +0.111 C 
ATOM      8  C   UNL     1      -0.209   2.662   0.294  0.00  0.00    +0.164 C 
ATOM      9  C   UNL     1       1.844   1.780   1.165  0.00  0.00    +0.044 C 
ATOM     10  C   UNL     1       1.288   2.940   0.342  0.00  0.00    +0.145 C 
ENDROOT
BRANCH   6  11
ATOM      5  N   UNL     1       2.031  -2.995   0.683  0.00  0.00    -0.263 NA
ATOM     11  C   UNL     1       1.493  -0.655   0.402  0.00  0.00    -0.024 A 
ATOM     13  C   UNL     1       2.108  -0.656  -0.845  0.00  0.00    +0.007 A 
ATOM     14  C   UNL     1       1.481  -1.840   1.120  0.00  0.00    +0.114 A 
ATOM     16  C   UNL     1       2.685  -1.825  -1.329  0.00  0.00    +0.020 A 
ATOM     19  C   UNL     1       2.620  -2.957  -0.533  0.00  0.00    +0.111 A 
ENDBRANCH   6  11
BRANCH   7   4
ATOM      3  O   UNL     1      -1.549  -1.156  -1.088  0.00  0.00    -0.276 OA
ATOM      4  N   UNL     1      -1.560   0.610   0.417  0.00  0.00    -0.309 N 
ATOM     12  C   UNL     1      -2.099  -0.516  -0.195  0.00  0.00    +0.216 C 
ATOM     20  H   UNL     1      -2.070   1.047   1.180  0.00  0.00    +0.149 HD
BRANCH  12  15
ATOM     15  C   UNL     1      -3.474  -0.885   0.361  0.00  0.00    +0.069 C 
ATOM     17  C   UNL     1      -4.568  -0.153  -0.413  0.00  0.00    +0.017 C 
ATOM     18  C   UNL     1      -3.701  -2.394   0.308  0.00  0.00    +0.017 C 
ENDBRANCH  12  15
ENDBRANCH   7   4
BRANCH   8   1
ATOM      1  O   UNL     1      -0.831   3.393  -0.746  0.00  0.00    -0.387 OA
ATOM     21  H   UNL     1      -0.667   4.337  -0.578  0.00  0.00    +0.210 HD
ENDBRANCH   8   1
BRANCH  10   2
ATOM      2  O   UNL     1       1.859   2.889  -0.962  0.00  0.00    -0.389 OA
ATOM     22  H   UNL     1       2.816   3.033  -0.867  0.00  0.00    +0.210 HD
ENDBRANCH  10   2
TORSDOF 5
