REMARK  Name = 75536621
REMARK  7 active torsions:
REMARK  status: ('A' for Active; 'I' for Inactive)
REMARK    1  A    between atoms: O_3  and  C_8
REMARK    2  A    between atoms: N_5  and  C_7
REMARK    3  A    between atoms: N_5  and  C_12
REMARK    4  A    between atoms: N_6  and  C_11
REMARK    5  A    between atoms: C_9  and  C_11
REMARK    6  A    between atoms: C_12  and  C_13
REMARK    7  A    between atoms: C_14  and  C_17
REMARK                            x       y       z     vdW  Elec       q    Type
REMARK                         _______ _______ _______ _____ _____    ______ ____
ROOT
ATOM      2  O   UNL     1       0.782  -0.912   0.008  0.00  0.00    -0.371 OA
ATOM      7  C   UNL     1      -1.268   0.238  -0.336  0.00  0.00    +0.111 C 
ATOM      8  C   UNL     1      -0.370   1.082   0.550  0.00  0.00    +0.164 C 
ATOM      9  C   UNL     1       0.997   0.493   0.228  0.00  0.00    +0.165 C 
ATOM     10  C   UNL     1      -0.624  -1.132  -0.198  0.00  0.00    +0.181 C 
ENDROOT
BRANCH   8   3
ATOM      3  O   UNL     1      -0.436   2.460   0.239  0.00  0.00    -0.388 OA
ATOM     27  H   UNL     1      -0.215   2.572  -0.701  0.00  0.00    +0.210 HD
ENDBRANCH   8   3
BRANCH   7   5
ATOM      5  N   UNL     1      -2.664   0.250   0.069  0.00  0.00    -0.305 NA
ATOM     26  H   UNL     1      -2.944   1.211   0.268  0.00  0.00    +0.123 HD
BRANCH   5  12
ATOM     12  C   UNL     1      -3.521  -0.284  -0.983  0.00  0.00    +0.116 C 
BRANCH  12  13
ATOM      1  F   UNL     1      -8.944  -0.323   0.544  0.00  0.00    -0.205 F 
ATOM     13  C   UNL     1      -4.970  -0.294  -0.575  0.00  0.00    -0.033 A 
ATOM     15  C   UNL     1      -5.505  -1.410   0.067  0.00  0.00    +0.008 A 
ATOM     16  C   UNL     1      -5.777   0.812  -0.840  0.00  0.00    +0.008 A 
ATOM     18  C   UNL     1      -6.848  -1.420   0.445  0.00  0.00    +0.038 A 
ATOM     19  C   UNL     1      -7.119   0.803  -0.462  0.00  0.00    +0.038 A 
ATOM     20  C   UNL     1      -7.655  -0.313   0.181  0.00  0.00    +0.123 A 
ENDBRANCH  12  13
ENDBRANCH   5  12
ENDBRANCH   7   5
BRANCH   9  11
ATOM     11  C   UNL     1       2.013   0.689   1.339  0.00  0.00    +0.138 C 
BRANCH  11   6
ATOM      4  O   UNL     1       4.176   2.003  -0.017  0.00  0.00    -0.270 OA
ATOM      6  N   UNL     1       3.281   0.116   0.994  0.00  0.00    -0.309 N 
ATOM     14  C   UNL     1       4.276   0.830   0.334  0.00  0.00    +0.244 C 
ATOM     28  H   UNL     1       3.403  -0.872   1.192  0.00  0.00    +0.149 HD
BRANCH  14  17
ATOM     17  C   UNL     1       5.524   0.085   0.025  0.00  0.00    +0.037 A 
ATOM     21  C   UNL     1       6.313   0.464  -1.062  0.00  0.00    +0.013 A 
ATOM     22  C   UNL     1       5.907  -0.994   0.822  0.00  0.00    +0.013 A 
ATOM     23  C   UNL     1       7.485  -0.235  -1.351  0.00  0.00    +0.001 A 
ATOM     24  C   UNL     1       7.079  -1.693   0.533  0.00  0.00    +0.001 A 
ATOM     25  C   UNL     1       7.868  -1.313  -0.553  0.00  0.00    +0.000 A 
ENDBRANCH  14  17
ENDBRANCH  11   6
ENDBRANCH   9  11
TORSDOF 7
