REMARK  Name = 11912975
REMARK  5 active torsions:
REMARK  status: ('A' for Active; 'I' for Inactive)
REMARK    1  A    between atoms: S_1  and  N_7
REMARK    2  A    between atoms: S_1  and  C_18
REMARK    3  A    between atoms: N_7  and  C_13
REMARK    4  A    between atoms: N_8  and  C_14
REMARK    5  A    between atoms: C_24  and  C_29
REMARK                            x       y       z     vdW  Elec       q    Type
REMARK                         _______ _______ _______ _____ _____    ______ ____
ROOT
ATOM      2  O   UNL     1      -1.027   2.424   1.190  0.00  0.00    -0.370 OA
ATOM      3  O   UNL     1       1.145   0.405   2.162  0.00  0.00    -0.370 OA
ATOM     11  C   UNL     1       0.845   0.988   0.883  0.00  0.00    +0.170 C 
ATOM     12  C   UNL     1      -0.664   1.095   0.779  0.00  0.00    +0.171 C 
ATOM     13  C   UNL     1       1.319   2.422   0.835  0.00  0.00    +0.133 C 
ATOM     14  C   UNL     1      -1.176   0.080   1.774  0.00  0.00    +0.130 C 
ATOM     15  C   UNL     1       0.165   3.168   1.480  0.00  0.00    +0.183 C 
ATOM     16  C   UNL     1      -0.081   0.063   2.825  0.00  0.00    +0.185 C 
ENDROOT
BRANCH  14   8
ATOM      8  N   UNL     1      -1.287  -1.218   1.145  0.00  0.00    -0.306 N 
ATOM      9  N   UNL     1      -3.426  -0.749   0.301  0.00  0.00    -0.211 NA
ATOM     10  N   UNL     1      -2.366  -2.872  -0.121  0.00  0.00    -0.223 NA
ATOM     17  C   UNL     1      -2.393  -1.625   0.420  0.00  0.00    +0.216 A 
ATOM     24  C   UNL     1      -4.487  -1.179  -0.413  0.00  0.00    +0.111 A 
ATOM     25  C   UNL     1      -3.460  -3.236  -0.822  0.00  0.00    +0.116 A 
ATOM     26  C   UNL     1      -4.561  -2.424  -1.003  0.00  0.00    +0.051 A 
ATOM     36  H   UNL     1      -0.501  -1.858   1.182  0.00  0.00    +0.149 HD
BRANCH  24  29
ATOM      6  O   UNL     1      -5.358   0.954   0.109  0.00  0.00    -0.461 OA
ATOM     29  C   UNL     1      -5.564  -0.231  -0.520  0.00  0.00    +0.153 A 
ATOM     32  C   UNL     1      -6.793  -0.250  -1.133  0.00  0.00    +0.051 A 
ATOM     33  C   UNL     1      -7.384   1.007  -0.863  0.00  0.00    +0.042 A 
ATOM     34  C   UNL     1      -6.472   1.703  -0.104  0.00  0.00    +0.196 A 
ENDBRANCH  24  29
ENDBRANCH  14   8
BRANCH  13   7
ATOM      7  N   UNL     1       1.528   2.858  -0.525  0.00  0.00    -0.182 NA
ATOM     35  H   UNL     1       0.711   2.855  -1.148  0.00  0.00    +0.148 HD
BRANCH   7   1
ATOM      1  S   UNL     1       3.078   2.765  -1.213  0.00  0.00    +0.059 S 
ATOM      4  O   UNL     1       4.026   3.459  -0.362  0.00  0.00    -0.153 OA
ATOM      5  O   UNL     1       2.984   3.096  -2.622  0.00  0.00    -0.153 OA
BRANCH   1  18
ATOM     18  C   UNL     1       3.419   1.034  -1.112  0.00  0.00    +0.106 A 
ATOM     19  C   UNL     1       4.044   0.533   0.017  0.00  0.00    +0.037 A 
ATOM     20  C   UNL     1       3.057   0.213  -2.162  0.00  0.00    +0.029 A 
ATOM     21  C   UNL     1       4.323  -0.840   0.113  0.00  0.00    -0.016 A 
ATOM     22  C   UNL     1       3.325  -1.154  -2.084  0.00  0.00    +0.010 A 
ATOM     23  C   UNL     1       3.958  -1.696  -0.953  0.00  0.00    -0.018 A 
ATOM     27  C   UNL     1       4.955  -1.382   1.244  0.00  0.00    +0.008 A 
ATOM     28  C   UNL     1       4.237  -3.069  -0.858  0.00  0.00    +0.008 A 
ATOM     30  C   UNL     1       5.225  -2.749   1.322  0.00  0.00    +0.001 A 
ATOM     31  C   UNL     1       4.866  -3.591   0.273  0.00  0.00    +0.001 A 
ENDBRANCH   1  18
ENDBRANCH   7   1
ENDBRANCH  13   7
TORSDOF 5
