REMARK  Name = 75536697
REMARK  8 active torsions:
REMARK  status: ('A' for Active; 'I' for Inactive)
REMARK    1  A    between atoms: S_1  and  N_7
REMARK    2  A    between atoms: S_1  and  C_17
REMARK    3  A    between atoms: O_3  and  C_12
REMARK    4  A    between atoms: N_6  and  C_8
REMARK    5  A    between atoms: N_6  and  C_9
REMARK    6  A    between atoms: N_7  and  C_16
REMARK    7  A    between atoms: C_14  and  C_16
REMARK    8  A    between atoms: C_22  and  C_23
REMARK                            x       y       z     vdW  Elec       q    Type
REMARK                         _______ _______ _______ _____ _____    ______ ____
ROOT
ATOM      2  O   UNL     1      -1.438   0.946  -1.209  0.00  0.00    -0.371 OA
ATOM      9  C   UNL     1      -3.240   0.430   0.250  0.00  0.00    +0.111 C 
ATOM     12  C   UNL     1      -1.933   0.281   1.006  0.00  0.00    +0.164 C 
ATOM     14  C   UNL     1      -1.000   1.125   0.149  0.00  0.00    +0.164 C 
ATOM     15  C   UNL     1      -2.761   0.382  -1.192  0.00  0.00    +0.181 C 
ENDROOT
BRANCH  12   3
ATOM      3  O   UNL     1      -2.011   0.764   2.333  0.00  0.00    -0.388 OA
ATOM     25  H   UNL     1      -2.299   1.692   2.304  0.00  0.00    +0.210 HD
ENDBRANCH  12   3
BRANCH   9   6
ATOM      6  N   UNL     1      -4.214  -0.604   0.558  0.00  0.00    -0.306 NA
ATOM     24  H   UNL     1      -4.245  -0.722   1.571  0.00  0.00    +0.123 HD
BRANCH   6   8
ATOM      8  C   UNL     1      -5.504  -0.244  -0.011  0.00  0.00    +0.054 C 
ATOM     10  C   UNL     1      -5.756  -1.089  -1.279  0.00  0.00    +0.019 C 
ATOM     11  C   UNL     1      -6.612  -1.074   0.673  0.00  0.00    +0.019 C 
ATOM     13  C   UNL     1      -7.189  -1.308  -0.741  0.00  0.00    +0.003 C 
ENDBRANCH   6   8
ENDBRANCH   9   6
BRANCH  14  16
ATOM     16  C   UNL     1       0.459   0.722   0.274  0.00  0.00    +0.140 C 
BRANCH  16   7
ATOM      7  N   UNL     1       1.288   1.588  -0.587  0.00  0.00    -0.187 NA
ATOM     26  H   UNL     1       1.048   1.584  -1.587  0.00  0.00    +0.148 HD
BRANCH   7   1
ATOM      1  S   UNL     1       2.887   1.956  -0.139  0.00  0.00    +0.058 S 
ATOM      4  O   UNL     1       2.896   2.506   1.203  0.00  0.00    -0.153 OA
ATOM      5  O   UNL     1       3.529   2.672  -1.225  0.00  0.00    -0.153 OA
BRANCH   1  17
ATOM     17  C   UNL     1       3.623   0.350  -0.074  0.00  0.00    +0.105 A 
ATOM     18  C   UNL     1       4.218  -0.191  -1.214  0.00  0.00    +0.029 A 
ATOM     19  C   UNL     1       3.605  -0.378   1.116  0.00  0.00    +0.029 A 
ATOM     20  C   UNL     1       4.796  -1.459  -1.163  0.00  0.00    +0.005 A 
ATOM     21  C   UNL     1       4.183  -1.646   1.166  0.00  0.00    +0.005 A 
ATOM     22  C   UNL     1       4.779  -2.187   0.026  0.00  0.00    -0.050 A 
ATOM     23  C   UNL     1       5.397  -3.543   0.080  0.00  0.00    +0.044 C 
ENDBRANCH   1  17
ENDBRANCH   7   1
ENDBRANCH  16   7
ENDBRANCH  14  16
TORSDOF 7
