REMARK  Name = 75367100
REMARK  8 active torsions:
REMARK  status: ('A' for Active; 'I' for Inactive)
REMARK    1  A    between atoms: O_2  and  C_9
REMARK    2  A    between atoms: N_4  and  C_7
REMARK    3  A    between atoms: N_4  and  C_8
REMARK    4  A    between atoms: N_5  and  C_16
REMARK    5  A    between atoms: N_6  and  C_18
REMARK    6  A    between atoms: C_12  and  C_16
REMARK    7  A    between atoms: C_18  and  C_19
REMARK    8  A    between atoms: C_18  and  C_20
REMARK                            x       y       z     vdW  Elec       q    Type
REMARK                         _______ _______ _______ _____ _____    ______ ____
ROOT
ATOM      1  O   UNL     1       0.046   0.736  -1.024  0.00  0.00    -0.371 OA
ATOM      8  C   UNL     1      -1.954  -0.168  -0.116  0.00  0.00    +0.111 C 
ATOM      9  C   UNL     1      -0.905  -1.262  -0.188  0.00  0.00    +0.164 C 
ATOM     12  C   UNL     1       0.373  -0.437  -0.262  0.00  0.00    +0.165 C 
ATOM     15  C   UNL     1      -1.386   0.858  -1.084  0.00  0.00    +0.181 C 
ENDROOT
BRANCH   9   2
ATOM      2  O   UNL     1      -0.921  -2.109   0.944  0.00  0.00    -0.388 OA
ATOM     22  H   UNL     1      -0.810  -1.560   1.739  0.00  0.00    +0.210 HD
ENDBRANCH   9   2
BRANCH   8   4
ATOM      4  N   UNL     1      -3.288  -0.614  -0.483  0.00  0.00    -0.306 NA
ATOM     21  H   UNL     1      -3.485  -1.520  -0.060  0.00  0.00    +0.123 HD
BRANCH   4   7
ATOM      7  C   UNL     1      -4.292   0.355  -0.082  0.00  0.00    +0.054 C 
ATOM     10  C   UNL     1      -5.598   0.205  -0.853  0.00  0.00    +0.019 C 
ATOM     11  C   UNL     1      -4.744   0.171   1.362  0.00  0.00    +0.019 C 
ATOM     13  C   UNL     1      -6.610   0.965   0.001  0.00  0.00    +0.002 C 
ATOM     14  C   UNL     1      -6.059   0.942   1.429  0.00  0.00    +0.002 C 
ENDBRANCH   4   7
ENDBRANCH   8   4
BRANCH  12  16
ATOM     16  C   UNL     1       1.525  -1.174  -0.922  0.00  0.00    +0.140 C 
BRANCH  16   5
ATOM      3  O   UNL     1       3.608  -1.004   1.068  0.00  0.00    -0.253 OA
ATOM      5  N   UNL     1       2.705  -0.359  -0.973  0.00  0.00    -0.297 N 
ATOM      6  N   UNL     1       4.709   0.542  -0.267  0.00  0.00    -0.297 N 
ATOM     17  C   UNL     1       3.670  -0.334   0.038  0.00  0.00    +0.300 C 
ATOM     23  H   UNL     1       2.838   0.242  -1.780  0.00  0.00    +0.150 HD
ATOM     24  H   UNL     1       4.708   0.993  -1.176  0.00  0.00    +0.150 HD
BRANCH   6  18
ATOM     18  C   UNL     1       5.836   0.755   0.611  0.00  0.00    +0.068 C 
ATOM     19  C   UNL     1       6.345   2.185   0.480  0.00  0.00    +0.027 C 
ATOM     20  C   UNL     1       6.939  -0.253   0.319  0.00  0.00    +0.027 C 
ENDBRANCH   6  18
ENDBRANCH  16   5
ENDBRANCH  12  16
TORSDOF 6
