REMARK  Name = 45783903
REMARK  13 active torsions:
REMARK  status: ('A' for Active; 'I' for Inactive)
REMARK    1  A    between atoms: O_2  and  C_25
REMARK    2  A    between atoms: O_2  and  C_28
REMARK    3  A    between atoms: N_3  and  C_12
REMARK    4  A    between atoms: N_4  and  C_24
REMARK    5  A    between atoms: C_7  and  C_11
REMARK    6  A    between atoms: C_8  and  C_12
REMARK    7  A    between atoms: C_10  and  C_15
REMARK    8  A    between atoms: C_11  and  C_18
REMARK    9  A    between atoms: C_11  and  C_19
REMARK   10  A    between atoms: C_14  and  C_22
REMARK   11  A    between atoms: C_15  and  C_23
REMARK   12  A    between atoms: C_24  and  C_25
REMARK   13  A    between atoms: C_26  and  C_27
REMARK                            x       y       z     vdW  Elec       q    Type
REMARK                         _______ _______ _______ _____ _____    ______ ____
ROOT
ATOM      7  C   UNL     1       0.843  -1.711  -0.591  0.00  0.00    +0.000 C 
ATOM      8  C   UNL     1       0.624  -1.391   0.906  0.00  0.00    +0.029 C 
ATOM      9  C   UNL     1       2.070  -0.960  -1.128  0.00  0.00    +0.012 C 
ATOM     10  C   UNL     1       3.364  -1.262  -0.343  0.00  0.00    +0.024 C 
ATOM     13  C   UNL     1       1.907  -1.414   1.697  0.00  0.00    -0.023 C 
ATOM     14  C   UNL     1       3.140  -1.369   1.157  0.00  0.00    -0.073 C 
ATOM     22  C   UNL     1       4.356  -1.486   2.035  0.00  0.00    +0.039 C 
ENDROOT
BRANCH   7  11
ATOM     11  C   UNL     1       0.971  -3.222  -0.828  0.00  0.00    -0.013 C 
ATOM     18  C   UNL     1       1.608  -3.496  -2.187  0.00  0.00    +0.007 C 
ATOM     19  C   UNL     1      -0.395  -3.894  -0.725  0.00  0.00    +0.007 C 
ENDBRANCH   7  11
BRANCH   8  12
ATOM     12  C   UNL     1      -0.064  -0.036   1.100  0.00  0.00    +0.092 C 
BRANCH  12   3
ATOM      3  N   UNL     1      -1.326   0.012   0.365  0.00  0.00    -0.299 NA
ATOM      4  N   UNL     1      -4.105   0.751   0.068  0.00  0.00    -0.298 NA
ATOM     16  C   UNL     1      -1.722   1.401   0.100  0.00  0.00    +0.100 C 
ATOM     17  C   UNL     1      -2.385  -0.691   1.101  0.00  0.00    +0.100 C 
ATOM     20  C   UNL     1      -3.047   1.453  -0.668  0.00  0.00    +0.100 C 
ATOM     21  C   UNL     1      -3.710  -0.638   0.333  0.00  0.00    +0.100 C 
BRANCH   4  24
ATOM     24  C   UNL     1      -5.369   0.800  -0.665  0.00  0.00    +0.112 C 
BRANCH  24  25
ATOM     25  C   UNL     1      -6.547   0.647   0.284  0.00  0.00    +0.174 C 
BRANCH  25   2
ATOM      2  O   UNL     1      -7.751   0.718  -0.468  0.00  0.00    -0.382 OA
ATOM     28  C   UNL     1      -8.894   0.560   0.362  0.00  0.00    +0.194 C 
ENDBRANCH  25   2
ENDBRANCH  24  25
ENDBRANCH   4  24
ENDBRANCH  12   3
ENDBRANCH   8  12
BRANCH  10  15
ATOM     15  C   UNL     1       4.419  -0.213  -0.715  0.00  0.00    +0.105 C 
BRANCH  15  23
ATOM      1  O   UNL     1       3.907   2.125  -1.194  0.00  0.00    -0.425 OA
ATOM      5  N   UNL     1       3.760   1.579   0.971  0.00  0.00    -0.112 NA
ATOM      6  N   UNL     1       3.449   2.921   0.846  0.00  0.00    -0.113 NA
ATOM     23  C   UNL     1       4.021   1.156  -0.244  0.00  0.00    +0.218 A 
ATOM     26  C   UNL     1       3.547   3.195  -0.433  0.00  0.00    +0.214 A 
ATOM     27  C   UNL     1       3.329   4.465  -1.138  0.00  0.00    +0.111 C 
ENDBRANCH  15  23
ENDBRANCH  10  15
TORSDOF 8
