REMARK  Name = 25389516
REMARK  8 active torsions:
REMARK  status: ('A' for Active; 'I' for Inactive)
REMARK    1  A    between atoms: O_2  and  C_36
REMARK    2  A    between atoms: O_2  and  C_37
REMARK    3  A    between atoms: N_4  and  C_19
REMARK    4  A    between atoms: N_5  and  C_16
REMARK    5  A    between atoms: N_7  and  C_26
REMARK    6  A    between atoms: C_9  and  C_15
REMARK    7  A    between atoms: C_10  and  C_16
REMARK    8  A    between atoms: C_18  and  C_21
REMARK                            x       y       z     vdW  Elec       q    Type
REMARK                         _______ _______ _______ _____ _____    ______ ____
ROOT
ATOM      3  N   UNL     1      -0.868  -3.458   1.367  0.00  0.00    -0.297 NA
ATOM      8  C   UNL     1       0.081  -3.358  -1.056  0.00  0.00    +0.002 C 
ATOM      9  C   UNL     1       1.237  -3.348  -0.019  0.00  0.00    +0.055 C 
ATOM     10  C   UNL     1      -1.557  -2.391   0.595  0.00  0.00    +0.074 C 
ATOM     11  C   UNL     1      -0.871  -2.177  -0.771  0.00  0.00    +0.024 C 
ATOM     12  C   UNL     1      -0.721  -4.655  -0.816  0.00  0.00    +0.019 C 
ATOM     13  C   UNL     1       0.594  -3.205   1.390  0.00  0.00    +0.094 C 
ATOM     14  C   UNL     1      -1.103  -4.747   0.671  0.00  0.00    +0.085 C 
ENDROOT
BRANCH   9  15
ATOM      4  N   UNL     1       3.498  -2.677  -0.958  0.00  0.00    -0.270 N 
ATOM      6  N   UNL     1       4.394  -1.679  -1.026  0.00  0.00    -0.171 NA
ATOM     15  C   UNL     1       2.385  -2.371  -0.231  0.00  0.00    +0.044 A 
ATOM     17  C   UNL     1       2.566  -1.082   0.207  0.00  0.00    +0.053 A 
ATOM     18  C   UNL     1       3.820  -0.707  -0.312  0.00  0.00    +0.093 A 
ATOM     19  C   UNL     1       3.781  -3.926  -1.627  0.00  0.00    +0.172 C 
BRANCH  18  21
ATOM     21  C   UNL     1       4.479   0.561  -0.138  0.00  0.00    +0.003 A 
ATOM     22  C   UNL     1       5.873   0.627  -0.131  0.00  0.00    +0.018 A 
ATOM     23  C   UNL     1       3.726   1.721   0.023  0.00  0.00    +0.011 A 
ATOM     24  C   UNL     1       6.532   1.856   0.037  0.00  0.00    -0.017 A 
ATOM     25  C   UNL     1       4.364   2.950   0.191  0.00  0.00    +0.009 A 
ATOM     27  C   UNL     1       5.766   3.035   0.201  0.00  0.00    -0.018 A 
ATOM     28  C   UNL     1       7.933   1.941   0.047  0.00  0.00    +0.008 A 
ATOM     29  C   UNL     1       6.424   4.264   0.369  0.00  0.00    +0.008 A 
ATOM     32  C   UNL     1       8.571   3.170   0.215  0.00  0.00    +0.001 A 
ATOM     33  C   UNL     1       7.818   4.330   0.376  0.00  0.00    +0.001 A 
ENDBRANCH  18  21
ENDBRANCH   9  15
BRANCH  10  16
ATOM     16  C   UNL     1      -1.676  -1.086   1.384  0.00  0.00    +0.124 C 
BRANCH  16   5
ATOM      1  O   UNL     1      -4.513  -0.707   1.514  0.00  0.00    -0.253 OA
ATOM      5  N   UNL     1      -2.444  -0.120   0.660  0.00  0.00    -0.298 N 
ATOM      7  N   UNL     1      -4.313   1.033  -0.049  0.00  0.00    -0.269 N 
ATOM     20  C   UNL     1      -3.840   0.008   0.775  0.00  0.00    +0.304 C 
ATOM     38  H   UNL     1      -1.955   0.503   0.025  0.00  0.00    +0.150 HD
ATOM     39  H   UNL     1      -3.620   1.531  -0.601  0.00  0.00    +0.156 HD
BRANCH   7  26
ATOM     26  C   UNL     1      -5.649   1.468  -0.213  0.00  0.00    +0.035 A 
ATOM     30  C   UNL     1      -5.939   2.515  -1.088  0.00  0.00    +0.027 A 
ATOM     31  C   UNL     1      -6.677   0.850   0.499  0.00  0.00    +0.027 A 
ATOM     34  C   UNL     1      -7.256   2.944  -1.251  0.00  0.00    +0.047 A 
ATOM     35  C   UNL     1      -7.994   1.279   0.337  0.00  0.00    +0.047 A 
ATOM     36  C   UNL     1      -8.284   2.326  -0.538  0.00  0.00    +0.120 A 
BRANCH  36   2
ATOM      2  O   UNL     1      -9.569   2.745  -0.697  0.00  0.00    -0.495 OA
ATOM     37  C   UNL     1     -10.570   2.070   0.063  0.00  0.00    +0.277 C 
ENDBRANCH  36   2
ENDBRANCH   7  26
ENDBRANCH  16   5
ENDBRANCH  10  16
TORSDOF 6
