REMARK  Name = 56775453
REMARK  11 active torsions:
REMARK  status: ('A' for Active; 'I' for Inactive)
REMARK    1  A    between atoms: O_3  and  C_23
REMARK    2  A    between atoms: O_3  and  C_24
REMARK    3  A    between atoms: N_4  and  C_6
REMARK    4  A    between atoms: N_4  and  C_11
REMARK    5  A    between atoms: C_6  and  C_9
REMARK    6  A    between atoms: C_9  and  C_10
REMARK    7  A    between atoms: C_11  and  C_15
REMARK    8  A    between atoms: C_12  and  C_14
REMARK    9  A    between atoms: C_12  and  C_16
REMARK   10  A    between atoms: C_12  and  C_17
REMARK   11  A    between atoms: C_12  and  C_18
REMARK                            x       y       z     vdW  Elec       q    Type
REMARK                         _______ _______ _______ _____ _____    ______ ____
ROOT
ATOM      1  O   UNL     1      -0.181   4.057  -1.042  0.00  0.00    -0.376 OA
ATOM      6  C   UNL     1      -0.419   2.214   0.009  0.00  0.00    +0.072 C 
ATOM      7  C   UNL     1       0.428   3.476   0.133  0.00  0.00    +0.184 C 
ATOM      8  C   UNL     1      -0.945   2.851  -1.273  0.00  0.00    +0.184 C 
ENDROOT
BRANCH   6   4
ATOM      4  N   UNL     1       0.449   1.099  -0.343  0.00  0.00    -0.302 NA
ATOM     25  H   UNL     1      -0.018   0.315  -0.796  0.00  0.00    +0.123 HD
BRANCH   4  11
ATOM     11  C   UNL     1       1.161   0.633   0.845  0.00  0.00    +0.117 C 
BRANCH  11  15
ATOM     15  C   UNL     1       2.451  -0.057   0.490  0.00  0.00    -0.033 A 
ATOM     19  C   UNL     1       3.666   0.605   0.665  0.00  0.00    +0.008 A 
ATOM     20  C   UNL     1       2.432  -1.357  -0.014  0.00  0.00    +0.008 A 
ATOM     21  C   UNL     1       4.862  -0.034   0.337  0.00  0.00    +0.046 A 
ATOM     22  C   UNL     1       3.627  -1.996  -0.343  0.00  0.00    +0.046 A 
ATOM     23  C   UNL     1       4.843  -1.334  -0.167  0.00  0.00    +0.120 A 
BRANCH  23   3
ATOM      3  O   UNL     1       6.009  -1.957  -0.488  0.00  0.00    -0.495 OA
ATOM     24  C   UNL     1       7.215  -1.222  -0.284  0.00  0.00    +0.277 C 
ENDBRANCH  23   3
ENDBRANCH  11  15
ENDBRANCH   4  11
ENDBRANCH   6   4
BRANCH   6   9
ATOM      9  C   UNL     1      -1.409   1.871   1.130  0.00  0.00    +0.085 C 
BRANCH   9  10
ATOM      2  O   UNL     1      -4.317   0.286  -0.206  0.00  0.00    -0.359 OA
ATOM      5  N   UNL     1      -3.577   1.413   0.131  0.00  0.00    -0.083 NA
ATOM     10  C   UNL     1      -2.445   0.938   0.657  0.00  0.00    +0.086 A 
ATOM     13  C   UNL     1      -2.413  -0.467   0.677  0.00  0.00    +0.071 A 
ATOM     14  C   UNL     1      -3.614  -0.827   0.124  0.00  0.00    +0.143 A 
BRANCH  14  12
ATOM     12  C   UNL     1      -4.283  -2.178  -0.181  0.00  0.00    +0.023 C 
ATOM     16  C   UNL     1      -4.459  -2.977   1.129  0.00  0.00    +0.019 C 
ATOM     17  C   UNL     1      -3.401  -2.987  -1.155  0.00  0.00    +0.019 C 
ATOM     18  C   UNL     1      -5.680  -2.051  -0.829  0.00  0.00    +0.019 C 
ENDBRANCH  14  12
ENDBRANCH   9  10
ENDBRANCH   6   9
TORSDOF 7
