REMARK  Name = 75537008
REMARK  2 active torsions:
REMARK  status: ('A' for Active; 'I' for Inactive)
REMARK    1  A    between atoms: N_3  and  C_7
REMARK    2  A    between atoms: C_18  and  C_19
REMARK                            x       y       z     vdW  Elec       q    Type
REMARK                         _______ _______ _______ _____ _____    ______ ____
ROOT
ATOM      1  O   UNL     1       0.833  -2.628  -0.062  0.00  0.00    -0.252 OA
ATOM      2  O   UNL     1      -5.557   0.128   0.086  0.00  0.00    -0.276 OA
ATOM      3  N   UNL     1       1.265  -0.317   0.127  0.00  0.00    -0.281 N 
ATOM      4  N   UNL     1      -0.866  -1.026   0.200  0.00  0.00    -0.278 N 
ATOM      5  N   UNL     1      -3.274   0.269  -0.318  0.00  0.00    -0.298 N 
ATOM      6  C   UNL     1      -0.946   0.401   0.457  0.00  0.00    +0.112 C 
ATOM      8  C   UNL     1       0.473   0.898   0.193  0.00  0.00    +0.133 C 
ATOM     11  C   UNL     1      -2.021   1.040  -0.419  0.00  0.00    +0.131 C 
ATOM     12  C   UNL     1       0.458  -1.471   0.075  0.00  0.00    +0.305 C 
ATOM     13  C   UNL     1      -2.076  -1.828   0.202  0.00  0.00    +0.128 C 
ATOM     17  C   UNL     1      -3.146  -1.157  -0.656  0.00  0.00    +0.127 C 
ATOM     18  C   UNL     1      -4.517   0.791   0.034  0.00  0.00    +0.213 C 
ATOM     19  C   UNL     1      -4.561   2.260   0.368  0.00  0.00    +0.109 C 
ENDROOT
BRANCH   3   7
ATOM      7  C   UNL     1       2.701  -0.286  -0.009  0.00  0.00    +0.078 C 
ATOM      9  C   UNL     1       3.113   0.537  -1.232  0.00  0.00    +0.022 C 
ATOM     10  C   UNL     1       3.349   0.253   1.269  0.00  0.00    +0.022 C 
ATOM     14  C   UNL     1       4.631   0.628  -1.363  0.00  0.00    +0.002 C 
ATOM     15  C   UNL     1       4.867   0.346   1.135  0.00  0.00    +0.002 C 
ATOM     16  C   UNL     1       5.275   1.163  -0.087  0.00  0.00    +0.000 C 
ENDBRANCH   3   7
TORSDOF 1
