REMARK  Name = 75536702
REMARK  8 active torsions:
REMARK  status: ('A' for Active; 'I' for Inactive)
REMARK    1  A    between atoms: S_1  and  N_9
REMARK    2  A    between atoms: S_1  and  C_21
REMARK    3  A    between atoms: O_5  and  C_12
REMARK    4  A    between atoms: N_8  and  C_10
REMARK    5  A    between atoms: N_8  and  C_11
REMARK    6  A    between atoms: N_9  and  C_20
REMARK    7  A    between atoms: C_13  and  C_20
REMARK    8  A    between atoms: C_26  and  C_27
REMARK                            x       y       z     vdW  Elec       q    Type
REMARK                         _______ _______ _______ _____ _____    ______ ____
ROOT
ATOM      4  O   UNL     1      -0.084   0.929  -1.338  0.00  0.00    -0.371 OA
ATOM     10  C   UNL     1      -1.939   0.320   0.015  0.00  0.00    +0.111 C 
ATOM     12  C   UNL     1      -0.663   0.155   0.820  0.00  0.00    +0.164 C 
ATOM     13  C   UNL     1       0.292   1.051   0.044  0.00  0.00    +0.164 C 
ATOM     16  C   UNL     1      -1.397   0.345  -1.405  0.00  0.00    +0.181 C 
ENDROOT
BRANCH  12   5
ATOM      5  O   UNL     1      -0.806   0.576   2.163  0.00  0.00    -0.388 OA
ATOM     29  H   UNL     1      -1.110   1.499   2.164  0.00  0.00    +0.210 HD
ENDBRANCH  12   5
BRANCH  10   8
ATOM      8  N   UNL     1      -2.908  -0.741   0.233  0.00  0.00    -0.306 NA
ATOM     28  H   UNL     1      -2.974  -0.959   1.227  0.00  0.00    +0.123 HD
BRANCH   8  11
ATOM      2  F   UNL     1      -8.357   0.047  -0.572  0.00  0.00    -0.206 F 
ATOM      3  F   UNL     1      -7.409  -1.002   1.081  0.00  0.00    -0.206 F 
ATOM     11  C   UNL     1      -4.221  -0.357  -0.282  0.00  0.00    +0.054 C 
ATOM     14  C   UNL     1      -5.051  -1.613  -0.578  0.00  0.00    +0.024 C 
ATOM     15  C   UNL     1      -4.931   0.552   0.728  0.00  0.00    +0.024 C 
ATOM     17  C   UNL     1      -6.457  -1.250  -1.051  0.00  0.00    +0.077 C 
ATOM     18  C   UNL     1      -6.337   0.916   0.255  0.00  0.00    +0.077 C 
ATOM     19  C   UNL     1      -7.153  -0.324  -0.068  0.00  0.00    +0.249 C 
ENDBRANCH   8  11
ENDBRANCH  10   8
BRANCH  13  20
ATOM     20  C   UNL     1       1.751   0.664   0.214  0.00  0.00    +0.140 C 
BRANCH  20   9
ATOM      9  N   UNL     1       2.601   1.581  -0.570  0.00  0.00    -0.187 NA
ATOM     30  H   UNL     1       2.405   1.619  -1.578  0.00  0.00    +0.148 HD
BRANCH   9   1
ATOM      1  S   UNL     1       4.174   1.950  -0.036  0.00  0.00    +0.058 S 
ATOM      6  O   UNL     1       4.116   2.438   1.329  0.00  0.00    -0.153 OA
ATOM      7  O   UNL     1       4.850   2.724  -1.060  0.00  0.00    -0.153 OA
BRANCH   1  21
ATOM     21  C   UNL     1       4.932   0.353  -0.012  0.00  0.00    +0.105 A 
ATOM     22  C   UNL     1       5.584  -0.126  -1.148  0.00  0.00    +0.029 A 
ATOM     23  C   UNL     1       4.876  -0.428   1.142  0.00  0.00    +0.029 A 
ATOM     24  C   UNL     1       6.180  -1.387  -1.130  0.00  0.00    +0.005 A 
ATOM     25  C   UNL     1       5.472  -1.689   1.159  0.00  0.00    +0.005 A 
ATOM     26  C   UNL     1       6.124  -2.168   0.024  0.00  0.00    -0.050 A 
ATOM     27  C   UNL     1       6.761  -3.517   0.042  0.00  0.00    +0.044 C 
ENDBRANCH   1  21
ENDBRANCH   9   1
ENDBRANCH  20   9
ENDBRANCH  13  20
TORSDOF 7
