REMARK  Name = 45361404
REMARK  9 active torsions:
REMARK  status: ('A' for Active; 'I' for Inactive)
REMARK    1  A    between atoms: O_1  and  C_9
REMARK    2  A    between atoms: N_4  and  C_13
REMARK    3  A    between atoms: C_6  and  C_16
REMARK    4  A    between atoms: C_8  and  C_18
REMARK    5  A    between atoms: C_11  and  C_17
REMARK    6  A    between atoms: C_17  and  C_19
REMARK    7  A    between atoms: C_17  and  C_20
REMARK    8  A    between atoms: C_21  and  C_27
REMARK    9  A    between atoms: C_26  and  C_28
REMARK                            x       y       z     vdW  Elec       q    Type
REMARK                         _______ _______ _______ _____ _____    ______ ____
ROOT
ATOM      6  C   UNL     1       0.005   1.199  -1.455  0.00  0.00    -0.027 C 
ATOM      7  C   UNL     1      -0.065   0.387  -0.119  0.00  0.00    +0.028 C 
ATOM      8  C   UNL     1      -1.521   0.400   0.468  0.00  0.00    +0.012 C 
ATOM      9  C   UNL     1       1.058   0.824   0.866  0.00  0.00    +0.122 C 
ATOM     10  C   UNL     1       1.421   1.071  -2.064  0.00  0.00    +0.007 C 
ATOM     11  C   UNL     1       2.462   0.793   0.218  0.00  0.00    +0.029 C 
ATOM     12  C   UNL     1      -0.998   0.596  -2.465  0.00  0.00    +0.009 C 
ATOM     13  C   UNL     1      -2.531  -0.139  -0.584  0.00  0.00    +0.076 C 
ATOM     14  C   UNL     1       2.520   1.536  -1.116  0.00  0.00    +0.007 C 
ATOM     15  C   UNL     1      -2.426   0.558  -1.940  0.00  0.00    +0.023 C 
ATOM     16  C   UNL     1      -0.316   2.702  -1.253  0.00  0.00    +0.011 C 
ATOM     18  C   UNL     1      -1.668  -0.406   1.770  0.00  0.00    +0.010 C 
ENDROOT
BRANCH  13   4
ATOM      3  O   UNL     1      -4.700  -1.912  -1.213  0.00  0.00    -0.270 OA
ATOM      4  N   UNL     1      -3.898  -0.032  -0.118  0.00  0.00    -0.308 N 
ATOM     21  C   UNL     1      -4.877  -0.942  -0.480  0.00  0.00    +0.244 C 
ATOM     34  H   UNL     1      -4.142   0.807   0.396  0.00  0.00    +0.149 HD
BRANCH  21  27
ATOM     27  C   UNL     1      -6.235  -0.678   0.060  0.00  0.00    +0.037 A 
ATOM     29  C   UNL     1      -7.360  -1.132  -0.629  0.00  0.00    +0.013 A 
ATOM     30  C   UNL     1      -6.386   0.022   1.257  0.00  0.00    +0.013 A 
ATOM     31  C   UNL     1      -8.635  -0.885  -0.121  0.00  0.00    +0.001 A 
ATOM     32  C   UNL     1      -7.661   0.268   1.765  0.00  0.00    +0.001 A 
ATOM     33  C   UNL     1      -8.786  -0.185   1.076  0.00  0.00    +0.000 A 
ENDBRANCH  21  27
ENDBRANCH  13   4
BRANCH   9   1
ATOM      1  O   UNL     1       1.099  -0.078   1.972  0.00  0.00    -0.391 OA
ATOM     35  H   UNL     1       1.285  -0.969   1.630  0.00  0.00    +0.210 HD
ENDBRANCH   9   1
BRANCH  11  17
ATOM     17  C   UNL     1       3.535   1.351   1.162  0.00  0.00    +0.078 C 
ATOM     19  C   UNL     1       3.255   2.800   1.514  0.00  0.00    +0.017 C 
BRANCH  17  20
ATOM      2  O   UNL     1       5.303   2.179  -0.182  0.00  0.00    -0.275 OA
ATOM      5  N   UNL     1       5.564   0.032   0.666  0.00  0.00    -0.301 N 
ATOM     20  C   UNL     1       4.878   1.232   0.487  0.00  0.00    +0.219 C 
ATOM     22  C   UNL     1       5.087  -1.110   1.454  0.00  0.00    +0.108 C 
ATOM     23  C   UNL     1       6.892  -0.145   0.076  0.00  0.00    +0.108 C 
ATOM     24  C   UNL     1       5.099  -2.389   0.618  0.00  0.00    +0.022 C 
ATOM     25  C   UNL     1       6.941  -1.402  -0.790  0.00  0.00    +0.022 C 
ATOM     26  C   UNL     1       6.482  -2.638  -0.002  0.00  0.00    -0.011 C 
ATOM     28  C   UNL     1       6.462  -3.876  -0.896  0.00  0.00    +0.007 C 
ENDBRANCH  17  20
ENDBRANCH  11  17
TORSDOF 5
