REMARK  Name = 7051070
REMARK  12 active torsions:
REMARK  status: ('A' for Active; 'I' for Inactive)
REMARK    1  A    between atoms: O_3  and  C_15
REMARK    2  A    between atoms: O_4  and  C_20
REMARK    3  A    between atoms: N_8  and  C_26
REMARK    4  A    between atoms: N_8  and  C_27
REMARK    5  A    between atoms: C_10  and  C_18
REMARK    6  A    between atoms: C_12  and  C_20
REMARK    7  A    between atoms: C_12  and  C_21
REMARK    8  A    between atoms: C_13  and  C_23
REMARK    9  A    between atoms: C_23  and  C_24
REMARK   10  A    between atoms: C_26  and  C_29
REMARK   11  A    between atoms: C_27  and  C_30
REMARK   12  A    between atoms: C_28  and  C_31
REMARK                            x       y       z     vdW  Elec       q    Type
REMARK                         _______ _______ _______ _____ _____    ______ ____
ROOT
ATOM      1  S   UNL     1       0.432   2.688   0.268  0.00  0.00    -0.057 S 
ATOM      6  O   UNL     1       3.475  -0.802  -0.215  0.00  0.00    -0.270 OA
ATOM      7  N   UNL     1       0.673   0.137  -0.088  0.00  0.00    -0.229 NA
ATOM      9  N   UNL     1       2.713   1.407   0.094  0.00  0.00    -0.261 N 
ATOM     10  C   UNL     1      -3.155  -0.145   0.273  0.00  0.00    -0.019 C 
ATOM     11  C   UNL     1      -3.399   1.304  -0.341  0.00  0.00    +0.011 C 
ATOM     12  C   UNL     1      -4.882   1.840  -0.346  0.00  0.00    +0.021 C 
ATOM     13  C   UNL     1      -1.720  -0.651  -0.213  0.00  0.00    +0.054 C 
ATOM     14  C   UNL     1      -4.229  -1.123  -0.273  0.00  0.00    +0.010 C 
ATOM     15  C   UNL     1      -5.827   0.724  -0.875  0.00  0.00    +0.123 C 
ATOM     16  C   UNL     1      -2.363   2.332   0.201  0.00  0.00    +0.049 C 
ATOM     17  C   UNL     1      -5.655  -0.605  -0.148  0.00  0.00    +0.032 C 
ATOM     18  C   UNL     1      -3.210  -0.160   1.820  0.00  0.00    +0.012 C 
ATOM     19  C   UNL     1      -0.678   0.424  -0.039  0.00  0.00    +0.058 A 
ATOM     21  C   UNL     1      -4.985   3.038  -1.332  0.00  0.00    +0.016 C 
ATOM     22  C   UNL     1      -0.988   1.758   0.127  0.00  0.00    +0.015 A 
ATOM     25  C   UNL     1       1.353   1.252   0.070  0.00  0.00    +0.165 A 
ATOM     28  C   UNL     1       3.678   0.396  -0.047  0.00  0.00    +0.250 C 
ATOM     39  H   UNL     1       3.009   2.374   0.187  0.00  0.00    +0.157 HD
ENDROOT
BRANCH  28  31
ATOM      2  F   UNL     1       9.017   2.132   0.082  0.00  0.00    -0.205 F 
ATOM     31  C   UNL     1       5.091   0.855  -0.012  0.00  0.00    +0.037 A 
ATOM     32  C   UNL     1       6.079   0.124  -0.672  0.00  0.00    +0.016 A 
ATOM     33  C   UNL     1       5.430   2.018   0.680  0.00  0.00    +0.016 A 
ATOM     34  C   UNL     1       7.405   0.555  -0.640  0.00  0.00    +0.039 A 
ATOM     35  C   UNL     1       6.756   2.449   0.712  0.00  0.00    +0.039 A 
ATOM     36  C   UNL     1       7.744   1.718   0.051  0.00  0.00    +0.123 A 
ENDBRANCH  28  31
BRANCH  15   3
ATOM      3  O   UNL     1      -7.192   1.130  -0.772  0.00  0.00    -0.391 OA
ATOM     37  H   UNL     1      -7.739   0.424  -1.155  0.00  0.00    +0.210 HD
ENDBRANCH  15   3
BRANCH  12  20
ATOM     20  C   UNL     1      -5.374   2.378   1.015  0.00  0.00    +0.165 C 
BRANCH  20   4
ATOM      4  O   UNL     1      -6.700   2.826   0.849  0.00  0.00    -0.394 OA
ATOM     38  H   UNL     1      -6.999   3.172   1.707  0.00  0.00    +0.209 HD
ENDBRANCH  20   4
ENDBRANCH  12  20
BRANCH  13  23
ATOM     23  C   UNL     1      -1.267  -1.978   0.411  0.00  0.00    +0.106 C 
BRANCH  23  24
ATOM      5  O   UNL     1       0.051  -2.266  -1.571  0.00  0.00    -0.276 OA
ATOM      8  N   UNL     1       0.162  -3.953   0.017  0.00  0.00    -0.302 N 
ATOM     24  C   UNL     1      -0.296  -2.729  -0.481  0.00  0.00    +0.216 C 
BRANCH   8  26
ATOM     26  C   UNL     1       1.099  -4.795  -0.718  0.00  0.00    +0.104 C 
ATOM     29  C   UNL     1       2.535  -4.457  -0.374  0.00  0.00    +0.024 C 
ENDBRANCH   8  26
BRANCH   8  27
ATOM     27  C   UNL     1      -0.265  -4.481   1.311  0.00  0.00    +0.104 C 
ATOM     30  C   UNL     1      -1.506  -5.339   1.179  0.00  0.00    +0.024 C 
ENDBRANCH   8  27
ENDBRANCH  23  24
ENDBRANCH  13  23
TORSDOF 8
