REMARK  Name = 44716947
REMARK  14 active torsions:
REMARK  status: ('A' for Active; 'I' for Inactive)
REMARK    1  A    between atoms: O_1  and  C_16
REMARK    2  A    between atoms: O_1  and  C_25
REMARK    3  A    between atoms: O_2  and  C_17
REMARK    4  A    between atoms: O_3  and  C_21
REMARK    5  A    between atoms: O_6  and  C_33
REMARK    6  A    between atoms: O_6  and  C_36
REMARK    7  A    between atoms: O_7  and  C_34
REMARK    8  A    between atoms: O_7  and  C_37
REMARK    9  A    between atoms: N_9  and  C_30
REMARK   10  A    between atoms: C_10  and  C_20
REMARK   11  A    between atoms: C_12  and  C_21
REMARK   12  A    between atoms: C_12  and  C_23
REMARK   13  A    between atoms: C_13  and  C_22
REMARK   14  A    between atoms: C_22  and  C_24
REMARK                            x       y       z     vdW  Elec       q    Type
REMARK                         _______ _______ _______ _____ _____    ______ ____
ROOT
ATOM     10  C   UNL     1      -2.524  -0.767   0.297  0.00  0.00    -0.023 C 
ATOM     11  C   UNL     1      -1.842  -1.756  -0.726  0.00  0.00    +0.007 C 
ATOM     12  C   UNL     1      -0.336  -2.133  -0.450  0.00  0.00    +0.031 C 
ATOM     13  C   UNL     1      -3.890  -0.296  -0.355  0.00  0.00    +0.032 C 
ATOM     14  C   UNL     1      -1.597   0.464   0.483  0.00  0.00    +0.011 C 
ATOM     15  C   UNL     1      -2.763  -2.960  -1.026  0.00  0.00    +0.007 C 
ATOM     16  C   UNL     1       0.473  -0.824  -0.200  0.00  0.00    +0.186 C 
ATOM     17  C   UNL     1      -4.815  -1.468  -0.758  0.00  0.00    +0.119 C 
ATOM     18  C   UNL     1      -0.158   0.102   0.834  0.00  0.00    +0.046 C 
ATOM     19  C   UNL     1      -4.097  -2.503  -1.619  0.00  0.00    +0.032 C 
ATOM     20  C   UNL     1      -2.774  -1.393   1.691  0.00  0.00    +0.012 C 
ATOM     23  C   UNL     1       0.259  -2.813  -1.716  0.00  0.00    +0.017 C 
ENDROOT
BRANCH  17   2
ATOM      2  O   UNL     1      -5.368  -2.099   0.393  0.00  0.00    -0.391 OA
ATOM     38  H   UNL     1      -5.966  -2.801   0.086  0.00  0.00    +0.210 HD
ENDBRANCH  17   2
BRANCH  16   1
ATOM      1  O   UNL     1       1.803  -1.098   0.239  0.00  0.00    -0.446 OA
BRANCH   1  25
ATOM      5  O   UNL     1       2.517   0.827  -0.767  0.00  0.00    -0.226 OA
ATOM      9  N   UNL     1       3.980  -0.592   0.385  0.00  0.00    -0.251 N 
ATOM     25  C   UNL     1       2.759  -0.180  -0.114  0.00  0.00    +0.405 C 
ATOM     40  H   UNL     1       3.982  -1.464   0.907  0.00  0.00    +0.158 HD
BRANCH   9  30
ATOM     30  C   UNL     1       5.233   0.051   0.258  0.00  0.00    +0.043 A 
ATOM     31  C   UNL     1       6.369  -0.518   0.834  0.00  0.00    +0.069 A 
ATOM     32  C   UNL     1       5.333   1.253  -0.443  0.00  0.00    +0.069 A 
ATOM     33  C   UNL     1       6.570   1.886  -0.568  0.00  0.00    +0.125 A 
ATOM     34  C   UNL     1       7.606   0.115   0.708  0.00  0.00    +0.125 A 
ATOM     35  C   UNL     1       7.706   1.317   0.008  0.00  0.00    +0.091 A 
BRANCH  33   6
ATOM      6  O   UNL     1       6.668   3.059  -1.252  0.00  0.00    -0.495 OA
ATOM     36  C   UNL     1       7.963   3.652  -1.341  0.00  0.00    +0.277 C 
ENDBRANCH  33   6
BRANCH  34   7
ATOM      7  O   UNL     1       8.715  -0.439   1.270  0.00  0.00    -0.495 OA
ATOM     37  C   UNL     1       9.946   0.262   1.103  0.00  0.00    +0.277 C 
ENDBRANCH  34   7
ENDBRANCH   9  30
ENDBRANCH   1  25
ENDBRANCH  16   1
BRANCH  12  21
ATOM     21  C   UNL     1      -0.140  -3.143   0.699  0.00  0.00    +0.166 C 
BRANCH  21   3
ATOM      3  O   UNL     1       1.127  -3.742   0.538  0.00  0.00    -0.394 OA
ATOM     39  H   UNL     1       1.240  -4.380   1.263  0.00  0.00    +0.209 HD
ENDBRANCH  21   3
ENDBRANCH  12  21
BRANCH  13  22
ATOM     22  C   UNL     1      -4.680   0.732   0.471  0.00  0.00    +0.102 C 
BRANCH  22  24
ATOM      4  O   UNL     1      -5.306   1.709  -1.609  0.00  0.00    -0.276 OA
ATOM      8  N   UNL     1      -6.776   1.952   0.157  0.00  0.00    -0.301 N 
ATOM     24  C   UNL     1      -5.608   1.505  -0.432  0.00  0.00    +0.216 C 
ATOM     26  C   UNL     1      -7.193   1.742   1.540  0.00  0.00    +0.108 C 
ATOM     27  C   UNL     1      -7.772   2.719  -0.578  0.00  0.00    +0.108 C 
ATOM     28  C   UNL     1      -8.390   2.665   1.720  0.00  0.00    +0.020 C 
ATOM     29  C   UNL     1      -8.997   2.713   0.324  0.00  0.00    +0.020 C 
ENDBRANCH  22  24
ENDBRANCH  13  22
TORSDOF 10
