REMARK  Name = 75536943
REMARK  4 active torsions:
REMARK  status: ('A' for Active; 'I' for Inactive)
REMARK    1  A    between atoms: O_2  and  C_8
REMARK    2  A    between atoms: O_2  and  C_15
REMARK    3  A    between atoms: C_13  and  C_14
REMARK    4  A    between atoms: C_19  and  C_22
REMARK                            x       y       z     vdW  Elec       q    Type
REMARK                         _______ _______ _______ _____ _____    ______ ____
ROOT
ATOM      1  O   UNL     1      -0.932  -2.718  -0.717  0.00  0.00    -0.375 OA
ATOM      3  O   UNL     1       3.653  -2.099   0.662  0.00  0.00    -0.270 OA
ATOM      4  N   UNL     1       1.482  -1.219   0.606  0.00  0.00    -0.292 N 
ATOM      8  C   UNL     1      -0.842  -0.378  -0.033  0.00  0.00    +0.218 C 
ATOM      9  C   UNL     1       0.603  -0.068   0.368  0.00  0.00    +0.155 C 
ATOM     10  C   UNL     1       0.868  -2.507   0.929  0.00  0.00    +0.136 C 
ATOM     11  C   UNL     1      -0.947  -1.373  -1.186  0.00  0.00    +0.206 C 
ATOM     12  C   UNL     1       0.350  -3.198  -0.326  0.00  0.00    +0.179 C 
ATOM     13  C   UNL     1       2.881  -1.154   0.502  0.00  0.00    +0.250 C 
ENDROOT
BRANCH  13  14
ATOM      6  N   UNL     1       3.892   2.455   0.714  0.00  0.00    -0.243 NA
ATOM      7  N   UNL     1       4.853   1.498  -1.278  0.00  0.00    -0.243 NA
ATOM     14  C   UNL     1       3.498   0.141   0.178  0.00  0.00    +0.073 A 
ATOM     17  C   UNL     1       3.340   1.252   0.981  0.00  0.00    +0.127 A 
ATOM     18  C   UNL     1       4.273   0.325  -0.950  0.00  0.00    +0.127 A 
ATOM     23  C   UNL     1       4.625   2.506  -0.415  0.00  0.00    +0.221 A 
ENDBRANCH  13  14
BRANCH   8   2
ATOM      2  O   UNL     1      -1.433   0.860  -0.432  0.00  0.00    -0.469 OA
BRANCH   2  15
ATOM      5  N   UNL     1      -3.522  -0.116  -0.193  0.00  0.00    -0.218 NA
ATOM     15  C   UNL     1      -2.770   1.007  -0.183  0.00  0.00    +0.215 A 
ATOM     16  C   UNL     1      -3.273   2.275   0.060  0.00  0.00    +0.067 A 
ATOM     19  C   UNL     1      -4.842   0.043   0.054  0.00  0.00    +0.042 A 
ATOM     20  C   UNL     1      -4.635   2.398   0.309  0.00  0.00    +0.007 A 
ATOM     21  C   UNL     1      -5.442   1.266   0.308  0.00  0.00    +0.023 A 
ATOM     22  C   UNL     1      -5.678  -1.194   0.041  0.00  0.00    +0.066 C 
ENDBRANCH   2  15
ENDBRANCH   8   2
TORSDOF 3
