REMARK  Name = 11911777
REMARK  9 active torsions:
REMARK  status: ('A' for Active; 'I' for Inactive)
REMARK    1  A    between atoms: O_4  and  C_28
REMARK    2  A    between atoms: O_4  and  C_35
REMARK    3  A    between atoms: N_5  and  C_12
REMARK    4  A    between atoms: N_6  and  C_13
REMARK    5  A    between atoms: N_9  and  C_26
REMARK    6  A    between atoms: N_9  and  C_30
REMARK    7  A    between atoms: N_9  and  C_31
REMARK    8  A    between atoms: C_16  and  C_18
REMARK    9  A    between atoms: C_21  and  C_27
REMARK                            x       y       z     vdW  Elec       q    Type
REMARK                         _______ _______ _______ _____ _____    ______ ____
ROOT
ATOM      1  O   UNL     1       0.432   1.756   1.691  0.00  0.00    -0.370 OA
ATOM      2  O   UNL     1       0.233   4.195  -0.245  0.00  0.00    -0.370 OA
ATOM     10  C   UNL     1      -0.338   2.876  -0.262  0.00  0.00    +0.171 C 
ATOM     11  C   UNL     1       0.707   1.926   0.290  0.00  0.00    +0.171 C 
ATOM     12  C   UNL     1      -1.477   2.785   0.727  0.00  0.00    +0.130 C 
ATOM     13  C   UNL     1       2.013   2.660   0.097  0.00  0.00    +0.130 C 
ATOM     14  C   UNL     1      -0.755   2.489   2.030  0.00  0.00    +0.185 C 
ATOM     15  C   UNL     1       1.595   4.115   0.200  0.00  0.00    +0.185 C 
ENDROOT
BRANCH  13   6
ATOM      6  N   UNL     1       2.546   2.384  -1.219  0.00  0.00    -0.306 N 
ATOM      7  N   UNL     1       3.593   0.410  -0.502  0.00  0.00    -0.214 NA
ATOM      8  N   UNL     1       3.759   1.136  -2.793  0.00  0.00    -0.223 NA
ATOM     17  C   UNL     1       3.322   1.277  -1.513  0.00  0.00    +0.216 A 
ATOM     21  C   UNL     1       4.352  -0.658  -0.824  0.00  0.00    +0.080 A 
ATOM     22  C   UNL     1       4.513   0.046  -3.046  0.00  0.00    +0.116 A 
ATOM     23  C   UNL     1       4.844  -0.894  -2.091  0.00  0.00    +0.048 A 
ATOM     37  H   UNL     1       2.307   2.995  -1.991  0.00  0.00    +0.149 HD
BRANCH  21  27
ATOM     27  C   UNL     1       4.626  -1.566   0.264  0.00  0.00    +0.042 A 
ATOM     28  C   UNL     1       3.775  -2.640   0.539  0.00  0.00    +0.129 A 
ATOM     29  C   UNL     1       5.762  -1.365   1.053  0.00  0.00    +0.013 A 
ATOM     32  C   UNL     1       4.058  -3.507   1.595  0.00  0.00    +0.046 A 
ATOM     33  C   UNL     1       6.045  -2.232   2.109  0.00  0.00    +0.001 A 
ATOM     34  C   UNL     1       5.193  -3.303   2.380  0.00  0.00    +0.004 A 
BRANCH  28   4
ATOM      4  O   UNL     1       2.659  -2.864  -0.212  0.00  0.00    -0.494 OA
ATOM     35  C   UNL     1       1.454  -2.233   0.216  0.00  0.00    +0.277 C 
ENDBRANCH  28   4
ENDBRANCH  21  27
ENDBRANCH  13   6
BRANCH  12   5
ATOM      3  O   UNL     1      -4.257   2.604   1.425  0.00  0.00    -0.270 OA
ATOM      5  N   UNL     1      -2.386   1.719   0.380  0.00  0.00    -0.304 N 
ATOM     16  C   UNL     1      -3.719   1.720   0.764  0.00  0.00    +0.244 C 
ATOM     36  H   UNL     1      -1.983   0.900  -0.066  0.00  0.00    +0.149 HD
BRANCH  16  18
ATOM     18  C   UNL     1      -4.516   0.537   0.350  0.00  0.00    +0.037 A 
ATOM     19  C   UNL     1      -4.139  -0.157  -0.781  0.00  0.00    +0.015 A 
ATOM     20  C   UNL     1      -5.608   0.170   1.109  0.00  0.00    +0.015 A 
ATOM     24  C   UNL     1      -4.887  -1.269  -1.170  0.00  0.00    +0.024 A 
ATOM     25  C   UNL     1      -6.356  -0.941   0.720  0.00  0.00    +0.024 A 
ATOM     26  C   UNL     1      -5.996  -1.661  -0.420  0.00  0.00    +0.029 A 
BRANCH  26   9
ATOM      9  N   UNL     1      -6.752  -2.784  -0.813  0.00  0.00    -0.336 N 
ATOM     30  C   UNL     1      -6.125  -3.877  -1.529  0.00  0.00    +0.129 C 
ATOM     31  C   UNL     1      -8.170  -2.854  -0.518  0.00  0.00    +0.129 C 
ENDBRANCH  26   9
ENDBRANCH  16  18
ENDBRANCH  12   5
TORSDOF 6
