REMARK  Name = 11882028
REMARK  10 active torsions:
REMARK  status: ('A' for Active; 'I' for Inactive)
REMARK    1  A    between atoms: N_6  and  C_11
REMARK    2  A    between atoms: N_7  and  C_15
REMARK    3  A    between atoms: N_8  and  C_24
REMARK    4  A    between atoms: C_12  and  C_21
REMARK    5  A    between atoms: C_23  and  C_25
REMARK    6  A    between atoms: C_24  and  C_26
REMARK    7  A    between atoms: C_24  and  C_28
REMARK    8  A    between atoms: C_26  and  C_27
REMARK    9  A    between atoms: C_29  and  C_33
REMARK   10  A    between atoms: C_29  and  C_34
REMARK                            x       y       z     vdW  Elec       q    Type
REMARK                         _______ _______ _______ _____ _____    ______ ____
ROOT
ATOM      3  O   UNL     1       4.686   0.996   0.891  0.00  0.00    -0.271 OA
ATOM      5  N   UNL     1       3.228  -0.186  -0.469  0.00  0.00    -0.285 N 
ATOM     11  C   UNL     1       1.476  -1.022  -1.846  0.00  0.00    +0.094 C 
ATOM     12  C   UNL     1       2.450   0.970  -0.891  0.00  0.00    +0.164 C 
ATOM     13  C   UNL     1       1.625   0.483  -2.080  0.00  0.00    +0.056 C 
ATOM     14  C   UNL     1       2.775  -1.405  -1.144  0.00  0.00    +0.131 C 
ATOM     23  C   UNL     1       4.343  -0.052   0.343  0.00  0.00    +0.240 C 
ENDROOT
BRANCH  11   6
ATOM      2  O   UNL     1      -0.064  -3.449  -1.897  0.00  0.00    -0.253 OA
ATOM      6  N   UNL     1       0.320  -1.327  -1.041  0.00  0.00    -0.295 N 
ATOM      7  N   UNL     1      -1.443  -2.573  -0.247  0.00  0.00    -0.297 N 
ATOM     22  C   UNL     1      -0.369  -2.535  -1.132  0.00  0.00    +0.300 C 
ATOM     39  H   UNL     1       0.020  -0.658  -0.338  0.00  0.00    +0.151 HD
ATOM     40  H   UNL     1      -1.563  -1.790   0.389  0.00  0.00    +0.151 HD
BRANCH   7  15
ATOM     15  C   UNL     1      -2.331  -3.708  -0.129  0.00  0.00    +0.074 C 
ATOM     16  C   UNL     1      -3.750  -3.262   0.239  0.00  0.00    +0.022 C 
ATOM     17  C   UNL     1      -1.790  -4.728   0.880  0.00  0.00    +0.022 C 
ATOM     18  C   UNL     1      -3.853  -2.772   1.684  0.00  0.00    +0.002 C 
ATOM     19  C   UNL     1      -1.896  -4.236   2.323  0.00  0.00    +0.002 C 
ATOM     20  C   UNL     1      -3.319  -3.808   2.669  0.00  0.00    +0.000 C 
ENDBRANCH   7  15
ENDBRANCH  11   6
BRANCH  12  21
ATOM      1  O   UNL     1       1.582   0.825   1.329  0.00  0.00    -0.274 OA
ATOM      8  N   UNL     1       0.776   2.485  -0.091  0.00  0.00    -0.302 N 
ATOM     21  C   UNL     1       1.574   1.405   0.246  0.00  0.00    +0.234 C 
ATOM     41  H   UNL     1       0.924   2.943  -0.986  0.00  0.00    +0.150 HD
BRANCH   8  24
ATOM     24  C   UNL     1      -0.174   3.081   0.820  0.00  0.00    +0.163 C 
BRANCH  24  28
ATOM      4  O   UNL     1       1.498   4.805   1.194  0.00  0.00    -0.274 OA
ATOM     10  N   UNL     1       0.095   4.241   2.924  0.00  0.00    -0.328 N 
ATOM     28  C   UNL     1       0.582   4.117   1.639  0.00  0.00    +0.231 C 
ATOM     43  H   UNL     1      -0.677   3.681   3.271  0.00  0.00    +0.145 HD
ATOM     44  H   UNL     1       0.501   4.907   3.572  0.00  0.00    +0.145 HD
ENDBRANCH  24  28
BRANCH  24  26
ATOM     26  C   UNL     1      -1.353   3.732   0.087  0.00  0.00    +0.069 C 
BRANCH  26  27
ATOM      9  N   UNL     1      -2.789   1.553  -2.502  0.00  0.00    -0.360 N 
ATOM     27  C   UNL     1      -2.124   2.765  -0.765  0.00  0.00    -0.020 A 
ATOM     30  C   UNL     1      -3.241   1.983  -0.360  0.00  0.00    +0.003 A 
ATOM     31  C   UNL     1      -1.869   2.479  -2.087  0.00  0.00    +0.087 A 
ATOM     32  C   UNL     1      -3.639   1.232  -1.468  0.00  0.00    +0.047 A 
ATOM     35  C   UNL     1      -3.955   1.841   0.847  0.00  0.00    +0.010 A 
ATOM     36  C   UNL     1      -4.719   0.343  -1.429  0.00  0.00    +0.026 A 
ATOM     37  C   UNL     1      -5.037   0.956   0.900  0.00  0.00    +0.001 A 
ATOM     38  C   UNL     1      -5.412   0.219  -0.222  0.00  0.00    +0.002 A 
ATOM     42  H   UNL     1      -2.837   1.162  -3.432  0.00  0.00    +0.165 HD
ENDBRANCH  26  27
ENDBRANCH  24  26
ENDBRANCH   8  24
ENDBRANCH  12  21
BRANCH  23  25
ATOM     25  C   UNL     1       5.161  -1.262   0.554  0.00  0.00    +0.066 C 
ATOM     29  C   UNL     1       6.458  -1.378   0.223  0.00  0.00    -0.071 C 
ATOM     33  C   UNL     1       7.174  -0.215  -0.414  0.00  0.00    +0.039 C 
ATOM     34  C   UNL     1       7.324  -2.592   0.422  0.00  0.00    +0.039 C 
ENDBRANCH  23  25
TORSDOF 8
