REMARK  Name = 71693673
REMARK  10 active torsions:
REMARK  status: ('A' for Active; 'I' for Inactive)
REMARK    1  A    between atoms: O_2  and  C_11
REMARK    2  A    between atoms: N_5  and  C_12
REMARK    3  A    between atoms: N_6  and  C_23
REMARK    4  A    between atoms: N_8  and  C_21
REMARK    5  A    between atoms: C_9  and  C_11
REMARK    6  A    between atoms: C_10  and  C_13
REMARK    7  A    between atoms: C_12  and  C_16
REMARK    8  A    between atoms: C_25  and  C_26
REMARK    9  A    between atoms: C_25  and  C_27
REMARK   10  A    between atoms: C_25  and  C_28
REMARK                            x       y       z     vdW  Elec       q    Type
REMARK                         _______ _______ _______ _____ _____    ______ ____
ROOT
ATOM      1  O   UNL     1       0.646  -2.436   0.324  0.00  0.00    -0.361 OA
ATOM      3  O   UNL     1       4.199  -2.683   0.208  0.00  0.00    -0.273 OA
ATOM      5  N   UNL     1       2.834  -0.905  -0.433  0.00  0.00    -0.284 N 
ATOM      9  C   UNL     1       1.459  -0.378  -0.610  0.00  0.00    +0.135 C 
ATOM     10  C   UNL     1       0.483  -1.019   0.396  0.00  0.00    +0.171 C 
ATOM     14  C   UNL     1       3.090  -2.147   0.152  0.00  0.00    +0.242 C 
ATOM     15  C   UNL     1       1.907  -2.820   0.819  0.00  0.00    +0.256 C 
ENDROOT
BRANCH  10  13
ATOM     13  C   UNL     1      -0.977  -0.727   0.118  0.00  0.00    -0.017 A 
ATOM     17  C   UNL     1      -1.529  -1.046  -1.122  0.00  0.00    +0.008 A 
ATOM     18  C   UNL     1      -1.770  -0.139   1.104  0.00  0.00    +0.008 A 
ATOM     19  C   UNL     1      -2.874  -0.777  -1.377  0.00  0.00    +0.023 A 
ATOM     20  C   UNL     1      -3.115   0.130   0.849  0.00  0.00    +0.023 A 
ATOM     21  C   UNL     1      -3.667  -0.189  -0.392  0.00  0.00    +0.033 A 
BRANCH  21   8
ATOM      4  O   UNL     1      -5.763   1.049   1.358  0.00  0.00    -0.275 OA
ATOM      8  N   UNL     1      -5.012   0.079  -0.647  0.00  0.00    -0.285 N 
ATOM     26  C   UNL     1      -5.959   0.666   0.208  0.00  0.00    +0.220 C 
ATOM     30  H   UNL     1      -5.336  -0.191  -1.573  0.00  0.00    +0.155 HD
BRANCH  26  25
ATOM     25  C   UNL     1      -7.335   0.787  -0.455  0.00  0.00    +0.069 C 
ATOM     27  C   UNL     1      -8.091   2.009   0.061  0.00  0.00    +0.017 C 
ATOM     28  C   UNL     1      -8.147  -0.484  -0.211  0.00  0.00    +0.017 C 
ENDBRANCH  26  25
ENDBRANCH  21   8
ENDBRANCH  10  13
BRANCH   9  11
ATOM     11  C   UNL     1       1.400   1.154  -0.517  0.00  0.00    +0.181 C 
BRANCH  11   2
ATOM      2  O   UNL     1       1.748   1.530   0.799  0.00  0.00    -0.393 OA
ATOM     29  H   UNL     1       1.697   2.500   0.845  0.00  0.00    +0.209 HD
ENDBRANCH  11   2
ENDBRANCH   9  11
BRANCH   5  12
ATOM     12  C   UNL     1       3.928  -0.212  -1.107  0.00  0.00    +0.182 C 
BRANCH  12  16
ATOM      6  N   UNL     1       5.588   1.605  -0.604  0.00  0.00    -0.336 N 
ATOM      7  N   UNL     1       4.669   0.599   1.150  0.00  0.00    -0.239 NA
ATOM     16  C   UNL     1       4.715   0.650  -0.163  0.00  0.00    +0.127 A 
ATOM     22  C   UNL     1       6.133   2.202   0.498  0.00  0.00    +0.106 A 
ATOM     23  C   UNL     1       5.890   1.937  -1.976  0.00  0.00    +0.150 C 
ATOM     24  C   UNL     1       5.551   1.564   1.568  0.00  0.00    +0.130 A 
ENDBRANCH  12  16
ENDBRANCH   5  12
TORSDOF 7
