REMARK  Name = 40587795
REMARK  3 active torsions:
REMARK  status: ('A' for Active; 'I' for Inactive)
REMARK    1  A    between atoms: N_6  and  C_18
REMARK    2  A    between atoms: N_7  and  C_22
REMARK    3  A    between atoms: C_17  and  C_20
REMARK                            x       y       z     vdW  Elec       q    Type
REMARK                         _______ _______ _______ _____ _____    ______ ____
ROOT
ATOM      1  O   UNL     1      -0.606   1.647   1.886  0.00  0.00    -0.266 OA
ATOM      2  O   UNL     1      -3.926  -2.552   1.980  0.00  0.00    -0.276 OA
ATOM      4  N   UNL     1      -4.366  -1.194   0.147  0.00  0.00    -0.301 N 
ATOM      5  N   UNL     1      -2.171   1.129   0.230  0.00  0.00    -0.310 N 
ATOM      8  C   UNL     1      -4.697   1.235   0.631  0.00  0.00    +0.027 C 
ATOM      9  C   UNL     1      -3.838   0.534  -1.563  0.00  0.00    +0.054 C 
ATOM     10  C   UNL     1      -4.783   1.510  -0.865  0.00  0.00    +0.018 C 
ATOM     11  C   UNL     1      -5.115  -0.214   0.938  0.00  0.00    +0.113 C 
ATOM     12  C   UNL     1      -3.273   1.538   1.111  0.00  0.00    +0.130 C 
ATOM     13  C   UNL     1      -4.297  -0.912  -1.294  0.00  0.00    +0.117 C 
ATOM     14  C   UNL     1      -2.410   0.719  -1.085  0.00  0.00    +0.027 A 
ATOM     15  C   UNL     1      -1.381   0.461  -1.910  0.00  0.00    +0.024 A 
ATOM     16  C   UNL     1      -0.866   1.272   0.742  0.00  0.00    +0.273 A 
ATOM     17  C   UNL     1      -3.857  -2.335   0.768  0.00  0.00    +0.212 C 
ATOM     18  C   UNL     1       0.252   0.953  -0.201  0.00  0.00    +0.100 A 
ATOM     19  C   UNL     1      -0.024   0.581  -1.456  0.00  0.00    +0.030 A 
ATOM     20  C   UNL     1      -3.180  -3.344  -0.124  0.00  0.00    +0.109 C 
ENDROOT
BRANCH  18   6
ATOM      3  O   UNL     1       2.494  -0.558  -1.088  0.00  0.00    -0.252 OA
ATOM      6  N   UNL     1       1.531   1.066   0.260  0.00  0.00    -0.265 N 
ATOM      7  N   UNL     1       3.779   0.650   0.460  0.00  0.00    -0.269 N 
ATOM     21  C   UNL     1       2.604   0.296  -0.211  0.00  0.00    +0.308 C 
ATOM     28  H   UNL     1       1.661   1.550   1.144  0.00  0.00    +0.157 HD
ATOM     29  H   UNL     1       3.701   1.383   1.161  0.00  0.00    +0.156 HD
BRANCH   7  22
ATOM     22  C   UNL     1       5.076   0.114   0.283  0.00  0.00    +0.035 A 
ATOM     23  C   UNL     1       6.140   0.594   1.047  0.00  0.00    +0.023 A 
ATOM     24  C   UNL     1       5.292  -0.893  -0.658  0.00  0.00    +0.023 A 
ATOM     25  C   UNL     1       7.419   0.065   0.872  0.00  0.00    +0.002 A 
ATOM     26  C   UNL     1       6.571  -1.421  -0.833  0.00  0.00    +0.002 A 
ATOM     27  C   UNL     1       7.634  -0.942  -0.068  0.00  0.00    +0.000 A 
ENDBRANCH   7  22
ENDBRANCH  18   6
TORSDOF 2
