REMARK  Name = 45783454
REMARK  9 active torsions:
REMARK  status: ('A' for Active; 'I' for Inactive)
REMARK    1  A    between atoms: O_3  and  C_22
REMARK    2  A    between atoms: O_3  and  C_25
REMARK    3  A    between atoms: O_4  and  C_26
REMARK    4  A    between atoms: O_4  and  C_27
REMARK    5  A    between atoms: N_5  and  C_13
REMARK    6  A    between atoms: C_9  and  C_14
REMARK    7  A    between atoms: C_13  and  C_15
REMARK    8  A    between atoms: C_17  and  C_20
REMARK    9  A    between atoms: C_25  and  C_26
REMARK                            x       y       z     vdW  Elec       q    Type
REMARK                         _______ _______ _______ _____ _____    ______ ____
ROOT
ATOM      2  O   UNL     1      -2.549  -2.103   0.698  0.00  0.00    -0.336 OA
ATOM      6  N   UNL     1      -1.145  -0.759  -0.415  0.00  0.00    -0.189 NA
ATOM      7  N   UNL     1      -1.262  -2.600   0.937  0.00  0.00    -0.054 NA
ATOM     14  C   UNL     1      -2.390  -1.019  -0.107  0.00  0.00    +0.245 A 
ATOM     17  C   UNL     1      -0.489  -1.755   0.248  0.00  0.00    +0.221 A 
ENDROOT
BRANCH  17  20
ATOM      8  N   UNL     1       1.460  -2.911   0.902  0.00  0.00    -0.252 NA
ATOM     20  C   UNL     1       0.939  -1.879   0.200  0.00  0.00    +0.115 A 
ATOM     21  C   UNL     1       1.695  -0.978  -0.531  0.00  0.00    +0.077 A 
ATOM     22  C   UNL     1       3.075  -1.144  -0.543  0.00  0.00    +0.124 A 
ATOM     23  C   UNL     1       2.806  -3.041   0.867  0.00  0.00    +0.115 A 
ATOM     24  C   UNL     1       3.649  -2.193   0.167  0.00  0.00    +0.065 A 
BRANCH  22   3
ATOM      3  O   UNL     1       3.861  -0.285  -1.246  0.00  0.00    -0.490 OA
BRANCH   3  25
ATOM     25  C   UNL     1       3.392   1.055  -1.389  0.00  0.00    +0.257 C 
BRANCH  25  26
ATOM     26  C   UNL     1       4.583   1.990  -1.469  0.00  0.00    +0.200 C 
BRANCH  26   4
ATOM      4  O   UNL     1       5.337   1.885  -0.267  0.00  0.00    -0.380 OA
ATOM     27  C   UNL     1       6.481   2.726  -0.294  0.00  0.00    +0.194 C 
ENDBRANCH  26   4
ENDBRANCH  25  26
ENDBRANCH   3  25
ENDBRANCH  22   3
ENDBRANCH  17  20
BRANCH  14   9
ATOM      5  N   UNL     1      -3.417   1.138  -0.802  0.00  0.00    -0.287 NA
ATOM      9  C   UNL     1      -3.653  -0.291  -0.515  0.00  0.00    +0.146 C 
ATOM     10  C   UNL     1      -4.271  -0.852  -1.809  0.00  0.00    +0.030 C 
ATOM     11  C   UNL     1      -4.399   0.345  -2.741  0.00  0.00    +0.017 C 
ATOM     12  C   UNL     1      -4.415   1.530  -1.798  0.00  0.00    +0.085 C 
BRANCH   5  13
ATOM     13  C   UNL     1      -3.469   1.979   0.387  0.00  0.00    +0.127 C 
BRANCH  13  15
ATOM      1  S   UNL     1      -2.229   1.396   2.808  0.00  0.00    -0.100 S 
ATOM     15  C   UNL     1      -2.189   1.914   1.176  0.00  0.00    +0.004 A 
ATOM     16  C   UNL     1      -0.911   2.226   0.765  0.00  0.00    +0.012 A 
ATOM     18  C   UNL     1       0.046   2.038   1.803  0.00  0.00    +0.008 A 
ATOM     19  C   UNL     1      -0.535   1.589   2.968  0.00  0.00    +0.045 A 
ENDBRANCH  13  15
ENDBRANCH   5  13
ENDBRANCH  14   9
TORSDOF 8
