REMARK  Name = 28959943
REMARK  11 active torsions:
REMARK  status: ('A' for Active; 'I' for Inactive)
REMARK    1  A    between atoms: O_3  and  C_22
REMARK    2  A    between atoms: N_6  and  C_16
REMARK    3  A    between atoms: N_7  and  C_24
REMARK    4  A    between atoms: N_8  and  C_31
REMARK    5  A    between atoms: N_8  and  C_35
REMARK    6  A    between atoms: N_8  and  C_36
REMARK    7  A    between atoms: C_9  and  C_13
REMARK    8  A    between atoms: C_10  and  C_15
REMARK    9  A    between atoms: C_13  and  C_16
REMARK   10  A    between atoms: C_15  and  C_22
REMARK   11  A    between atoms: C_19  and  C_23
REMARK                            x       y       z     vdW  Elec       q    Type
REMARK                         _______ _______ _______ _____ _____    ______ ____
ROOT
ATOM      2  O   UNL     1      -4.108   1.618  -2.497  0.00  0.00    -0.270 OA
ATOM      5  N   UNL     1      -4.065   0.340  -0.537  0.00  0.00    -0.297 N 
ATOM      9  C   UNL     1      -2.908  -1.284   0.946  0.00  0.00    +0.011 C 
ATOM     10  C   UNL     1      -3.874  -2.382   0.433  0.00  0.00    +0.006 C 
ATOM     11  C   UNL     1      -3.574   0.099   0.827  0.00  0.00    +0.112 C 
ATOM     12  C   UNL     1      -4.397  -2.061  -0.978  0.00  0.00    +0.023 C 
ATOM     14  C   UNL     1      -5.004  -0.662  -1.037  0.00  0.00    +0.108 C 
ATOM     19  C   UNL     1      -3.704   1.415  -1.353  0.00  0.00    +0.247 C 
ENDROOT
BRANCH  19  23
ATOM     23  C   UNL     1      -2.758   2.401  -0.817  0.00  0.00    +0.037 A 
ATOM     25  C   UNL     1      -1.387   2.224  -1.002  0.00  0.00    +0.015 A 
ATOM     26  C   UNL     1      -3.231   3.513  -0.121  0.00  0.00    +0.015 A 
ATOM     29  C   UNL     1      -0.488   3.161  -0.492  0.00  0.00    +0.024 A 
ATOM     30  C   UNL     1      -2.332   4.450   0.389  0.00  0.00    +0.024 A 
ATOM     31  C   UNL     1      -0.961   4.274   0.203  0.00  0.00    +0.029 A 
BRANCH  31   8
ATOM      8  N   UNL     1      -0.052   5.222   0.719  0.00  0.00    -0.336 N 
ATOM     35  C   UNL     1      -0.533   6.385   1.437  0.00  0.00    +0.129 C 
ATOM     36  C   UNL     1       1.375   5.048   0.531  0.00  0.00    +0.129 C 
ENDBRANCH  31   8
ENDBRANCH  19  23
BRANCH   9  13
ATOM     13  C   UNL     1      -1.543  -1.279   0.245  0.00  0.00    +0.020 C 
BRANCH  13  16
ATOM     16  C   UNL     1      -0.472  -0.680   1.145  0.00  0.00    +0.085 C 
BRANCH  16   6
ATOM      6  N   UNL     1       0.814  -0.671   0.450  0.00  0.00    -0.299 NA
ATOM      7  N   UNL     1       3.649  -0.919   0.207  0.00  0.00    -0.327 N 
ATOM     17  C   UNL     1       1.700   0.352   1.018  0.00  0.00    +0.103 C 
ATOM     18  C   UNL     1       1.454  -1.989   0.534  0.00  0.00    +0.103 C 
ATOM     20  C   UNL     1       3.029   0.411   0.262  0.00  0.00    +0.120 C 
ATOM     21  C   UNL     1       2.776  -2.009  -0.239  0.00  0.00    +0.120 C 
BRANCH   7  24
ATOM      1  F   UNL     1       9.091  -1.209  -0.726  0.00  0.00    -0.205 F 
ATOM     24  C   UNL     1       5.027  -0.993  -0.029  0.00  0.00    +0.030 A 
ATOM     27  C   UNL     1       5.507  -1.678  -1.144  0.00  0.00    +0.026 A 
ATOM     28  C   UNL     1       5.919  -0.380   0.852  0.00  0.00    +0.026 A 
ATOM     32  C   UNL     1       6.880  -1.751  -1.380  0.00  0.00    +0.040 A 
ATOM     33  C   UNL     1       7.292  -0.454   0.616  0.00  0.00    +0.040 A 
ATOM     34  C   UNL     1       7.772  -1.139  -0.500  0.00  0.00    +0.124 A 
ENDBRANCH   7  24
ENDBRANCH  16   6
ENDBRANCH  13  16
ENDBRANCH   9  13
BRANCH  10  15
ATOM     15  C   UNL     1      -3.269  -3.784   0.476  0.00  0.00    +0.124 C 
BRANCH  15  22
ATOM      4  O   UNL     1      -5.540  -4.668   0.499  0.00  0.00    -0.251 OA
ATOM     22  C   UNL     1      -4.332  -4.847   0.509  0.00  0.00    +0.305 C 
BRANCH  22   3
ATOM      3  O   UNL     1      -3.751  -6.074   0.553  0.00  0.00    -0.481 OA
ATOM     37  H   UNL     1      -4.418  -6.793   0.575  0.00  0.00    +0.295 HD
ENDBRANCH  22   3
ENDBRANCH  15  22
ENDBRANCH  10  15
TORSDOF 9
