REMARK  Name = 28960034
REMARK  7 active torsions:
REMARK  status: ('A' for Active; 'I' for Inactive)
REMARK    1  A    between atoms: O_2  and  C_23
REMARK    2  A    between atoms: N_5  and  C_20
REMARK    3  A    between atoms: C_8  and  C_12
REMARK    4  A    between atoms: C_9  and  C_18
REMARK    5  A    between atoms: C_12  and  C_20
REMARK    6  A    between atoms: C_14  and  C_17
REMARK    7  A    between atoms: C_18  and  C_23
REMARK                            x       y       z     vdW  Elec       q    Type
REMARK                         _______ _______ _______ _____ _____    ______ ____
ROOT
ATOM      1  O   UNL     1      -2.729  -3.189   1.843  0.00  0.00    -0.275 OA
ATOM      4  N   UNL     1      -3.221  -1.616   0.211  0.00  0.00    -0.301 N 
ATOM      8  C   UNL     1      -2.785   0.540  -0.939  0.00  0.00    +0.011 C 
ATOM      9  C   UNL     1      -3.995   1.146  -0.182  0.00  0.00    +0.006 C 
ATOM     10  C   UNL     1      -2.969  -0.981  -1.087  0.00  0.00    +0.111 C 
ATOM     11  C   UNL     1      -4.253   0.416   1.148  0.00  0.00    +0.023 C 
ATOM     13  C   UNL     1      -4.376  -1.091   0.940  0.00  0.00    +0.108 C 
ATOM     17  C   UNL     1      -2.463  -2.667   0.749  0.00  0.00    +0.219 C 
ENDROOT
BRANCH  17  14
ATOM     14  C   UNL     1      -1.265  -3.160  -0.077  0.00  0.00    +0.075 C 
ATOM     15  C   UNL     1      -0.555  -4.444   0.399  0.00  0.00    +0.013 C 
ATOM     16  C   UNL     1      -1.568  -3.906  -1.393  0.00  0.00    +0.013 C 
ATOM     19  C   UNL     1      -0.334  -4.782  -1.091  0.00  0.00    +0.001 C 
ENDBRANCH  17  14
BRANCH   8  12
ATOM     12  C   UNL     1      -1.428   0.852  -0.296  0.00  0.00    +0.020 C 
BRANCH  12  20
ATOM     20  C   UNL     1      -0.314   0.812  -1.333  0.00  0.00    +0.085 C 
BRANCH  20   5
ATOM      5  N   UNL     1       0.970   1.095  -0.694  0.00  0.00    -0.299 NA
ATOM      6  N   UNL     1       3.758   0.750  -0.177  0.00  0.00    -0.313 N 
ATOM      7  N   UNL     1       5.445   0.702   1.483  0.00  0.00    -0.240 NA
ATOM     21  C   UNL     1       1.967   1.496  -1.694  0.00  0.00    +0.103 C 
ATOM     22  C   UNL     1       1.448  -0.080   0.045  0.00  0.00    +0.103 C 
ATOM     24  C   UNL     1       3.300   1.849  -1.032  0.00  0.00    +0.122 C 
ATOM     25  C   UNL     1       2.764   0.222   0.766  0.00  0.00    +0.122 C 
ATOM     26  C   UNL     1       5.110   0.660   0.174  0.00  0.00    +0.121 A 
ATOM     27  C   UNL     1       6.026   0.533  -0.858  0.00  0.00    +0.043 A 
ATOM     28  C   UNL     1       7.373   0.443  -0.524  0.00  0.00    +0.005 A 
ATOM     29  C   UNL     1       6.763   0.612   1.768  0.00  0.00    +0.113 A 
ATOM     30  C   UNL     1       7.757   0.482   0.811  0.00  0.00    +0.020 A 
ENDBRANCH  20   5
ENDBRANCH  12  20
ENDBRANCH   8  12
BRANCH   9  18
ATOM     18  C   UNL     1      -3.868   2.652   0.045  0.00  0.00    +0.124 C 
BRANCH  18  23
ATOM      3  O   UNL     1      -6.294   2.731   0.274  0.00  0.00    -0.251 OA
ATOM     23  C   UNL     1      -5.210   3.295   0.264  0.00  0.00    +0.305 C 
BRANCH  23   2
ATOM      2  O   UNL     1      -5.052   4.630   0.456  0.00  0.00    -0.481 OA
ATOM     31  H   UNL     1      -5.910   5.082   0.603  0.00  0.00    +0.295 HD
ENDBRANCH  23   2
ENDBRANCH  18  23
ENDBRANCH   9  18
TORSDOF 7
