REMARK  Name = 40777982
REMARK  10 active torsions:
REMARK  status: ('A' for Active; 'I' for Inactive)
REMARK    1  A    between atoms: O_2  and  C_11
REMARK    2  A    between atoms: O_3  and  C_12
REMARK    3  A    between atoms: O_6  and  C_33
REMARK    4  A    between atoms: O_6  and  C_34
REMARK    5  A    between atoms: N_8  and  C_21
REMARK    6  A    between atoms: N_9  and  C_15
REMARK    7  A    between atoms: C_10  and  C_14
REMARK    8  A    between atoms: C_13  and  C_15
REMARK    9  A    between atoms: C_14  and  C_16
REMARK   10  A    between atoms: C_22  and  C_25
REMARK                            x       y       z     vdW  Elec       q    Type
REMARK                         _______ _______ _______ _____ _____    ______ ____
ROOT
ATOM      1  O   UNL     1      -3.950   0.795   0.880  0.00  0.00    -0.366 OA
ATOM     10  C   UNL     1      -3.618   1.796  -0.109  0.00  0.00    +0.159 C 
ATOM     11  C   UNL     1      -4.596   1.602  -1.262  0.00  0.00    +0.175 C 
ATOM     12  C   UNL     1      -4.904   0.122  -1.167  0.00  0.00    +0.176 C 
ATOM     13  C   UNL     1      -4.949  -0.085   0.337  0.00  0.00    +0.167 C 
ENDROOT
BRANCH  11   2
ATOM      2  O   UNL     1      -5.766   2.370  -0.984  0.00  0.00    -0.387 OA
ATOM     35  H   UNL     1      -5.516   3.308  -1.031  0.00  0.00    +0.210 HD
ENDBRANCH  11   2
BRANCH  12   3
ATOM      3  O   UNL     1      -6.120  -0.237  -1.788  0.00  0.00    -0.387 OA
ATOM     36  H   UNL     1      -6.065   0.038  -2.719  0.00  0.00    +0.210 HD
ENDBRANCH  12   3
BRANCH  10  14
ATOM     14  C   UNL     1      -2.166   1.584  -0.517  0.00  0.00    +0.130 C 
BRANCH  14  16
ATOM      4  O   UNL     1      -1.727   2.687   1.539  0.00  0.00    -0.276 OA
ATOM      7  N   UNL     1       0.121   1.982   0.318  0.00  0.00    -0.298 N 
ATOM      8  N   UNL     1       2.967   1.525   0.054  0.00  0.00    -0.327 N 
ATOM     16  C   UNL     1      -1.248   2.136   0.545  0.00  0.00    +0.218 C 
ATOM     17  C   UNL     1       0.688   1.327  -0.863  0.00  0.00    +0.126 C 
ATOM     18  C   UNL     1       1.075   2.484   1.304  0.00  0.00    +0.126 C 
ATOM     19  C   UNL     1       2.134   1.742  -1.132  0.00  0.00    +0.124 C 
ATOM     20  C   UNL     1       2.333   1.621   1.372  0.00  0.00    +0.124 C 
BRANCH   8  21
ATOM     21  C   UNL     1       4.331   1.270  -0.062  0.00  0.00    +0.030 A 
ATOM     23  C   UNL     1       5.051   1.801  -1.133  0.00  0.00    +0.023 A 
ATOM     24  C   UNL     1       4.978   0.485   0.893  0.00  0.00    +0.023 A 
ATOM     26  C   UNL     1       6.418   1.546  -1.248  0.00  0.00    +0.002 A 
ATOM     27  C   UNL     1       6.344   0.231   0.777  0.00  0.00    +0.002 A 
ATOM     28  C   UNL     1       7.064   0.762  -0.293  0.00  0.00    +0.000 A 
ENDBRANCH   8  21
ENDBRANCH  14  16
ENDBRANCH  10  14
BRANCH  13  15
ATOM     15  C   UNL     1      -4.656  -1.514   0.758  0.00  0.00    +0.138 C 
BRANCH  15   9
ATOM      5  O   UNL     1      -2.199  -1.237   2.218  0.00  0.00    -0.270 OA
ATOM      9  N   UNL     1      -3.352  -1.923   0.326  0.00  0.00    -0.309 N 
ATOM     22  C   UNL     1      -2.210  -1.750   1.102  0.00  0.00    +0.244 C 
ATOM     37  H   UNL     1      -3.297  -2.405  -0.566  0.00  0.00    +0.149 HD
BRANCH  22  25
ATOM     25  C   UNL     1      -0.930  -2.204   0.500  0.00  0.00    +0.037 A 
ATOM     29  C   UNL     1       0.125  -2.603   1.321  0.00  0.00    +0.016 A 
ATOM     30  C   UNL     1      -0.783  -2.232  -0.887  0.00  0.00    +0.016 A 
ATOM     31  C   UNL     1       1.326  -3.029   0.755  0.00  0.00    +0.046 A 
ATOM     32  C   UNL     1       0.418  -2.659  -1.453  0.00  0.00    +0.046 A 
ATOM     33  C   UNL     1       1.473  -3.057  -0.631  0.00  0.00    +0.120 A 
BRANCH  33   6
ATOM      6  O   UNL     1       2.646  -3.473  -1.184  0.00  0.00    -0.495 OA
ATOM     34  C   UNL     1       3.683  -3.865  -0.286  0.00  0.00    +0.277 C 
ENDBRANCH  33   6
ENDBRANCH  22  25
ENDBRANCH  15   9
ENDBRANCH  13  15
TORSDOF 9
