REMARK  Name = 11866303
REMARK  13 active torsions:
REMARK  status: ('A' for Active; 'I' for Inactive)
REMARK    1  A    between atoms: S_1  and  C_30
REMARK    2  A    between atoms: S_1  and  C_35
REMARK    3  A    between atoms: O_2  and  C_11
REMARK    4  A    between atoms: O_3  and  C_13
REMARK    5  A    between atoms: O_7  and  C_24
REMARK    6  A    between atoms: O_7  and  C_34
REMARK    7  A    between atoms: N_8  and  C_12
REMARK    8  A    between atoms: N_9  and  C_18
REMARK    9  A    between atoms: C_15  and  C_17
REMARK   10  A    between atoms: C_18  and  C_20
REMARK   11  A    between atoms: C_18  and  C_22
REMARK   12  A    between atoms: C_19  and  C_21
REMARK   13  A    between atoms: C_20  and  C_23
REMARK                            x       y       z     vdW  Elec       q    Type
REMARK                         _______ _______ _______ _____ _____    ______ ____
ROOT
ATOM     11  C   UNL     1      -0.333   3.121   0.581  0.00  0.00    +0.167 C 
ATOM     12  C   UNL     1      -0.382   2.120  -0.589  0.00  0.00    +0.128 C 
ATOM     13  C   UNL     1       0.931   3.988   0.526  0.00  0.00    +0.149 C 
ATOM     14  C   UNL     1       2.214   3.139   0.497  0.00  0.00    +0.074 C 
ATOM     15  C   UNL     1       2.089   1.899  -0.342  0.00  0.00    +0.015 C 
ATOM     16  C   UNL     1       0.934   1.436  -0.843  0.00  0.00    +0.006 C 
ENDROOT
BRANCH  15  17
ATOM      4  O   UNL     1       3.976   1.418  -1.658  0.00  0.00    -0.271 OA
ATOM      9  N   UNL     1       3.595   0.166   0.271  0.00  0.00    -0.300 N 
ATOM     17  C   UNL     1       3.311   1.153  -0.657  0.00  0.00    +0.241 C 
ATOM     39  H   UNL     1       3.012   0.090   1.100  0.00  0.00    +0.150 HD
BRANCH   9  18
ATOM     18  C   UNL     1       4.746  -0.702   0.173  0.00  0.00    +0.163 C 
BRANCH  18  22
ATOM      6  O   UNL     1       5.787   0.744   1.826  0.00  0.00    -0.274 OA
ATOM     10  N   UNL     1       7.123  -0.269   0.256  0.00  0.00    -0.328 N 
ATOM     22  C   UNL     1       5.908   0.019   0.841  0.00  0.00    +0.231 C 
ATOM     40  H   UNL     1       7.210  -0.888  -0.544  0.00  0.00    +0.145 HD
ATOM     41  H   UNL     1       7.982   0.136   0.613  0.00  0.00    +0.145 HD
ENDBRANCH  18  22
BRANCH  18  20
ATOM     20  C   UNL     1       4.507  -2.063   0.839  0.00  0.00    +0.067 C 
BRANCH  20  23
ATOM     23  C   UNL     1       3.343  -2.805   0.227  0.00  0.00    -0.045 A 
ATOM     26  C   UNL     1       3.568  -3.658  -0.842  0.00  0.00    +0.004 A 
ATOM     27  C   UNL     1       2.072  -2.619   0.745  0.00  0.00    +0.004 A 
ATOM     31  C   UNL     1       2.493  -4.343  -1.407  0.00  0.00    +0.000 A 
ATOM     32  C   UNL     1       0.996  -3.305   0.179  0.00  0.00    +0.000 A 
ATOM     33  C   UNL     1       1.207  -4.167  -0.897  0.00  0.00    +0.000 A 
ENDBRANCH  20  23
ENDBRANCH  18  20
ENDBRANCH   9  18
ENDBRANCH  15  17
BRANCH  12   8
ATOM      5  O   UNL     1      -3.135   2.281  -1.389  0.00  0.00    -0.270 OA
ATOM      8  N   UNL     1      -1.398   1.115  -0.388  0.00  0.00    -0.302 N 
ATOM     19  C   UNL     1      -2.708   1.285  -0.811  0.00  0.00    +0.248 C 
ATOM     36  H   UNL     1      -1.144   0.309   0.174  0.00  0.00    +0.150 HD
BRANCH  19  21
ATOM     21  C   UNL     1      -3.639   0.169  -0.505  0.00  0.00    +0.078 A 
ATOM     24  C   UNL     1      -4.978   0.429  -0.295  0.00  0.00    +0.133 A 
ATOM     25  C   UNL     1      -3.122  -1.110  -0.439  0.00  0.00    +0.018 A 
ATOM     28  C   UNL     1      -5.836  -0.632  -0.007  0.00  0.00    +0.061 A 
ATOM     29  C   UNL     1      -3.980  -2.171  -0.151  0.00  0.00    +0.015 A 
ATOM     30  C   UNL     1      -5.337  -1.933   0.065  0.00  0.00    +0.011 A 
BRANCH  30   1
ATOM      1  S   UNL     1      -6.433  -3.289   0.432  0.00  0.00    -0.128 S 
ATOM     35  C   UNL     1      -7.071  -2.817   2.064  0.00  0.00    +0.090 C 
ENDBRANCH  30   1
BRANCH  24   7
ATOM      7  O   UNL     1      -5.485   1.693  -0.361  0.00  0.00    -0.494 OA
ATOM     34  C   UNL     1      -5.501   2.448   0.848  0.00  0.00    +0.277 C 
ENDBRANCH  24   7
ENDBRANCH  19  21
ENDBRANCH  12   8
BRANCH  11   2
ATOM      2  O   UNL     1      -0.350   2.411   1.821  0.00  0.00    -0.387 OA
ATOM     37  H   UNL     1      -0.347   3.071   2.535  0.00  0.00    +0.210 HD
ENDBRANCH  11   2
BRANCH  13   3
ATOM      3  O   UNL     1       0.888   4.848  -0.610  0.00  0.00    -0.389 OA
ATOM     38  H   UNL     1       0.076   5.380  -0.544  0.00  0.00    +0.210 HD
ENDBRANCH  13   3
TORSDOF 11
