REMARK  Name = 11943318
REMARK  7 active torsions:
REMARK  status: ('A' for Active; 'I' for Inactive)
REMARK    1  A    between atoms: O_2  and  C_22
REMARK    2  A    between atoms: O_2  and  C_23
REMARK    3  A    between atoms: N_4  and  C_14
REMARK    4  A    between atoms: N_5  and  C_17
REMARK    5  A    between atoms: C_7  and  C_13
REMARK    6  A    between atoms: C_8  and  C_14
REMARK    7  A    between atoms: C_13  and  C_15
REMARK                            x       y       z     vdW  Elec       q    Type
REMARK                         _______ _______ _______ _____ _____    ______ ____
ROOT
ATOM      1  O   UNL     1      -0.469   1.087   0.499  0.00  0.00    -0.253 OA
ATOM      4  N   UNL     1      -2.042  -0.576   0.838  0.00  0.00    -0.298 N 
ATOM      5  N   UNL     1       0.115  -1.176   0.275  0.00  0.00    -0.269 N 
ATOM     16  C   UNL     1      -0.751  -0.109   0.529  0.00  0.00    +0.304 C 
ATOM     29  H   UNL     1      -2.201  -1.579   0.841  0.00  0.00    +0.150 HD
ATOM     30  H   UNL     1      -0.282  -2.110   0.343  0.00  0.00    +0.156 HD
ENDROOT
BRANCH   5  17
ATOM     17  C   UNL     1       1.486  -1.118  -0.068  0.00  0.00    +0.035 A 
ATOM     18  C   UNL     1       2.106   0.116  -0.181  0.00  0.00    +0.027 A 
ATOM     19  C   UNL     1       2.181  -2.297  -0.284  0.00  0.00    +0.027 A 
ATOM     20  C   UNL     1       3.457   0.172  -0.520  0.00  0.00    +0.048 A 
ATOM     21  C   UNL     1       3.533  -2.240  -0.622  0.00  0.00    +0.048 A 
ATOM     22  C   UNL     1       4.171  -1.006  -0.740  0.00  0.00    +0.129 A 
BRANCH  22   2
ATOM      2  O   UNL     1       5.490  -0.950  -1.072  0.00  0.00    -0.456 OA
BRANCH   2  23
ATOM     23  C   UNL     1       6.299  -0.088  -0.351  0.00  0.00    +0.128 A 
ATOM     24  C   UNL     1       6.187  -0.052   1.027  0.00  0.00    +0.046 A 
ATOM     25  C   UNL     1       7.198   0.716  -1.029  0.00  0.00    +0.046 A 
ATOM     26  C   UNL     1       7.002   0.817   1.752  0.00  0.00    +0.004 A 
ATOM     27  C   UNL     1       8.013   1.585  -0.303  0.00  0.00    +0.004 A 
ATOM     28  C   UNL     1       7.915   1.636   1.087  0.00  0.00    +0.000 A 
ENDBRANCH   2  23
ENDBRANCH  22   2
ENDBRANCH   5  17
BRANCH   4  14
ATOM     14  C   UNL     1      -3.142   0.284   1.144  0.00  0.00    +0.124 C 
BRANCH  14   8
ATOM      3  N   UNL     1      -4.983   1.659   0.136  0.00  0.00    -0.298 NA
ATOM      6  C   UNL     1      -5.921  -0.302  -1.293  0.00  0.00    -0.004 C 
ATOM      7  C   UNL     1      -6.805  -0.053  -0.050  0.00  0.00    +0.006 C 
ATOM      8  C   UNL     1      -3.911   0.660  -0.124  0.00  0.00    +0.074 C 
ATOM      9  C   UNL     1      -4.476  -0.586  -0.843  0.00  0.00    +0.024 C 
ATOM     10  C   UNL     1      -6.125   1.018   0.832  0.00  0.00    +0.088 C 
ATOM     11  C   UNL     1      -5.898   1.013  -2.096  0.00  0.00    +0.019 C 
ATOM     12  C   UNL     1      -5.464   2.164  -1.172  0.00  0.00    +0.085 C 
BRANCH   7  13
ATOM     13  C   UNL     1      -7.106  -1.325   0.740  0.00  0.00    +0.002 C 
ATOM     15  C   UNL     1      -8.058  -1.052   1.887  0.00  0.00    +0.004 C 
ENDBRANCH   7  13
ENDBRANCH  14   8
ENDBRANCH   4  14
TORSDOF 6
