REMARK  Name = 25390299
REMARK  9 active torsions:
REMARK  status: ('A' for Active; 'I' for Inactive)
REMARK    1  A    between atoms: O_3  and  C_8
REMARK    2  A    between atoms: O_4  and  C_10
REMARK    3  A    between atoms: N_6  and  C_12
REMARK    4  A    between atoms: N_6  and  C_15
REMARK    5  A    between atoms: N_7  and  C_17
REMARK    6  A    between atoms: C_9  and  C_12
REMARK    7  A    between atoms: C_11  and  C_13
REMARK    8  A    between atoms: C_13  and  C_14
REMARK    9  A    between atoms: C_15  and  C_16
REMARK                            x       y       z     vdW  Elec       q    Type
REMARK                         _______ _______ _______ _____ _____    ______ ____
ROOT
ATOM      2  O   UNL     1      -0.637   0.503  -0.967  0.00  0.00    -0.366 OA
ATOM      8  C   UNL     1       1.002   2.022  -0.152  0.00  0.00    +0.175 C 
ATOM      9  C   UNL     1       0.777   0.796  -1.030  0.00  0.00    +0.163 C 
ATOM     10  C   UNL     1      -0.111   1.888   0.867  0.00  0.00    +0.175 C 
ATOM     11  C   UNL     1      -1.250   1.365   0.008  0.00  0.00    +0.158 C 
ENDROOT
BRANCH   8   3
ATOM      3  O   UNL     1       0.800   3.185  -0.955  0.00  0.00    -0.387 OA
ATOM     28  H   UNL     1       1.515   3.211  -1.613  0.00  0.00    +0.210 HD
ENDBRANCH   8   3
BRANCH  10   4
ATOM      4  O   UNL     1      -0.440   3.106   1.499  0.00  0.00    -0.387 OA
ATOM     29  H   UNL     1       0.365   3.437   1.932  0.00  0.00    +0.210 HD
ENDBRANCH  10   4
BRANCH   9  12
ATOM     12  C   UNL     1       1.530  -0.433  -0.540  0.00  0.00    +0.115 C 
BRANCH  12   6
ATOM      6  N   UNL     1       2.964  -0.184  -0.492  0.00  0.00    -0.309 NA
ATOM     30  H   UNL     1       3.295   0.066  -1.424  0.00  0.00    +0.122 HD
BRANCH   6  15
ATOM     15  C   UNL     1       3.682  -1.358  -0.013  0.00  0.00    +0.116 C 
BRANCH  15  16
ATOM      1  F   UNL     1       9.236  -0.472   0.248  0.00  0.00    -0.205 F 
ATOM     16  C   UNL     1       5.163  -1.122   0.057  0.00  0.00    -0.033 A 
ATOM     18  C   UNL     1       5.967  -1.404  -1.048  0.00  0.00    +0.008 A 
ATOM     19  C   UNL     1       5.735  -0.619   1.226  0.00  0.00    +0.008 A 
ATOM     22  C   UNL     1       7.343  -1.185  -0.983  0.00  0.00    +0.038 A 
ATOM     23  C   UNL     1       7.111  -0.400   1.290  0.00  0.00    +0.038 A 
ATOM     24  C   UNL     1       7.915  -0.683   0.186  0.00  0.00    +0.123 A 
ENDBRANCH  15  16
ENDBRANCH   6  15
ENDBRANCH  12   6
ENDBRANCH   9  12
BRANCH  11  13
ATOM     13  C   UNL     1      -2.291   0.590   0.794  0.00  0.00    +0.130 C 
BRANCH  13  14
ATOM      5  O   UNL     1      -3.756   0.874  -1.096  0.00  0.00    -0.275 OA
ATOM      7  N   UNL     1      -4.500  -0.335   0.776  0.00  0.00    -0.285 N 
ATOM     14  C   UNL     1      -3.592   0.407   0.027  0.00  0.00    +0.220 C 
ATOM     31  H   UNL     1      -4.203  -0.648   1.698  0.00  0.00    +0.155 HD
BRANCH   7  17
ATOM     17  C   UNL     1      -5.814  -0.715   0.410  0.00  0.00    +0.033 A 
ATOM     20  C   UNL     1      -6.593  -1.465   1.291  0.00  0.00    +0.023 A 
ATOM     21  C   UNL     1      -6.329  -0.340  -0.831  0.00  0.00    +0.023 A 
ATOM     25  C   UNL     1      -7.887  -1.840   0.931  0.00  0.00    +0.002 A 
ATOM     26  C   UNL     1      -7.623  -0.715  -1.191  0.00  0.00    +0.002 A 
ATOM     27  C   UNL     1      -8.402  -1.465  -0.310  0.00  0.00    +0.000 A 
ENDBRANCH   7  17
ENDBRANCH  13  14
ENDBRANCH  11  13
TORSDOF 9
