REMARK  Name = 71693196
REMARK  15 active torsions:
REMARK  status: ('A' for Active; 'I' for Inactive)
REMARK    1  A    between atoms: O_2  and  C_25
REMARK    2  A    between atoms: O_2  and  C_30
REMARK    3  A    between atoms: O_3  and  C_28
REMARK    4  A    between atoms: O_3  and  C_31
REMARK    5  A    between atoms: O_4  and  C_32
REMARK    6  A    between atoms: N_6  and  C_16
REMARK    7  A    between atoms: C_9  and  C_13
REMARK    8  A    between atoms: C_10  and  C_16
REMARK    9  A    between atoms: C_12  and  C_17
REMARK   10  A    between atoms: C_13  and  C_18
REMARK   11  A    between atoms: C_13  and  C_19
REMARK   12  A    between atoms: C_14  and  C_20
REMARK   13  A    between atoms: C_17  and  C_21
REMARK   14  A    between atoms: C_22  and  C_25
REMARK   15  A    between atoms: C_30  and  C_32
REMARK                            x       y       z     vdW  Elec       q    Type
REMARK                         _______ _______ _______ _____ _____    ______ ____
ROOT
ATOM      9  C   UNL     1       0.780   2.205  -0.916  0.00  0.00    +0.000 C 
ATOM     10  C   UNL     1       1.758   3.233  -0.294  0.00  0.00    +0.032 C 
ATOM     11  C   UNL     1      -0.642   2.422  -0.376  0.00  0.00    +0.012 C 
ATOM     12  C   UNL     1      -0.709   2.293   1.157  0.00  0.00    +0.022 C 
ATOM     14  C   UNL     1       0.400   3.071   1.837  0.00  0.00    -0.073 C 
ATOM     15  C   UNL     1       1.488   3.495   1.170  0.00  0.00    -0.022 C 
ATOM     20  C   UNL     1       0.207   3.391   3.293  0.00  0.00    +0.039 C 
ENDROOT
BRANCH   9  13
ATOM     13  C   UNL     1       0.771   2.284  -2.446  0.00  0.00    -0.013 C 
ATOM     18  C   UNL     1      -0.129   3.422  -2.916  0.00  0.00    +0.007 C 
ATOM     19  C   UNL     1       0.319   0.955  -3.044  0.00  0.00    +0.007 C 
ENDBRANCH   9  13
BRANCH  10  16
ATOM     16  C   UNL     1       3.214   2.790  -0.473  0.00  0.00    +0.112 C 
BRANCH  16   6
ATOM      1  O   UNL     1       4.097   0.243  -1.521  0.00  0.00    -0.273 OA
ATOM      6  N   UNL     1       3.476   1.596   0.268  0.00  0.00    -0.313 N 
ATOM     22  C   UNL     1       3.901   0.405  -0.320  0.00  0.00    +0.239 C 
ATOM     33  H   UNL     1       3.401   1.634   1.280  0.00  0.00    +0.149 HD
BRANCH  22  25
ATOM     25  C   UNL     1       4.103  -0.696   0.699  0.00  0.00    +0.256 C 
BRANCH  25   2
ATOM      2  O   UNL     1       4.545  -1.881   0.071  0.00  0.00    -0.359 OA
BRANCH   2  30
ATOM     30  C   UNL     1       4.744  -2.936   1.008  0.00  0.00    +0.280 C 
BRANCH  30  32
ATOM      5  O   UNL     1       5.378  -4.279  -0.915  0.00  0.00    -0.248 OA
ATOM     32  C   UNL     1       5.213  -4.171   0.291  0.00  0.00    +0.331 C 
BRANCH  32   4
ATOM      4  O   UNL     1       5.434  -5.173   1.179  0.00  0.00    -0.479 OA
ATOM     35  H   UNL     1       5.742  -5.993   0.737  0.00  0.00    +0.295 HD
ENDBRANCH  32   4
ENDBRANCH  30  32
ENDBRANCH   2  30
ENDBRANCH  25   2
ENDBRANCH  22  25
ENDBRANCH  16   6
ENDBRANCH  10  16
BRANCH  12  17
ATOM     17  C   UNL     1      -0.690   0.822   1.589  0.00  0.00    +0.082 C 
BRANCH  17  21
ATOM      7  N   UNL     1      -3.095   0.159   1.393  0.00  0.00    -0.342 N 
ATOM      8  N   UNL     1      -1.706  -0.787  -0.062  0.00  0.00    -0.232 NA
ATOM     21  C   UNL     1      -1.807   0.048   0.948  0.00  0.00    +0.109 A 
ATOM     23  C   UNL     1      -3.877  -0.659   0.618  0.00  0.00    +0.070 A 
ATOM     24  C   UNL     1      -2.987  -1.238  -0.282  0.00  0.00    +0.089 A 
ATOM     26  C   UNL     1      -5.245  -0.934   0.628  0.00  0.00    +0.073 A 
ATOM     27  C   UNL     1      -3.473  -2.148  -1.236  0.00  0.00    +0.033 A 
ATOM     28  C   UNL     1      -5.711  -1.841  -0.329  0.00  0.00    +0.122 A 
ATOM     29  C   UNL     1      -4.843  -2.439  -1.245  0.00  0.00    +0.048 A 
ATOM     34  H   UNL     1      -3.416   0.741   2.155  0.00  0.00    +0.167 HD
BRANCH  28   3
ATOM      3  O   UNL     1      -7.040  -2.148  -0.366  0.00  0.00    -0.495 OA
ATOM     31  C   UNL     1      -7.878  -1.507   0.593  0.00  0.00    +0.277 C 
ENDBRANCH  28   3
ENDBRANCH  17  21
ENDBRANCH  12  17
TORSDOF 11
