REMARK  Name = 71693201
REMARK  14 active torsions:
REMARK  status: ('A' for Active; 'I' for Inactive)
REMARK    1  A    between atoms: O_2  and  C_25
REMARK    2  A    between atoms: O_2  and  C_30
REMARK    3  A    between atoms: O_3  and  C_31
REMARK    4  A    between atoms: N_5  and  C_15
REMARK    5  A    between atoms: C_8  and  C_12
REMARK    6  A    between atoms: C_9  and  C_15
REMARK    7  A    between atoms: C_11  and  C_16
REMARK    8  A    between atoms: C_12  and  C_17
REMARK    9  A    between atoms: C_12  and  C_18
REMARK   10  A    between atoms: C_13  and  C_19
REMARK   11  A    between atoms: C_16  and  C_20
REMARK   12  A    between atoms: C_21  and  C_25
REMARK   13  A    between atoms: C_24  and  C_29
REMARK   14  A    between atoms: C_30  and  C_31
REMARK                            x       y       z     vdW  Elec       q    Type
REMARK                         _______ _______ _______ _____ _____    ______ ____
ROOT
ATOM      8  C   UNL     1       1.448  -1.508   1.088  0.00  0.00    +0.000 C 
ATOM      9  C   UNL     1       2.727  -2.255   0.633  0.00  0.00    +0.032 C 
ATOM     10  C   UNL     1       0.194  -2.301   0.691  0.00  0.00    +0.012 C 
ATOM     11  C   UNL     1       0.109  -2.535  -0.830  0.00  0.00    +0.022 C 
ATOM     13  C   UNL     1       1.427  -3.021  -1.399  0.00  0.00    -0.073 C 
ATOM     14  C   UNL     1       2.584  -2.900  -0.725  0.00  0.00    -0.022 C 
ATOM     19  C   UNL     1       1.376  -3.692  -2.744  0.00  0.00    +0.039 C 
ENDROOT
BRANCH   8  12
ATOM     12  C   UNL     1       1.444  -1.254   2.598  0.00  0.00    -0.013 C 
ATOM     17  C   UNL     1       0.557  -0.059   2.935  0.00  0.00    +0.007 C 
ATOM     18  C   UNL     1       0.981  -2.499   3.346  0.00  0.00    +0.007 C 
ENDBRANCH   8  12
BRANCH   9  15
ATOM     15  C   UNL     1       3.942  -1.319   0.629  0.00  0.00    +0.112 C 
BRANCH  15   5
ATOM      1  O   UNL     1       3.886   1.538   1.073  0.00  0.00    -0.273 OA
ATOM      5  N   UNL     1       3.791  -0.296  -0.357  0.00  0.00    -0.313 N 
ATOM     21  C   UNL     1       3.775   1.065  -0.055  0.00  0.00    +0.239 C 
ATOM     32  H   UNL     1       3.756  -0.577  -1.333  0.00  0.00    +0.149 HD
BRANCH  21  25
ATOM     25  C   UNL     1       3.603   1.924  -1.290  0.00  0.00    +0.256 C 
BRANCH  25   2
ATOM      2  O   UNL     1       2.941   3.130  -0.971  0.00  0.00    -0.359 OA
BRANCH   2  30
ATOM     30  C   UNL     1       1.531   2.950  -0.866  0.00  0.00    +0.280 C 
BRANCH  30  31
ATOM      4  O   UNL     1       1.451   5.320  -0.337  0.00  0.00    -0.248 OA
ATOM     31  C   UNL     1       0.875   4.259  -0.525  0.00  0.00    +0.331 C 
BRANCH  31   3
ATOM      3  O   UNL     1      -0.471   4.104  -0.453  0.00  0.00    -0.479 OA
ATOM     34  H   UNL     1      -0.925   4.944  -0.231  0.00  0.00    +0.295 HD
ENDBRANCH  31   3
ENDBRANCH  30  31
ENDBRANCH   2  30
ENDBRANCH  25   2
ENDBRANCH  21  25
ENDBRANCH  15   5
ENDBRANCH   9  15
BRANCH  11  16
ATOM     16  C   UNL     1      -0.370  -1.273  -1.556  0.00  0.00    +0.082 C 
BRANCH  16  20
ATOM      6  N   UNL     1      -2.858  -1.434  -1.356  0.00  0.00    -0.342 N 
ATOM      7  N   UNL     1      -1.898   0.215  -0.216  0.00  0.00    -0.232 NA
ATOM     20  C   UNL     1      -1.693  -0.802  -1.023  0.00  0.00    +0.109 A 
ATOM     22  C   UNL     1      -3.884  -0.781  -0.722  0.00  0.00    +0.066 A 
ATOM     23  C   UNL     1      -3.260   0.243  -0.017  0.00  0.00    +0.092 A 
ATOM     24  C   UNL     1      -4.041   1.119   0.756  0.00  0.00    -0.023 A 
ATOM     26  C   UNL     1      -5.263  -0.993  -0.705  0.00  0.00    +0.028 A 
ATOM     27  C   UNL     1      -5.428   0.925   0.788  0.00  0.00    +0.005 A 
ATOM     28  C   UNL     1      -6.026  -0.113   0.069  0.00  0.00    +0.002 A 
ATOM     29  C   UNL     1      -3.449   2.243   1.541  0.00  0.00    +0.046 C 
ATOM     33  H   UNL     1      -2.950  -2.239  -1.961  0.00  0.00    +0.167 HD
ENDBRANCH  16  20
ENDBRANCH  11  16
TORSDOF 10
