REMARK  Name = 11912948
REMARK  11 active torsions:
REMARK  status: ('A' for Active; 'I' for Inactive)
REMARK    1  A    between atoms: S_1  and  C_20
REMARK    2  A    between atoms: S_1  and  C_27
REMARK    3  A    between atoms: O_5  and  C_28
REMARK    4  A    between atoms: N_7  and  C_13
REMARK    5  A    between atoms: N_8  and  C_14
REMARK    6  A    between atoms: C_18  and  C_20
REMARK    7  A    between atoms: C_19  and  C_21
REMARK    8  A    between atoms: C_19  and  C_23
REMARK    9  A    between atoms: C_19  and  C_24
REMARK   10  A    between atoms: C_19  and  C_25
REMARK   11  A    between atoms: C_27  and  C_28
REMARK                            x       y       z     vdW  Elec       q    Type
REMARK                         _______ _______ _______ _____ _____    ______ ____
ROOT
ATOM      2  O   UNL     1       0.006  -3.616   0.614  0.00  0.00    -0.370 OA
ATOM      3  O   UNL     1       0.471  -0.652   1.470  0.00  0.00    -0.370 OA
ATOM     11  C   UNL     1      -0.277  -1.263   0.406  0.00  0.00    +0.171 C 
ATOM     12  C   UNL     1       0.518  -2.462  -0.072  0.00  0.00    +0.171 C 
ATOM     13  C   UNL     1      -1.558  -1.858   0.941  0.00  0.00    +0.130 C 
ATOM     14  C   UNL     1       1.932  -2.168   0.375  0.00  0.00    +0.130 C 
ATOM     15  C   UNL     1      -1.113  -3.226   1.425  0.00  0.00    +0.185 C 
ATOM     16  C   UNL     1       1.710  -1.356   1.639  0.00  0.00    +0.185 C 
ENDROOT
BRANCH  13   7
ATOM      7  N   UNL     1      -2.524  -1.995  -0.127  0.00  0.00    -0.306 N 
ATOM      9  N   UNL     1      -3.256   0.194   0.128  0.00  0.00    -0.219 NA
ATOM     10  N   UNL     1      -4.211  -1.257  -1.542  0.00  0.00    -0.223 NA
ATOM     17  C   UNL     1      -3.367  -0.975  -0.531  0.00  0.00    +0.216 A 
ATOM     21  C   UNL     1      -4.093   1.166  -0.292  0.00  0.00    +0.052 A 
ATOM     22  C   UNL     1      -5.003   1.004  -1.317  0.00  0.00    +0.043 A 
ATOM     26  C   UNL     1      -5.018  -0.241  -1.911  0.00  0.00    +0.116 A 
ATOM     29  H   UNL     1      -2.566  -2.860  -0.653  0.00  0.00    +0.149 HD
BRANCH  21  19
ATOM     19  C   UNL     1      -4.003   2.479   0.411  0.00  0.00    +0.005 C 
ATOM     23  C   UNL     1      -5.361   2.854   1.081  0.00  0.00    +0.017 C 
ATOM     24  C   UNL     1      -3.633   3.627  -0.579  0.00  0.00    +0.017 C 
ATOM     25  C   UNL     1      -2.939   2.556   1.555  0.00  0.00    +0.017 C 
ENDBRANCH  21  19
ENDBRANCH  13   7
BRANCH  14   8
ATOM      4  O   UNL     1       4.796  -2.065  -0.031  0.00  0.00    -0.275 OA
ATOM      8  N   UNL     1       2.646  -1.405  -0.619  0.00  0.00    -0.307 N 
ATOM     18  C   UNL     1       4.028  -1.417  -0.740  0.00  0.00    +0.223 C 
ATOM     30  H   UNL     1       2.107  -0.786  -1.218  0.00  0.00    +0.149 HD
BRANCH  18  20
ATOM     20  C   UNL     1       4.533  -0.520  -1.845  0.00  0.00    +0.165 C 
BRANCH  20   1
ATOM      1  S   UNL     1       5.650   0.714  -1.136  0.00  0.00    -0.140 S 
BRANCH   1  27
ATOM     27  C   UNL     1       4.409   1.860  -0.491  0.00  0.00    +0.189 C 
BRANCH  27  28
ATOM      6  O   UNL     1       6.196   3.444  -0.160  0.00  0.00    -0.250 OA
ATOM     28  C   UNL     1       5.098   3.018   0.173  0.00  0.00    +0.315 C 
BRANCH  28   5
ATOM      5  O   UNL     1       4.363   3.558   1.178  0.00  0.00    -0.480 OA
ATOM     31  H   UNL     1       4.820   4.318   1.599  0.00  0.00    +0.295 HD
ENDBRANCH  28   5
ENDBRANCH  27  28
ENDBRANCH   1  27
ENDBRANCH  20   1
ENDBRANCH  18  20
ENDBRANCH  14   8
TORSDOF 8
