REMARK  Name = 56775535
REMARK  8 active torsions:
REMARK  status: ('A' for Active; 'I' for Inactive)
REMARK    1  A    between atoms: O_3  and  C_19
REMARK    2  A    between atoms: O_3  and  C_25
REMARK    3  A    between atoms: N_4  and  C_7
REMARK    4  A    between atoms: N_4  and  C_11
REMARK    5  A    between atoms: C_7  and  C_10
REMARK    6  A    between atoms: C_10  and  C_12
REMARK    7  A    between atoms: C_11  and  C_13
REMARK    8  A    between atoms: C_15  and  C_19
REMARK                            x       y       z     vdW  Elec       q    Type
REMARK                         _______ _______ _______ _____ _____    ______ ____
ROOT
ATOM      4  N   UNL     1      -0.273   0.998   0.267  0.00  0.00    -0.302 NA
ATOM     26  H   UNL     1      -0.725   0.163   0.638  0.00  0.00    +0.123 HD
ENDROOT
BRANCH   4   7
ATOM      1  O   UNL     1      -0.872   3.787   1.292  0.00  0.00    -0.376 OA
ATOM      7  C   UNL     1      -1.170   2.121  -0.009  0.00  0.00    +0.072 C 
ATOM      8  C   UNL     1      -0.357   3.411  -0.006  0.00  0.00    +0.184 C 
ATOM      9  C   UNL     1      -1.740   2.631   1.310  0.00  0.00    +0.184 C 
BRANCH   7  10
ATOM     10  C   UNL     1      -2.104   1.855  -1.150  0.00  0.00    +0.085 C 
BRANCH  10  12
ATOM      2  O   UNL     1      -5.014   0.053   0.005  0.00  0.00    -0.357 OA
ATOM      5  N   UNL     1      -4.302   1.225  -0.221  0.00  0.00    -0.083 NA
ATOM     12  C   UNL     1      -3.147   0.828  -0.764  0.00  0.00    +0.086 A 
ATOM     14  C   UNL     1      -3.075  -0.569  -0.902  0.00  0.00    +0.073 A 
ATOM     15  C   UNL     1      -4.273  -1.008  -0.405  0.00  0.00    +0.163 A 
BRANCH  15  19
ATOM     19  C   UNL     1      -4.879  -2.334  -0.237  0.00  0.00    +0.236 C 
BRANCH  19   3
ATOM      3  O   UNL     1      -4.841  -2.727   1.137  0.00  0.00    -0.375 OA
ATOM     25  C   UNL     1      -5.423  -4.007   1.321  0.00  0.00    +0.194 C 
ENDBRANCH  19   3
ENDBRANCH  15  19
ENDBRANCH  10  12
ENDBRANCH   7  10
ENDBRANCH   4   7
BRANCH   4  11
ATOM     11  C   UNL     1       0.461   0.659  -0.956  0.00  0.00    +0.118 C 
BRANCH  11  13
ATOM      6  N   UNL     1       3.031  -2.073  -0.615  0.00  0.00    -0.255 NA
ATOM     13  C   UNL     1       1.750  -0.028  -0.675  0.00  0.00    -0.015 A 
ATOM     16  C   UNL     1       2.857   0.676  -0.226  0.00  0.00    +0.016 A 
ATOM     17  C   UNL     1       1.888  -1.389  -0.853  0.00  0.00    +0.116 A 
ATOM     18  C   UNL     1       4.061   0.007   0.032  0.00  0.00    +0.001 A 
ATOM     20  C   UNL     1       4.104  -1.387  -0.179  0.00  0.00    +0.071 A 
ATOM     21  C   UNL     1       5.201   0.691   0.488  0.00  0.00    +0.010 A 
ATOM     22  C   UNL     1       5.300  -2.051   0.078  0.00  0.00    +0.028 A 
ATOM     23  C   UNL     1       6.384   0.002   0.737  0.00  0.00    +0.001 A 
ATOM     24  C   UNL     1       6.433  -1.372   0.531  0.00  0.00    +0.002 A 
ENDBRANCH  11  13
ENDBRANCH   4  11
TORSDOF 7
