REMARK  Name = 71693884
REMARK  9 active torsions:
REMARK  status: ('A' for Active; 'I' for Inactive)
REMARK    1  A    between atoms: O_1  and  C_9
REMARK    2  A    between atoms: O_2  and  C_11
REMARK    3  A    between atoms: O_4  and  C_19
REMARK    4  A    between atoms: O_4  and  C_25
REMARK    5  A    between atoms: O_5  and  C_20
REMARK    6  A    between atoms: O_5  and  C_26
REMARK    7  A    between atoms: N_6  and  C_8
REMARK    8  A    between atoms: C_7  and  C_12
REMARK    9  A    between atoms: C_15  and  C_18
REMARK                            x       y       z     vdW  Elec       q    Type
REMARK                         _______ _______ _______ _____ _____    ______ ____
ROOT
ATOM      7  C   UNL     1       1.315  -1.430  -0.991  0.00  0.00    +0.044 C 
ATOM      8  C   UNL     1       0.307  -1.954   0.056  0.00  0.00    +0.112 C 
ATOM      9  C   UNL     1       0.337  -3.469  -0.147  0.00  0.00    +0.164 C 
ATOM     10  C   UNL     1       2.264  -2.618  -1.296  0.00  0.00    +0.044 C 
ATOM     11  C   UNL     1       1.816  -3.756  -0.381  0.00  0.00    +0.145 C 
ENDROOT
BRANCH   7  12
ATOM     12  C   UNL     1       2.021  -0.165  -0.552  0.00  0.00    -0.042 A 
ATOM     13  C   UNL     1       2.786  -0.162   0.614  0.00  0.00    +0.007 A 
ATOM     14  C   UNL     1       1.903   0.999  -1.312  0.00  0.00    +0.007 A 
ATOM     16  C   UNL     1       3.435   1.004   1.019  0.00  0.00    +0.046 A 
ATOM     17  C   UNL     1       2.552   2.165  -0.907  0.00  0.00    +0.046 A 
ATOM     19  C   UNL     1       3.317   2.168   0.259  0.00  0.00    +0.120 A 
BRANCH  19   4
ATOM      4  O   UNL     1       3.949   3.307   0.656  0.00  0.00    -0.495 OA
ATOM     25  C   UNL     1       3.785   4.460  -0.167  0.00  0.00    +0.277 C 
ENDBRANCH  19   4
ENDBRANCH   7  12
BRANCH   8   6
ATOM      3  O   UNL     1      -0.794   0.385   1.305  0.00  0.00    -0.270 OA
ATOM      6  N   UNL     1      -1.013  -1.411  -0.145  0.00  0.00    -0.305 N 
ATOM     15  C   UNL     1      -1.459  -0.269   0.506  0.00  0.00    +0.248 C 
ATOM     27  H   UNL     1      -1.588  -1.843  -0.861  0.00  0.00    +0.149 HD
BRANCH  15  18
ATOM     18  C   UNL     1      -2.854   0.147   0.211  0.00  0.00    +0.078 A 
ATOM     20  C   UNL     1      -3.225   1.490   0.257  0.00  0.00    +0.132 A 
ATOM     21  C   UNL     1      -3.798  -0.827  -0.115  0.00  0.00    +0.017 A 
ATOM     22  C   UNL     1      -4.541   1.860  -0.022  0.00  0.00    +0.046 A 
ATOM     23  C   UNL     1      -5.113  -0.457  -0.395  0.00  0.00    +0.001 A 
ATOM     24  C   UNL     1      -5.485   0.886  -0.348  0.00  0.00    +0.004 A 
BRANCH  20   5
ATOM      5  O   UNL     1      -2.318   2.456   0.576  0.00  0.00    -0.494 OA
ATOM     26  C   UNL     1      -1.589   3.040  -0.501  0.00  0.00    +0.277 C 
ENDBRANCH  20   5
ENDBRANCH  15  18
ENDBRANCH   8   6
BRANCH   9   1
ATOM      1  O   UNL     1      -0.148  -4.171   0.981  0.00  0.00    -0.387 OA
ATOM     28  H   UNL     1      -0.010  -5.120   0.816  0.00  0.00    +0.210 HD
ENDBRANCH   9   1
BRANCH  11   2
ATOM      2  O   UNL     1       2.549  -3.678   0.838  0.00  0.00    -0.389 OA
ATOM     29  H   UNL     1       3.486  -3.830   0.625  0.00  0.00    +0.210 HD
ENDBRANCH  11   2
TORSDOF 7
