REMARK  Name = 45361547
REMARK  10 active torsions:
REMARK  status: ('A' for Active; 'I' for Inactive)
REMARK    1  A    between atoms: O_1  and  C_12
REMARK    2  A    between atoms: N_4  and  C_16
REMARK    3  A    between atoms: N_5  and  C_26
REMARK    4  A    between atoms: C_9  and  C_19
REMARK    5  A    between atoms: C_11  and  C_21
REMARK    6  A    between atoms: C_15  and  C_20
REMARK    7  A    between atoms: C_20  and  C_22
REMARK    8  A    between atoms: C_20  and  C_23
REMARK    9  A    between atoms: C_24  and  C_25
REMARK   10  A    between atoms: C_26  and  C_28
REMARK                            x       y       z     vdW  Elec       q    Type
REMARK                         _______ _______ _______ _____ _____    ______ ____
ROOT
ATOM      9  C   UNL     1      -0.023   0.429   1.192  0.00  0.00    -0.027 C 
ATOM     10  C   UNL     1      -0.362  -0.453  -0.056  0.00  0.00    +0.028 C 
ATOM     11  C   UNL     1      -1.889  -0.821  -0.082  0.00  0.00    +0.012 C 
ATOM     12  C   UNL     1       0.618  -1.656  -0.178  0.00  0.00    +0.122 C 
ATOM     13  C   UNL     1       1.460   0.867   1.126  0.00  0.00    +0.007 C 
ATOM     14  C   UNL     1      -0.892   1.707   1.157  0.00  0.00    +0.009 C 
ATOM     15  C   UNL     1       2.101  -1.221  -0.138  0.00  0.00    +0.029 C 
ATOM     16  C   UNL     1      -2.754   0.470  -0.040  0.00  0.00    +0.076 C 
ATOM     17  C   UNL     1       2.424  -0.310   1.046  0.00  0.00    +0.007 C 
ATOM     18  C   UNL     1      -2.385   1.413   1.104  0.00  0.00    +0.023 C 
ATOM     19  C   UNL     1      -0.264  -0.315   2.529  0.00  0.00    +0.011 C 
ATOM     21  C   UNL     1      -2.298  -1.665  -1.300  0.00  0.00    +0.010 C 
ENDROOT
BRANCH  16   4
ATOM      3  O   UNL     1      -4.916   2.006  -1.141  0.00  0.00    -0.268 OA
ATOM      4  N   UNL     1      -4.167   0.166   0.054  0.00  0.00    -0.307 N 
ATOM     24  C   UNL     1      -5.138   0.973  -0.513  0.00  0.00    +0.264 C 
ATOM     35  H   UNL     1      -4.451  -0.639   0.606  0.00  0.00    +0.149 HD
BRANCH  24  25
ATOM      6  N   UNL     1      -6.725  -0.592   0.408  0.00  0.00    -0.247 NA
ATOM      7  N   UNL     1      -8.879   0.868  -0.638  0.00  0.00    -0.259 NA
ATOM     25  C   UNL     1      -6.542   0.538  -0.305  0.00  0.00    +0.143 A 
ATOM     27  C   UNL     1      -7.601   1.255  -0.819  0.00  0.00    +0.143 A 
ATOM     29  C   UNL     1      -8.003  -0.978   0.589  0.00  0.00    +0.131 A 
ATOM     31  C   UNL     1      -9.061  -0.261   0.075  0.00  0.00    +0.130 A 
ENDBRANCH  24  25
ENDBRANCH  16   4
BRANCH  12   1
ATOM      1  O   UNL     1       0.417  -2.308  -1.433  0.00  0.00    -0.391 OA
ATOM     36  H   UNL     1       0.584  -1.661  -2.140  0.00  0.00    +0.210 HD
ENDBRANCH  12   1
BRANCH  15  20
ATOM     20  C   UNL     1       3.047  -2.428  -0.129  0.00  0.00    +0.077 C 
ATOM     22  C   UNL     1       2.768  -3.304   1.087  0.00  0.00    +0.017 C 
BRANCH  20  23
ATOM      2  O   UNL     1       5.305  -2.244   0.728  0.00  0.00    -0.276 OA
ATOM      5  N   UNL     1       4.782  -1.166  -1.258  0.00  0.00    -0.309 N 
ATOM     23  C   UNL     1       4.497  -1.952  -0.150  0.00  0.00    +0.217 C 
ATOM     37  H   UNL     1       4.073  -1.015  -1.968  0.00  0.00    +0.149 HD
BRANCH   5  26
ATOM     26  C   UNL     1       6.088  -0.598  -1.497  0.00  0.00    +0.159 C 
BRANCH  26  28
ATOM      8  N   UNL     1       7.001   0.776   0.287  0.00  0.00    -0.258 NA
ATOM     28  C   UNL     1       6.248   0.741  -0.835  0.00  0.00    +0.058 A 
ATOM     30  C   UNL     1       5.632   1.850  -1.392  0.00  0.00    +0.025 A 
ATOM     32  C   UNL     1       5.801   3.075  -0.756  0.00  0.00    +0.003 A 
ATOM     33  C   UNL     1       7.142   1.984   0.877  0.00  0.00    +0.111 A 
ATOM     34  C   UNL     1       6.569   3.152   0.401  0.00  0.00    +0.020 A 
ENDBRANCH  26  28
ENDBRANCH   5  26
ENDBRANCH  20  23
ENDBRANCH  15  20
TORSDOF 7
